MODEL 1
REMARK VINA RESULT:      -8.4      0.000      0.000
REMARK  Name = 
REMARK  6 active torsions:
REMARK  status: ('A' for Active; 'I' for Inactive)
REMARK    1  A    between atoms: N_1  and  S_2
REMARK    2  A    between atoms: S_2  and  C_5
REMARK    3  A    between atoms: C_8  and  C_9
REMARK    4  A    between atoms: C_12  and  C_13
REMARK    5  A    between atoms: C_13  and  C_15
REMARK    6  A    between atoms: C_18  and  N_19
REMARK                            x       y       z     vdW  Elec       q    Type
REMARK                         _______ _______ _______ _____ _____    ______ ____
ROOT
ATOM      1  C   UNL     1       2.138   7.281  19.570  0.00  0.00    +0.000 A 
ATOM      2  C   UNL     1       2.782   7.423  18.327  0.00  0.00    +0.000 A 
ATOM      3  C   UNL     1       3.488   6.369  17.741  0.00  0.00    +0.000 A 
ATOM      4  C   UNL     1       3.582   5.140  18.392  0.00  0.00    +0.000 A 
ATOM      5  C   UNL     1       2.978   4.978  19.640  0.00  0.00    +0.000 A 
ATOM      6  C   UNL     1       2.251   6.034  20.211  0.00  0.00    +0.000 A 
ENDROOT
BRANCH   1  10
ATOM      7  C   UNL     1       0.023  10.603  21.312  0.00  0.00    +0.000 A 
ATOM      8  C   UNL     1       0.435  10.666  19.983  0.00  0.00    +0.000 A 
ATOM      9  C   UNL     1       1.102   9.572  19.422  0.00  0.00    +0.000 A 
ATOM     10  C   UNL     1       1.394   8.414  20.172  0.00  0.00    +0.000 A 
ATOM     11  C   UNL     1       0.971   8.391  21.514  0.00  0.00    +0.000 A 
ATOM     12  C   UNL     1       0.288   9.471  22.082  0.00  0.00    +0.000 A 
BRANCH   7  13
ATOM     13  S   UNL     1      -0.865  11.956  22.012  0.00  0.00    +0.000 S 
ATOM     14  O   UNL     1      -1.114  11.684  23.407  0.00  0.00    +0.000 OA
ATOM     15  O   UNL     1      -1.909  12.368  21.098  0.00  0.00    +0.000 OA
BRANCH  13  16
ATOM     16  N   UNL     1       0.276  13.186  21.961  0.00  0.00    +0.000 NA
ATOM     17  H   UNL     1       0.163  13.788  22.778  0.00  0.00    +0.000 HD
ATOM     18  H   UNL     1       0.217  13.683  21.072  0.00  0.00    +0.000 HD
ENDBRANCH  13  16
ENDBRANCH   7  13
ENDBRANCH   1  10
BRANCH   4  19
ATOM     19  C   UNL     1       4.382   4.073  17.739  0.00  0.00    +0.000 C 
ATOM     20  O   UNL     1       4.298   2.919  18.156  0.00  0.00    +0.000 OA
BRANCH  19  21
ATOM     21  C   UNL     1       5.278   4.345  16.587  0.00  0.00    +0.000 A 
ATOM     22  C   UNL     1       4.799   4.056  15.303  0.00  0.00    +0.000 A 
ATOM     23  C   UNL     1       5.602   4.296  14.183  0.00  0.00    +0.000 A 
ATOM     24  C   UNL     1       6.887   4.820  14.359  0.00  0.00    +0.000 A 
ATOM     25  C   UNL     1       7.386   5.080  15.644  0.00  0.00    +0.000 A 
ATOM     26  C   UNL     1       6.580   4.830  16.760  0.00  0.00    +0.000 A 
BRANCH  24  27
ATOM     27  N   UNL     1       7.725   5.099  13.186  0.00  0.00    +0.000 N 
ATOM     28  O   UNL     1       7.428   4.544  12.120  0.00  0.00    +0.000 OA
ATOM     29  O   UNL     1       8.674   5.883  13.331  0.00  0.00    +0.000 OA
ENDBRANCH  24  27
ENDBRANCH  19  21
ENDBRANCH   4  19
TORSDOF 6
ENDMDL
MODEL 2
REMARK VINA RESULT:      -8.4      0.772      1.536
REMARK  Name = 
REMARK  6 active torsions:
REMARK  status: ('A' for Active; 'I' for Inactive)
REMARK    1  A    between atoms: N_1  and  S_2
REMARK    2  A    between atoms: S_2  and  C_5
REMARK    3  A    between atoms: C_8  and  C_9
REMARK    4  A    between atoms: C_12  and  C_13
REMARK    5  A    between atoms: C_13  and  C_15
REMARK    6  A    between atoms: C_18  and  N_19
REMARK                            x       y       z     vdW  Elec       q    Type
REMARK                         _______ _______ _______ _____ _____    ______ ____
ROOT
ATOM      1  C   UNL     1       2.086   7.522  19.671  0.00  0.00    +0.000 A 
ATOM      2  C   UNL     1       2.245   6.252  20.255  0.00  0.00    +0.000 A 
ATOM      3  C   UNL     1       2.975   5.240  19.625  0.00  0.00    +0.000 A 
ATOM      4  C   UNL     1       3.557   5.466  18.380  0.00  0.00    +0.000 A 
ATOM      5  C   UNL     1       3.392   6.707  17.761  0.00  0.00    +0.000 A 
ATOM      6  C   UNL     1       2.678   7.726  18.411  0.00  0.00    +0.000 A 
ENDROOT
BRANCH   1  10
ATOM      7  C   UNL     1      -0.213  10.560  21.677  0.00  0.00    +0.000 A 
ATOM      8  C   UNL     1       0.251   9.459  22.392  0.00  0.00    +0.000 A 
ATOM      9  C   UNL     1       1.015   8.490  21.734  0.00  0.00    +0.000 A 
ATOM     10  C   UNL     1       1.308   8.581  20.358  0.00  0.00    +0.000 A 
ATOM     11  C   UNL     1       0.815   9.703  19.666  0.00  0.00    +0.000 A 
ATOM     12  C   UNL     1       0.064  10.688  20.317  0.00  0.00    +0.000 A 
BRANCH   7  13
ATOM     13  S   UNL     1      -1.132  11.813  22.510  0.00  0.00    +0.000 S 
ATOM     14  O   UNL     1      -0.227  12.853  22.940  0.00  0.00    +0.000 OA
ATOM     15  O   UNL     1      -2.088  11.194  23.401  0.00  0.00    +0.000 OA
BRANCH  13  16
ATOM     16  N   UNL     1      -2.048  12.463  21.262  0.00  0.00    +0.000 NA
ATOM     17  H   UNL     1      -1.526  13.218  20.814  0.00  0.00    +0.000 HD
ATOM     18  H   UNL     1      -2.964  12.747  21.610  0.00  0.00    +0.000 HD
ENDBRANCH  13  16
ENDBRANCH   7  13
ENDBRANCH   1  10
BRANCH   4  19
ATOM     19  C   UNL     1       4.282   4.339  17.742  0.00  0.00    +0.000 C 
ATOM     20  O   UNL     1       4.115   3.198  18.168  0.00  0.00    +0.000 OA
BRANCH  19  21
ATOM     21  C   UNL     1       5.201   4.535  16.592  0.00  0.00    +0.000 A 
ATOM     22  C   UNL     1       4.752   4.150  15.322  0.00  0.00    +0.000 A 
ATOM     23  C   UNL     1       5.577   4.317  14.205  0.00  0.00    +0.000 A 
ATOM     24  C   UNL     1       6.854   4.863  14.369  0.00  0.00    +0.000 A 
ATOM     25  C   UNL     1       7.323   5.220  15.643  0.00  0.00    +0.000 A 
ATOM     26  C   UNL     1       6.495   5.043  16.757  0.00  0.00    +0.000 A 
BRANCH  24  27
ATOM     27  N   UNL     1       7.715   5.065  13.196  0.00  0.00    +0.000 N 
ATOM     28  O   UNL     1       7.422   4.462  12.156  0.00  0.00    +0.000 OA
ATOM     29  O   UNL     1       8.678   5.837  13.317  0.00  0.00    +0.000 OA
ENDBRANCH  24  27
ENDBRANCH  19  21
ENDBRANCH   4  19
TORSDOF 6
ENDMDL
MODEL 3
REMARK VINA RESULT:      -8.4      0.694      1.361
REMARK  Name = 
REMARK  6 active torsions:
REMARK  status: ('A' for Active; 'I' for Inactive)
REMARK    1  A    between atoms: N_1  and  S_2
REMARK    2  A    between atoms: S_2  and  C_5
REMARK    3  A    between atoms: C_8  and  C_9
REMARK    4  A    between atoms: C_12  and  C_13
REMARK    5  A    between atoms: C_13  and  C_15
REMARK    6  A    between atoms: C_18  and  N_19
REMARK                            x       y       z     vdW  Elec       q    Type
REMARK                         _______ _______ _______ _____ _____    ______ ____
ROOT
ATOM      1  C   UNL     1       2.167   7.327  19.609  0.00  0.00    +0.000 A 
ATOM      2  C   UNL     1       2.778   7.459  18.348  0.00  0.00    +0.000 A 
ATOM      3  C   UNL     1       3.470   6.402  17.753  0.00  0.00    +0.000 A 
ATOM      4  C   UNL     1       3.584   5.179  18.412  0.00  0.00    +0.000 A 
ATOM      5  C   UNL     1       3.015   5.026  19.677  0.00  0.00    +0.000 A 
ATOM      6  C   UNL     1       2.300   6.086  20.258  0.00  0.00    +0.000 A 
ENDROOT
BRANCH   1  10
ATOM      7  C   UNL     1       0.004  10.592  21.398  0.00  0.00    +0.000 A 
ATOM      8  C   UNL     1       0.436   9.532  22.191  0.00  0.00    +0.000 A 
ATOM      9  C   UNL     1       1.156   8.487  21.602  0.00  0.00    +0.000 A 
ATOM     10  C   UNL     1       1.436   8.463  20.221  0.00  0.00    +0.000 A 
ATOM     11  C   UNL     1       0.975   9.547  19.450  0.00  0.00    +0.000 A 
ATOM     12  C   UNL     1       0.269  10.606  20.030  0.00  0.00    +0.000 A 
BRANCH   7  13
ATOM     13  S   UNL     1      -0.859  11.938  22.142  0.00  0.00    +0.000 S 
ATOM     14  O   UNL     1       0.031  13.071  22.239  0.00  0.00    +0.000 OA
ATOM     15  O   UNL     1      -1.629  11.452  23.265  0.00  0.00    +0.000 OA
BRANCH  13  16
ATOM     16  N   UNL     1      -1.992  12.321  20.963  0.00  0.00    +0.000 NA
ATOM     17  H   UNL     1      -2.921  12.044  21.282  0.00  0.00    +0.000 HD
ATOM     18  H   UNL     1      -1.723  11.907  20.070  0.00  0.00    +0.000 HD
ENDBRANCH  13  16
ENDBRANCH   7  13
ENDBRANCH   1  10
BRANCH   4  19
ATOM     19  C   UNL     1       4.370   4.108  17.748  0.00  0.00    +0.000 C 
ATOM     20  O   UNL     1       4.270   2.951  18.152  0.00  0.00    +0.000 OA
BRANCH  19  21
ATOM     21  C   UNL     1       5.271   4.380  16.600  0.00  0.00    +0.000 A 
ATOM     22  C   UNL     1       4.824   4.027  15.320  0.00  0.00    +0.000 A 
ATOM     23  C   UNL     1       5.632   4.264  14.203  0.00  0.00    +0.000 A 
ATOM     24  C   UNL     1       6.891   4.850  14.378  0.00  0.00    +0.000 A 
ATOM     25  C   UNL     1       7.359   5.175  15.661  0.00  0.00    +0.000 A 
ATOM     26  C   UNL     1       6.548   4.927  16.773  0.00  0.00    +0.000 A 
BRANCH  24  27
ATOM     27  N   UNL     1       7.734   5.126  13.207  0.00  0.00    +0.000 N 
ATOM     28  O   UNL     1       8.686   5.902  13.353  0.00  0.00    +0.000 OA
ATOM     29  O   UNL     1       7.446   4.555  12.145  0.00  0.00    +0.000 OA
ENDBRANCH  24  27
ENDBRANCH  19  21
ENDBRANCH   4  19
TORSDOF 6
ENDMDL
MODEL 4
REMARK VINA RESULT:      -8.4      0.420      1.496
REMARK  Name = 
REMARK  6 active torsions:
REMARK  status: ('A' for Active; 'I' for Inactive)
REMARK    1  A    between atoms: N_1  and  S_2
REMARK    2  A    between atoms: S_2  and  C_5
REMARK    3  A    between atoms: C_8  and  C_9
REMARK    4  A    between atoms: C_12  and  C_13
REMARK    5  A    between atoms: C_13  and  C_15
REMARK    6  A    between atoms: C_18  and  N_19
REMARK                            x       y       z     vdW  Elec       q    Type
REMARK                         _______ _______ _______ _____ _____    ______ ____
ROOT
ATOM      1  C   UNL     1       2.079   7.556  19.651  0.00  0.00    +0.000 A 
ATOM      2  C   UNL     1       2.210   6.292  20.255  0.00  0.00    +0.000 A 
ATOM      3  C   UNL     1       2.998   5.285  19.690  0.00  0.00    +0.000 A 
ATOM      4  C   UNL     1       3.670   5.511  18.490  0.00  0.00    +0.000 A 
ATOM      5  C   UNL     1       3.535   6.745  17.851  0.00  0.00    +0.000 A 
ATOM      6  C   UNL     1       2.762   7.759  18.437  0.00  0.00    +0.000 A 
ENDROOT
BRANCH   1  10
ATOM      7  C   UNL     1      -0.401  10.575  21.459  0.00  0.00    +0.000 A 
ATOM      8  C   UNL     1       0.113   9.543  22.241  0.00  0.00    +0.000 A 
ATOM      9  C   UNL     1       0.935   8.580  21.646  0.00  0.00    +0.000 A 
ATOM     10  C   UNL     1       1.238   8.609  20.270  0.00  0.00    +0.000 A 
ATOM     11  C   UNL     1       0.693   9.661  19.510  0.00  0.00    +0.000 A 
ATOM     12  C   UNL     1      -0.116  10.639  20.097  0.00  0.00    +0.000 A 
BRANCH   7  13
ATOM     13  S   UNL     1      -1.395  11.822  22.212  0.00  0.00    +0.000 S 
ATOM     14  O   UNL     1      -2.051  11.265  23.370  0.00  0.00    +0.000 OA
ATOM     15  O   UNL     1      -2.109  12.550  21.185  0.00  0.00    +0.000 OA
BRANCH  13  16
ATOM     16  N   UNL     1      -0.236  12.892  22.787  0.00  0.00    +0.000 NA
ATOM     17  H   UNL     1      -0.644  13.472  23.522  0.00  0.00    +0.000 HD
ATOM     18  H   UNL     1       0.162  13.426  22.014  0.00  0.00    +0.000 HD
ENDBRANCH  13  16
ENDBRANCH   7  13
ENDBRANCH   1  10
BRANCH   4  19
ATOM     19  C   UNL     1       4.455   4.389  17.917  0.00  0.00    +0.000 C 
ATOM     20  O   UNL     1       4.398   3.282  18.448  0.00  0.00    +0.000 OA
BRANCH  19  21
ATOM     21  C   UNL     1       5.306   4.551  16.711  0.00  0.00    +0.000 A 
ATOM     22  C   UNL     1       4.746   4.230  15.468  0.00  0.00    +0.000 A 
ATOM     23  C   UNL     1       5.503   4.368  14.299  0.00  0.00    +0.000 A 
ATOM     24  C   UNL     1       6.824   4.820  14.387  0.00  0.00    +0.000 A 
ATOM     25  C   UNL     1       7.402   5.110  15.632  0.00  0.00    +0.000 A 
ATOM     26  C   UNL     1       6.641   4.963  16.797  0.00  0.00    +0.000 A 
BRANCH  24  27
ATOM     27  N   UNL     1       7.616   4.991  13.162  0.00  0.00    +0.000 N 
ATOM     28  O   UNL     1       8.565   5.785  13.195  0.00  0.00    +0.000 OA
ATOM     29  O   UNL     1       7.292   4.322  12.170  0.00  0.00    +0.000 OA
ENDBRANCH  24  27
ENDBRANCH  19  21
ENDBRANCH   4  19
TORSDOF 6
ENDMDL
MODEL 5
REMARK VINA RESULT:      -8.3      0.697      1.268
REMARK  Name = 
REMARK  6 active torsions:
REMARK  status: ('A' for Active; 'I' for Inactive)
REMARK    1  A    between atoms: N_1  and  S_2
REMARK    2  A    between atoms: S_2  and  C_5
REMARK    3  A    between atoms: C_8  and  C_9
REMARK    4  A    between atoms: C_12  and  C_13
REMARK    5  A    between atoms: C_13  and  C_15
REMARK    6  A    between atoms: C_18  and  N_19
REMARK                            x       y       z     vdW  Elec       q    Type
REMARK                         _______ _______ _______ _____ _____    ______ ____
ROOT
ATOM      1  C   UNL     1       2.162   7.390  19.480  0.00  0.00    +0.000 A 
ATOM      2  C   UNL     1       2.786   7.510  18.224  0.00  0.00    +0.000 A 
ATOM      3  C   UNL     1       3.485   6.447  17.646  0.00  0.00    +0.000 A 
ATOM      4  C   UNL     1       3.593   5.231  18.318  0.00  0.00    +0.000 A 
ATOM      5  C   UNL     1       3.010   5.090  19.579  0.00  0.00    +0.000 A 
ATOM      6  C   UNL     1       2.289   6.155  20.142  0.00  0.00    +0.000 A 
ENDROOT
BRANCH   1  10
ATOM      7  C   UNL     1      -0.023  10.671  21.212  0.00  0.00    +0.000 A 
ATOM      8  C   UNL     1       0.348   9.589  22.008  0.00  0.00    +0.000 A 
ATOM      9  C   UNL     1       1.075   8.540  21.439  0.00  0.00    +0.000 A 
ATOM     10  C   UNL     1       1.424   8.531  20.073  0.00  0.00    +0.000 A 
ATOM     11  C   UNL     1       1.025   9.636  19.298  0.00  0.00    +0.000 A 
ATOM     12  C   UNL     1       0.311  10.700  19.859  0.00  0.00    +0.000 A 
BRANCH   7  13
ATOM     13  S   UNL     1      -0.894  12.023  21.934  0.00  0.00    +0.000 S 
ATOM     14  O   UNL     1      -2.115  12.243  21.197  0.00  0.00    +0.000 OA
ATOM     15  O   UNL     1       0.038  13.087  22.236  0.00  0.00    +0.000 OA
BRANCH  13  16
ATOM     16  N   UNL     1      -1.343  11.393  23.424  0.00  0.00    +0.000 NA
ATOM     17  H   UNL     1      -0.811  11.855  24.163  0.00  0.00    +0.000 HD
ATOM     18  H   UNL     1      -1.245  10.378  23.420  0.00  0.00    +0.000 HD
ENDBRANCH  13  16
ENDBRANCH   7  13
ENDBRANCH   1  10
BRANCH   4  19
ATOM     19  C   UNL     1       4.386   4.154  17.673  0.00  0.00    +0.000 C 
ATOM     20  O   UNL     1       4.283   3.001  18.087  0.00  0.00    +0.000 OA
BRANCH  19  21
ATOM     21  C   UNL     1       5.298   4.416  16.531  0.00  0.00    +0.000 A 
ATOM     22  C   UNL     1       4.872   4.031  15.253  0.00  0.00    +0.000 A 
ATOM     23  C   UNL     1       5.691   4.258  14.141  0.00  0.00    +0.000 A 
ATOM     24  C   UNL     1       6.940   4.863  14.321  0.00  0.00    +0.000 A 
ATOM     25  C   UNL     1       7.387   5.220  15.602  0.00  0.00    +0.000 A 
ATOM     26  C   UNL     1       6.565   4.983  16.709  0.00  0.00    +0.000 A 
BRANCH  24  27
ATOM     27  N   UNL     1       7.793   5.127  13.155  0.00  0.00    +0.000 N 
ATOM     28  O   UNL     1       7.479   4.602  12.080  0.00  0.00    +0.000 OA
ATOM     29  O   UNL     1       8.772   5.871  13.317  0.00  0.00    +0.000 OA
ENDBRANCH  24  27
ENDBRANCH  19  21
ENDBRANCH   4  19
TORSDOF 6
ENDMDL
MODEL 6
REMARK VINA RESULT:      -8.3      0.712      1.707
REMARK  Name = 
REMARK  6 active torsions:
REMARK  status: ('A' for Active; 'I' for Inactive)
REMARK    1  A    between atoms: N_1  and  S_2
REMARK    2  A    between atoms: S_2  and  C_5
REMARK    3  A    between atoms: C_8  and  C_9
REMARK    4  A    between atoms: C_12  and  C_13
REMARK    5  A    between atoms: C_13  and  C_15
REMARK    6  A    between atoms: C_18  and  N_19
REMARK                            x       y       z     vdW  Elec       q    Type
REMARK                         _______ _______ _______ _____ _____    ______ ____
ROOT
ATOM      1  C   UNL     1       2.158   7.362  19.573  0.00  0.00    +0.000 A 
ATOM      2  C   UNL     1       2.865   7.511  18.366  0.00  0.00    +0.000 A 
ATOM      3  C   UNL     1       3.605   6.461  17.814  0.00  0.00    +0.000 A 
ATOM      4  C   UNL     1       3.670   5.231  18.465  0.00  0.00    +0.000 A 
ATOM      5  C   UNL     1       3.003   5.062  19.680  0.00  0.00    +0.000 A 
ATOM      6  C   UNL     1       2.243   6.113  20.215  0.00  0.00    +0.000 A 
ENDROOT
BRANCH   1  10
ATOM      7  C   UNL     1      -0.146  10.603  21.227  0.00  0.00    +0.000 A 
ATOM      8  C   UNL     1       0.231   9.536  22.040  0.00  0.00    +0.000 A 
ATOM      9  C   UNL     1       0.998   8.500  21.497  0.00  0.00    +0.000 A 
ATOM     10  C   UNL     1       1.379   8.490  20.139  0.00  0.00    +0.000 A 
ATOM     11  C   UNL     1       0.972   9.579  19.346  0.00  0.00    +0.000 A 
ATOM     12  C   UNL     1       0.220  10.630  19.882  0.00  0.00    +0.000 A 
BRANCH   7  13
ATOM     13  S   UNL     1      -1.067  11.938  21.917  0.00  0.00    +0.000 S 
ATOM     14  O   UNL     1      -2.177  12.243  21.046  0.00  0.00    +0.000 OA
ATOM     15  O   UNL     1      -0.153  12.951  22.401  0.00  0.00    +0.000 OA
BRANCH  13  16
ATOM     16  N   UNL     1      -1.719  11.237  23.296  0.00  0.00    +0.000 NA
ATOM     17  H   UNL     1      -2.459  10.586  23.029  0.00  0.00    +0.000 HD
ATOM     18  H   UNL     1      -2.024  11.961  23.947  0.00  0.00    +0.000 HD
ENDBRANCH  13  16
ENDBRANCH   7  13
ENDBRANCH   1  10
BRANCH   4  19
ATOM     19  C   UNL     1       4.508   4.169  17.852  0.00  0.00    +0.000 C 
ATOM     20  O   UNL     1       4.540   3.055  18.370  0.00  0.00    +0.000 OA
BRANCH  19  21
ATOM     21  C   UNL     1       5.306   4.400  16.622  0.00  0.00    +0.000 A 
ATOM     22  C   UNL     1       6.605   4.904  16.770  0.00  0.00    +0.000 A 
ATOM     23  C   UNL     1       7.401   5.136  15.644  0.00  0.00    +0.000 A 
ATOM     24  C   UNL     1       6.886   4.868  14.371  0.00  0.00    +0.000 A 
ATOM     25  C   UNL     1       5.574   4.395  14.214  0.00  0.00    +0.000 A 
ATOM     26  C   UNL     1       4.781   4.172  15.344  0.00  0.00    +0.000 A 
BRANCH  24  27
ATOM     27  N   UNL     1       7.726   5.085  13.186  0.00  0.00    +0.000 N 
ATOM     28  O   UNL     1       8.676   5.871  13.289  0.00  0.00    +0.000 OA
ATOM     29  O   UNL     1       7.439   4.457  12.156  0.00  0.00    +0.000 OA
ENDBRANCH  24  27
ENDBRANCH  19  21
ENDBRANCH   4  19
TORSDOF 6
ENDMDL
MODEL 7
REMARK VINA RESULT:      -8.3      0.702      1.237
REMARK  Name = 
REMARK  6 active torsions:
REMARK  status: ('A' for Active; 'I' for Inactive)
REMARK    1  A    between atoms: N_1  and  S_2
REMARK    2  A    between atoms: S_2  and  C_5
REMARK    3  A    between atoms: C_8  and  C_9
REMARK    4  A    between atoms: C_12  and  C_13
REMARK    5  A    between atoms: C_13  and  C_15
REMARK    6  A    between atoms: C_18  and  N_19
REMARK                            x       y       z     vdW  Elec       q    Type
REMARK                         _______ _______ _______ _____ _____    ______ ____
ROOT
ATOM      1  C   UNL     1       2.133   7.271  19.645  0.00  0.00    +0.000 A 
ATOM      2  C   UNL     1       2.760   7.422  18.394  0.00  0.00    +0.000 A 
ATOM      3  C   UNL     1       3.459   6.373  17.792  0.00  0.00    +0.000 A 
ATOM      4  C   UNL     1       3.566   5.141  18.435  0.00  0.00    +0.000 A 
ATOM      5  C   UNL     1       2.981   4.969  19.691  0.00  0.00    +0.000 A 
ATOM      6  C   UNL     1       2.259   6.021  20.277  0.00  0.00    +0.000 A 
ENDROOT
BRANCH   1  10
ATOM      7  C   UNL     1       0.031  10.579  21.428  0.00  0.00    +0.000 A 
ATOM      8  C   UNL     1       0.255  10.562  20.053  0.00  0.00    +0.000 A 
ATOM      9  C   UNL     1       0.920   9.472  19.483  0.00  0.00    +0.000 A 
ATOM     10  C   UNL     1       1.395   8.399  20.264  0.00  0.00    +0.000 A 
ATOM     11  C   UNL     1       1.159   8.455  21.650  0.00  0.00    +0.000 A 
ATOM     12  C   UNL     1       0.480   9.532  22.230  0.00  0.00    +0.000 A 
BRANCH   7  13
ATOM     13  S   UNL     1      -0.853  11.924  22.147  0.00  0.00    +0.000 S 
ATOM     14  O   UNL     1       0.015  13.075  22.215  0.00  0.00    +0.000 OA
ATOM     15  O   UNL     1      -1.608  11.448  23.286  0.00  0.00    +0.000 OA
BRANCH  13  16
ATOM     16  N   UNL     1      -1.999  12.260  20.967  0.00  0.00    +0.000 NA
ATOM     17  H   UNL     1      -1.607  12.063  20.046  0.00  0.00    +0.000 HD
ATOM     18  H   UNL     1      -2.342  13.215  21.073  0.00  0.00    +0.000 HD
ENDBRANCH  13  16
ENDBRANCH   7  13
ENDBRANCH   1  10
BRANCH   4  19
ATOM     19  C   UNL     1       4.360   4.079  17.765  0.00  0.00    +0.000 C 
ATOM     20  O   UNL     1       4.311   2.929  18.197  0.00  0.00    +0.000 OA
BRANCH  19  21
ATOM     21  C   UNL     1       5.208   4.353  16.578  0.00  0.00    +0.000 A 
ATOM     22  C   UNL     1       6.417   5.030  16.780  0.00  0.00    +0.000 A 
ATOM     23  C   UNL     1       7.256   5.310  15.696  0.00  0.00    +0.000 A 
ATOM     24  C   UNL     1       6.872   4.914  14.410  0.00  0.00    +0.000 A 
ATOM     25  C   UNL     1       5.647   4.265  14.196  0.00  0.00    +0.000 A 
ATOM     26  C   UNL     1       4.810   3.995  15.284  0.00  0.00    +0.000 A 
BRANCH  24  27
ATOM     27  N   UNL     1       7.760   5.182  13.271  0.00  0.00    +0.000 N 
ATOM     28  O   UNL     1       7.489   4.643  12.191  0.00  0.00    +0.000 OA
ATOM     29  O   UNL     1       8.722   5.941  13.459  0.00  0.00    +0.000 OA
ENDBRANCH  24  27
ENDBRANCH  19  21
ENDBRANCH   4  19
TORSDOF 6
ENDMDL
MODEL 8
REMARK VINA RESULT:      -8.2      0.619      1.270
REMARK  Name = 
REMARK  6 active torsions:
REMARK  status: ('A' for Active; 'I' for Inactive)
REMARK    1  A    between atoms: N_1  and  S_2
REMARK    2  A    between atoms: S_2  and  C_5
REMARK    3  A    between atoms: C_8  and  C_9
REMARK    4  A    between atoms: C_12  and  C_13
REMARK    5  A    between atoms: C_13  and  C_15
REMARK    6  A    between atoms: C_18  and  N_19
REMARK                            x       y       z     vdW  Elec       q    Type
REMARK                         _______ _______ _______ _____ _____    ______ ____
ROOT
ATOM      1  C   UNL     1       1.914   7.384  20.032  0.00  0.00    +0.000 A 
ATOM      2  C   UNL     1       2.651   7.529  18.842  0.00  0.00    +0.000 A 
ATOM      3  C   UNL     1       3.424   6.487  18.324  0.00  0.00    +0.000 A 
ATOM      4  C   UNL     1       3.495   5.267  18.994  0.00  0.00    +0.000 A 
ATOM      5  C   UNL     1       2.798   5.101  20.193  0.00  0.00    +0.000 A 
ATOM      6  C   UNL     1       2.004   6.145  20.693  0.00  0.00    +0.000 A 
ENDROOT
BRANCH   1  10
ATOM      7  C   UNL     1      -0.410  10.672  21.557  0.00  0.00    +0.000 A 
ATOM      8  C   UNL     1      -0.057  10.640  20.210  0.00  0.00    +0.000 A 
ATOM      9  C   UNL     1       0.680   9.557  19.722  0.00  0.00    +0.000 A 
ATOM     10  C   UNL     1       1.099   8.504  20.561  0.00  0.00    +0.000 A 
ATOM     11  C   UNL     1       0.732   8.575  21.918  0.00  0.00    +0.000 A 
ATOM     12  C   UNL     1      -0.019   9.645  22.415  0.00  0.00    +0.000 A 
BRANCH   7  13
ATOM     13  S   UNL     1      -1.384  12.008  22.170  0.00  0.00    +0.000 S 
ATOM     14  O   UNL     1      -2.192  11.536  23.269  0.00  0.00    +0.000 OA
ATOM     15  O   UNL     1      -1.937  12.748  21.056  0.00  0.00    +0.000 OA
BRANCH  13  16
ATOM     16  N   UNL     1      -0.216  13.016  22.833  0.00  0.00    +0.000 NA
ATOM     17  H   UNL     1       0.368  13.396  22.087  0.00  0.00    +0.000 HD
ATOM     18  H   UNL     1       0.308  12.518  23.553  0.00  0.00    +0.000 HD
ENDBRANCH  13  16
ENDBRANCH   7  13
ENDBRANCH   1  10
BRANCH   4  19
ATOM     19  C   UNL     1       4.368   4.212  18.419  0.00  0.00    +0.000 C 
ATOM     20  O   UNL     1       4.460   3.129  18.992  0.00  0.00    +0.000 OA
BRANCH  19  21
ATOM     21  C   UNL     1       5.133   4.414  17.162  0.00  0.00    +0.000 A 
ATOM     22  C   UNL     1       6.437   4.913  17.264  0.00  0.00    +0.000 A 
ATOM     23  C   UNL     1       7.203   5.119  16.111  0.00  0.00    +0.000 A 
ATOM     24  C   UNL     1       6.650   4.829  14.859  0.00  0.00    +0.000 A 
ATOM     25  C   UNL     1       5.332   4.361  14.748  0.00  0.00    +0.000 A 
ATOM     26  C   UNL     1       4.570   4.165  15.905  0.00  0.00    +0.000 A 
BRANCH  24  27
ATOM     27  N   UNL     1       7.458   5.018  13.647  0.00  0.00    +0.000 N 
ATOM     28  O   UNL     1       8.425   5.787  13.713  0.00  0.00    +0.000 OA
ATOM     29  O   UNL     1       7.127   4.386  12.632  0.00  0.00    +0.000 OA
ENDBRANCH  24  27
ENDBRANCH  19  21
ENDBRANCH   4  19
TORSDOF 6
ENDMDL
MODEL 9
REMARK VINA RESULT:      -8.2      0.326      1.357
REMARK  Name = 
REMARK  6 active torsions:
REMARK  status: ('A' for Active; 'I' for Inactive)
REMARK    1  A    between atoms: N_1  and  S_2
REMARK    2  A    between atoms: S_2  and  C_5
REMARK    3  A    between atoms: C_8  and  C_9
REMARK    4  A    between atoms: C_12  and  C_13
REMARK    5  A    between atoms: C_13  and  C_15
REMARK    6  A    between atoms: C_18  and  N_19
REMARK                            x       y       z     vdW  Elec       q    Type
REMARK                         _______ _______ _______ _____ _____    ______ ____
ROOT
ATOM      1  C   UNL     1       2.059   7.391  19.733  0.00  0.00    +0.000 A 
ATOM      2  C   UNL     1       2.690   7.489  18.479  0.00  0.00    +0.000 A 
ATOM      3  C   UNL     1       3.452   6.442  17.955  0.00  0.00    +0.000 A 
ATOM      4  C   UNL     1       3.618   5.264  18.682  0.00  0.00    +0.000 A 
ATOM      5  C   UNL     1       3.030   5.147  19.943  0.00  0.00    +0.000 A 
ATOM      6  C   UNL     1       2.246   6.196  20.451  0.00  0.00    +0.000 A 
ENDROOT
BRANCH   1  10
ATOM      7  C   UNL     1      -0.320  10.623  21.293  0.00  0.00    +0.000 A 
ATOM      8  C   UNL     1       0.016   9.551  22.117  0.00  0.00    +0.000 A 
ATOM      9  C   UNL     1       0.807   8.518  21.605  0.00  0.00    +0.000 A 
ATOM     10  C   UNL     1       1.255   8.516  20.268  0.00  0.00    +0.000 A 
ATOM     11  C   UNL     1       0.888   9.611  19.463  0.00  0.00    +0.000 A 
ATOM     12  C   UNL     1       0.111  10.659  19.968  0.00  0.00    +0.000 A 
BRANCH   7  13
ATOM     13  S   UNL     1      -1.272  11.956  21.946  0.00  0.00    +0.000 S 
ATOM     14  O   UNL     1      -1.758  11.589  23.255  0.00  0.00    +0.000 OA
ATOM     15  O   UNL     1      -2.136  12.479  20.911  0.00  0.00    +0.000 OA
BRANCH  13  16
ATOM     16  N   UNL     1      -0.103  13.137  22.184  0.00  0.00    +0.000 NA
ATOM     17  H   UNL     1       0.587  13.089  21.433  0.00  0.00    +0.000 HD
ATOM     18  H   UNL     1       0.299  13.049  23.118  0.00  0.00    +0.000 HD
ENDBRANCH  13  16
ENDBRANCH   7  13
ENDBRANCH   1  10
BRANCH   4  19
ATOM     19  C   UNL     1       4.475   4.204  18.093  0.00  0.00    +0.000 C 
ATOM     20  O   UNL     1       4.533   3.105  18.639  0.00  0.00    +0.000 OA
BRANCH  19  21
ATOM     21  C   UNL     1       5.264   4.420  16.854  0.00  0.00    +0.000 A 
ATOM     22  C   UNL     1       6.518   5.031  16.975  0.00  0.00    +0.000 A 
ATOM     23  C   UNL     1       7.304   5.255  15.839  0.00  0.00    +0.000 A 
ATOM     24  C   UNL     1       6.822   4.869  14.584  0.00  0.00    +0.000 A 
ATOM     25  C   UNL     1       5.552   4.287  14.452  0.00  0.00    +0.000 A 
ATOM     26  C   UNL     1       4.769   4.073  15.591  0.00  0.00    +0.000 A 
BRANCH  24  27
ATOM     27  N   UNL     1       7.653   5.077  13.391  0.00  0.00    +0.000 N 
ATOM     28  O   UNL     1       7.320   4.498  12.349  0.00  0.00    +0.000 OA
ATOM     29  O   UNL     1       8.633   5.828  13.497  0.00  0.00    +0.000 OA
ENDBRANCH  24  27
ENDBRANCH  19  21
ENDBRANCH   4  19
TORSDOF 6
ENDMDL
