MODEL 1
REMARK VINA RESULT:      -7.1      0.000      0.000
REMARK  Name = 
REMARK  7 active torsions:
REMARK  status: ('A' for Active; 'I' for Inactive)
REMARK    1  A    between atoms: C_1  and  C_2
REMARK    2  A    between atoms: CA_7  and  C_8
REMARK    3  A    between atoms: C_8  and  OXT_10
REMARK    4  A    between atoms: C_11  and  C_12
REMARK    5  A    between atoms: C_12  and  C_13
REMARK    6  A    between atoms: C_13  and  C_14
REMARK    7  A    between atoms: C_14  and  O_16
REMARK                            x       y       z     vdW  Elec       q    Type
REMARK                         _______ _______ _______ _____ _____    ______ ____
ROOT
ATOM      1  C   UNL     1       0.385   2.527  18.563  0.00  0.00    +0.000 C 
ATOM      2  C   UNL     1       1.821   2.842  18.871  0.00  0.00    +0.000 A 
ATOM      3  C   UNL     1       2.374   2.585  20.122  0.00  0.00    +0.000 A 
ATOM      4  C   UNL     1       3.705   2.904  20.398  0.00  0.00    +0.000 A 
ATOM      5  C   UNL     1       4.464   3.502  19.383  0.00  0.00    +0.000 A 
ATOM      6  N   UNL     1       5.760   3.934  19.407  0.00  0.00    +0.000 N 
ATOM      7  CA  UNL     1       6.144   4.458  18.191  0.00  0.00    +0.000 A 
ATOM      8  C   UNL     1       5.031   4.394  17.345  0.00  0.00    +0.000 A 
ATOM      9  C   UNL     1       3.967   3.774  18.112  0.00  0.00    +0.000 A 
ATOM     10  C   UNL     1       2.619   3.419  17.867  0.00  0.00    +0.000 A 
ATOM     11  H   UNL     1       6.376   3.875  20.209  0.00  0.00    +0.000 HD
ENDROOT
BRANCH   7  12
ATOM     12  C   UNL     1       7.498   4.966  18.073  0.00  0.00    +0.000 C 
ATOM     13  O   UNL     1       7.835   6.092  18.401  0.00  0.00    +0.000 OA
BRANCH  12  14
ATOM     14  OXT UNL     1       8.387   4.049  17.637  0.00  0.00    +0.000 OA
ATOM     15  HXT UNL     1       9.140   4.439  17.161  0.00  0.00    +0.000 HD
ENDBRANCH  12  14
ENDBRANCH   7  12
BRANCH   8  16
ATOM     16  C   UNL     1       4.966   4.885  15.915  0.00  0.00    +0.000 C 
BRANCH  16  17
ATOM     17  C   UNL     1       5.630   4.007  14.859  0.00  0.00    +0.000 C 
BRANCH  17  18
ATOM     18  C   UNL     1       6.771   4.717  14.180  0.00  0.00    +0.000 C 
ATOM     19  O   UNL     1       7.061   4.610  12.998  0.00  0.00    +0.000 OA
BRANCH  18  20
ATOM     20  O   UNL     1       7.438   5.541  15.022  0.00  0.00    +0.000 OA
ATOM     21  H   UNL     1       7.031   6.423  15.123  0.00  0.00    +0.000 HD
ENDBRANCH  18  20
ENDBRANCH  17  18
ENDBRANCH  16  17
ENDBRANCH   8  16
TORSDOF 6
ENDMDL
MODEL 2
REMARK VINA RESULT:      -7.0      1.677      3.581
REMARK  Name = 
REMARK  7 active torsions:
REMARK  status: ('A' for Active; 'I' for Inactive)
REMARK    1  A    between atoms: C_1  and  C_2
REMARK    2  A    between atoms: CA_7  and  C_8
REMARK    3  A    between atoms: C_8  and  OXT_10
REMARK    4  A    between atoms: C_11  and  C_12
REMARK    5  A    between atoms: C_12  and  C_13
REMARK    6  A    between atoms: C_13  and  C_14
REMARK    7  A    between atoms: C_14  and  O_16
REMARK                            x       y       z     vdW  Elec       q    Type
REMARK                         _______ _______ _______ _____ _____    ______ ____
ROOT
ATOM      1  C   UNL     1       1.740   5.251  20.405  0.00  0.00    +0.000 C 
ATOM      2  C   UNL     1       2.464   4.821  19.162  0.00  0.00    +0.000 A 
ATOM      3  C   UNL     1       2.092   3.682  18.455  0.00  0.00    +0.000 A 
ATOM      4  C   UNL     1       2.790   3.285  17.313  0.00  0.00    +0.000 A 
ATOM      5  C   UNL     1       3.886   4.060  16.906  0.00  0.00    +0.000 A 
ATOM      6  N   UNL     1       4.741   3.872  15.858  0.00  0.00    +0.000 N 
ATOM      7  CA  UNL     1       5.687   4.872  15.789  0.00  0.00    +0.000 A 
ATOM      8  C   UNL     1       5.455   5.735  16.867  0.00  0.00    +0.000 A 
ATOM      9  C   UNL     1       4.297   5.213  17.569  0.00  0.00    +0.000 A 
ATOM     10  C   UNL     1       3.552   5.590  18.710  0.00  0.00    +0.000 A 
ATOM     11  H   UNL     1       4.693   3.103  15.201  0.00  0.00    +0.000 HD
ENDROOT
BRANCH   7  12
ATOM     12  C   UNL     1       6.673   4.797  14.727  0.00  0.00    +0.000 C 
ATOM     13  O   UNL     1       6.529   4.141  13.708  0.00  0.00    +0.000 OA
BRANCH  12  14
ATOM     14  OXT UNL     1       7.746   5.592  14.923  0.00  0.00    +0.000 OA
ATOM     15  HXT UNL     1       8.486   5.394  14.324  0.00  0.00    +0.000 HD
ENDBRANCH  12  14
ENDBRANCH   7  12
BRANCH   8  16
ATOM     16  C   UNL     1       6.266   6.963  17.221  0.00  0.00    +0.000 C 
BRANCH  16  17
ATOM     17  C   UNL     1       7.592   6.725  17.935  0.00  0.00    +0.000 C 
BRANCH  17  18
ATOM     18  C   UNL     1       7.537   5.511  18.824  0.00  0.00    +0.000 C 
ATOM     19  O   UNL     1       7.028   5.476  19.934  0.00  0.00    +0.000 OA
BRANCH  18  20
ATOM     20  O   UNL     1       8.087   4.421  18.240  0.00  0.00    +0.000 OA
ATOM     21  H   UNL     1       8.968   4.579  17.848  0.00  0.00    +0.000 HD
ENDBRANCH  18  20
ENDBRANCH  17  18
ENDBRANCH  16  17
ENDBRANCH   8  16
TORSDOF 6
ENDMDL
MODEL 3
REMARK VINA RESULT:      -7.0      1.507      3.243
REMARK  Name = 
REMARK  7 active torsions:
REMARK  status: ('A' for Active; 'I' for Inactive)
REMARK    1  A    between atoms: C_1  and  C_2
REMARK    2  A    between atoms: CA_7  and  C_8
REMARK    3  A    between atoms: C_8  and  OXT_10
REMARK    4  A    between atoms: C_11  and  C_12
REMARK    5  A    between atoms: C_12  and  C_13
REMARK    6  A    between atoms: C_13  and  C_14
REMARK    7  A    between atoms: C_14  and  O_16
REMARK                            x       y       z     vdW  Elec       q    Type
REMARK                         _______ _______ _______ _____ _____    ______ ____
ROOT
ATOM      1  C   UNL     1       1.777   4.200  20.786  0.00  0.00    +0.000 C 
ATOM      2  C   UNL     1       2.544   3.849  19.544  0.00  0.00    +0.000 A 
ATOM      3  C   UNL     1       2.391   2.618  18.914  0.00  0.00    +0.000 A 
ATOM      4  C   UNL     1       3.128   2.299  17.772  0.00  0.00    +0.000 A 
ATOM      5  C   UNL     1       4.038   3.250  17.287  0.00  0.00    +0.000 A 
ATOM      6  N   UNL     1       4.889   3.173  16.221  0.00  0.00    +0.000 N 
ATOM      7  CA  UNL     1       5.615   4.334  16.066  0.00  0.00    +0.000 A 
ATOM      8  C   UNL     1       5.240   5.197  17.103  0.00  0.00    +0.000 A 
ATOM      9  C   UNL     1       4.225   4.499  17.871  0.00  0.00    +0.000 A 
ATOM     10  C   UNL     1       3.446   4.789  19.015  0.00  0.00    +0.000 A 
ATOM     11  H   UNL     1       4.981   2.371  15.609  0.00  0.00    +0.000 HD
ENDROOT
BRANCH   7  12
ATOM     12  C   UNL     1       6.571   4.392  14.976  0.00  0.00    +0.000 C 
ATOM     13  O   UNL     1       7.509   5.171  14.931  0.00  0.00    +0.000 OA
BRANCH  12  14
ATOM     14  OXT UNL     1       6.382   3.441  14.036  0.00  0.00    +0.000 OA
ATOM     15  HXT UNL     1       5.640   3.635  13.438  0.00  0.00    +0.000 HD
ENDBRANCH  12  14
ENDBRANCH   7  12
BRANCH   8  16
ATOM     16  C   UNL     1       5.797   6.580  17.361  0.00  0.00    +0.000 C 
BRANCH  16  17
ATOM     17  C   UNL     1       7.216   6.654  17.915  0.00  0.00    +0.000 C 
BRANCH  17  18
ATOM     18  C   UNL     1       7.558   5.440  18.737  0.00  0.00    +0.000 C 
ATOM     19  O   UNL     1       8.201   4.480  18.339  0.00  0.00    +0.000 OA
BRANCH  18  20
ATOM     20  O   UNL     1       7.105   5.537  20.009  0.00  0.00    +0.000 OA
ATOM     21  H   UNL     1       7.417   4.823  20.599  0.00  0.00    +0.000 HD
ENDBRANCH  18  20
ENDBRANCH  17  18
ENDBRANCH  16  17
ENDBRANCH   8  16
TORSDOF 6
ENDMDL
MODEL 4
REMARK VINA RESULT:      -7.0      2.481      5.377
REMARK  Name = 
REMARK  7 active torsions:
REMARK  status: ('A' for Active; 'I' for Inactive)
REMARK    1  A    between atoms: C_1  and  C_2
REMARK    2  A    between atoms: CA_7  and  C_8
REMARK    3  A    between atoms: C_8  and  OXT_10
REMARK    4  A    between atoms: C_11  and  C_12
REMARK    5  A    between atoms: C_12  and  C_13
REMARK    6  A    between atoms: C_13  and  C_14
REMARK    7  A    between atoms: C_14  and  O_16
REMARK                            x       y       z     vdW  Elec       q    Type
REMARK                         _______ _______ _______ _____ _____    ______ ____
ROOT
ATOM      1  C   UNL     1       4.548   2.920  11.366  0.00  0.00    +0.000 C 
ATOM      2  C   UNL     1       5.440   3.610  12.357  0.00  0.00    +0.000 A 
ATOM      3  C   UNL     1       6.739   3.989  12.031  0.00  0.00    +0.000 A 
ATOM      4  C   UNL     1       7.563   4.611  12.971  0.00  0.00    +0.000 A 
ATOM      5  C   UNL     1       7.048   4.831  14.257  0.00  0.00    +0.000 A 
ATOM      6  N   UNL     1       7.650   5.384  15.351  0.00  0.00    +0.000 N 
ATOM      7  CA  UNL     1       6.795   5.434  16.431  0.00  0.00    +0.000 A 
ATOM      8  C   UNL     1       5.586   4.855  16.028  0.00  0.00    +0.000 A 
ATOM      9  C   UNL     1       5.754   4.481  14.635  0.00  0.00    +0.000 A 
ATOM     10  C   UNL     1       4.947   3.870  13.648  0.00  0.00    +0.000 A 
ATOM     11  H   UNL     1       8.604   5.725  15.378  0.00  0.00    +0.000 HD
ENDROOT
BRANCH   7  12
ATOM     12  C   UNL     1       7.305   5.990  17.671  0.00  0.00    +0.000 C 
ATOM     13  O   UNL     1       7.517   7.178  17.850  0.00  0.00    +0.000 OA
BRANCH  12  14
ATOM     14  OXT UNL     1       7.452   5.078  18.655  0.00  0.00    +0.000 OA
ATOM     15  HXT UNL     1       7.076   5.365  19.505  0.00  0.00    +0.000 HD
ENDBRANCH  12  14
ENDBRANCH   7  12
BRANCH   8  16
ATOM     16  C   UNL     1       4.357   4.659  16.889  0.00  0.00    +0.000 C 
BRANCH  16  17
ATOM     17  C   UNL     1       4.241   3.326  17.622  0.00  0.00    +0.000 C 
BRANCH  17  18
ATOM     18  C   UNL     1       4.555   3.467  19.088  0.00  0.00    +0.000 C 
ATOM     19  O   UNL     1       4.838   2.544  19.837  0.00  0.00    +0.000 OA
BRANCH  18  20
ATOM     20  O   UNL     1       4.532   4.756  19.497  0.00  0.00    +0.000 OA
ATOM     21  H   UNL     1       5.417   5.147  19.635  0.00  0.00    +0.000 HD
ENDBRANCH  18  20
ENDBRANCH  17  18
ENDBRANCH  16  17
ENDBRANCH   8  16
TORSDOF 6
ENDMDL
MODEL 5
REMARK VINA RESULT:      -7.0      2.852      5.472
REMARK  Name = 
REMARK  7 active torsions:
REMARK  status: ('A' for Active; 'I' for Inactive)
REMARK    1  A    between atoms: C_1  and  C_2
REMARK    2  A    between atoms: CA_7  and  C_8
REMARK    3  A    between atoms: C_8  and  OXT_10
REMARK    4  A    between atoms: C_11  and  C_12
REMARK    5  A    between atoms: C_12  and  C_13
REMARK    6  A    between atoms: C_13  and  C_14
REMARK    7  A    between atoms: C_14  and  O_16
REMARK                            x       y       z     vdW  Elec       q    Type
REMARK                         _______ _______ _______ _____ _____    ______ ____
ROOT
ATOM      1  C   UNL     1       4.410   2.995  11.282  0.00  0.00    +0.000 C 
ATOM      2  C   UNL     1       5.333   3.619  12.288  0.00  0.00    +0.000 A 
ATOM      3  C   UNL     1       6.650   3.940  11.972  0.00  0.00    +0.000 A 
ATOM      4  C   UNL     1       7.502   4.500  12.927  0.00  0.00    +0.000 A 
ATOM      5  C   UNL     1       6.996   4.716  14.216  0.00  0.00    +0.000 A 
ATOM      6  N   UNL     1       7.623   5.215  15.323  0.00  0.00    +0.000 N 
ATOM      7  CA  UNL     1       6.769   5.284  16.403  0.00  0.00    +0.000 A 
ATOM      8  C   UNL     1       5.534   4.774  15.986  0.00  0.00    +0.000 A 
ATOM      9  C   UNL     1       5.686   4.423  14.586  0.00  0.00    +0.000 A 
ATOM     10  C   UNL     1       4.851   3.875  13.584  0.00  0.00    +0.000 A 
ATOM     11  H   UNL     1       8.592   5.508  15.358  0.00  0.00    +0.000 HD
ENDROOT
BRANCH   7  12
ATOM     12  C   UNL     1       7.304   5.787  17.655  0.00  0.00    +0.000 C 
ATOM     13  O   UNL     1       7.698   5.074  18.563  0.00  0.00    +0.000 OA
BRANCH  12  14
ATOM     14  OXT UNL     1       7.406   7.132  17.701  0.00  0.00    +0.000 OA
ATOM     15  HXT UNL     1       6.785   7.544  18.325  0.00  0.00    +0.000 HD
ENDBRANCH  12  14
ENDBRANCH   7  12
BRANCH   8  16
ATOM     16  C   UNL     1       4.295   4.620  16.841  0.00  0.00    +0.000 C 
BRANCH  16  17
ATOM     17  C   UNL     1       4.086   3.263  17.505  0.00  0.00    +0.000 C 
BRANCH  17  18
ATOM     18  C   UNL     1       2.633   2.870  17.526  0.00  0.00    +0.000 C 
ATOM     19  O   UNL     1       1.703   3.602  17.223  0.00  0.00    +0.000 OA
BRANCH  18  20
ATOM     20  O   UNL     1       2.456   1.577  17.885  0.00  0.00    +0.000 OA
ATOM     21  H   UNL     1       3.285   1.066  17.960  0.00  0.00    +0.000 HD
ENDBRANCH  18  20
ENDBRANCH  17  18
ENDBRANCH  16  17
ENDBRANCH   8  16
TORSDOF 6
ENDMDL
MODEL 6
REMARK VINA RESULT:      -6.9      3.208      3.759
REMARK  Name = 
REMARK  7 active torsions:
REMARK  status: ('A' for Active; 'I' for Inactive)
REMARK    1  A    between atoms: C_1  and  C_2
REMARK    2  A    between atoms: CA_7  and  C_8
REMARK    3  A    between atoms: C_8  and  OXT_10
REMARK    4  A    between atoms: C_11  and  C_12
REMARK    5  A    between atoms: C_12  and  C_13
REMARK    6  A    between atoms: C_13  and  C_14
REMARK    7  A    between atoms: C_14  and  O_16
REMARK                            x       y       z     vdW  Elec       q    Type
REMARK                         _______ _______ _______ _____ _____    ______ ____
ROOT
ATOM      1  C   UNL     1       2.031   9.465  17.867  0.00  0.00    +0.000 C 
ATOM      2  C   UNL     1       2.252   8.132  18.520  0.00  0.00    +0.000 A 
ATOM      3  C   UNL     1       1.759   7.848  19.790  0.00  0.00    +0.000 A 
ATOM      4  C   UNL     1       1.992   6.610  20.392  0.00  0.00    +0.000 A 
ATOM      5  C   UNL     1       2.750   5.665  19.684  0.00  0.00    +0.000 A 
ATOM      6  N   UNL     1       3.141   4.410  20.057  0.00  0.00    +0.000 N 
ATOM      7  CA  UNL     1       3.870   3.790  19.065  0.00  0.00    +0.000 A 
ATOM      8  C   UNL     1       3.986   4.700  18.008  0.00  0.00    +0.000 A 
ATOM      9  C   UNL     1       3.260   5.891  18.409  0.00  0.00    +0.000 A 
ATOM     10  C   UNL     1       2.985   7.151  17.828  0.00  0.00    +0.000 A 
ATOM     11  H   UNL     1       2.923   3.975  20.945  0.00  0.00    +0.000 HD
ENDROOT
BRANCH   7  12
ATOM     12  C   UNL     1       4.362   2.450  19.326  0.00  0.00    +0.000 C 
ATOM     13  O   UNL     1       4.987   2.136  20.325  0.00  0.00    +0.000 OA
BRANCH  12  14
ATOM     14  OXT UNL     1       3.993   1.544  18.396  0.00  0.00    +0.000 OA
ATOM     15  HXT UNL     1       4.716   1.295  17.794  0.00  0.00    +0.000 HD
ENDBRANCH  12  14
ENDBRANCH   7  12
BRANCH   8  16
ATOM     16  C   UNL     1       4.732   4.473  16.710  0.00  0.00    +0.000 C 
BRANCH  16  17
ATOM     17  C   UNL     1       5.632   5.608  16.231  0.00  0.00    +0.000 C 
BRANCH  17  18
ATOM     18  C   UNL     1       6.994   5.108  15.829  0.00  0.00    +0.000 C 
ATOM     19  O   UNL     1       7.486   5.227  14.718  0.00  0.00    +0.000 OA
BRANCH  18  20
ATOM     20  O   UNL     1       7.655   4.534  16.861  0.00  0.00    +0.000 OA
ATOM     21  H   UNL     1       7.569   3.561  16.899  0.00  0.00    +0.000 HD
ENDBRANCH  18  20
ENDBRANCH  17  18
ENDBRANCH  16  17
ENDBRANCH   8  16
TORSDOF 6
ENDMDL
MODEL 7
REMARK VINA RESULT:      -6.9      3.665      5.361
REMARK  Name = 
REMARK  7 active torsions:
REMARK  status: ('A' for Active; 'I' for Inactive)
REMARK    1  A    between atoms: C_1  and  C_2
REMARK    2  A    between atoms: CA_7  and  C_8
REMARK    3  A    between atoms: C_8  and  OXT_10
REMARK    4  A    between atoms: C_11  and  C_12
REMARK    5  A    between atoms: C_12  and  C_13
REMARK    6  A    between atoms: C_13  and  C_14
REMARK    7  A    between atoms: C_14  and  O_16
REMARK                            x       y       z     vdW  Elec       q    Type
REMARK                         _______ _______ _______ _____ _____    ______ ____
ROOT
ATOM      1  C   UNL     1       2.493   8.474  17.785  0.00  0.00    +0.000 C 
ATOM      2  C   UNL     1       3.327   7.247  18.015  0.00  0.00    +0.000 A 
ATOM      3  C   UNL     1       4.535   7.049  17.353  0.00  0.00    +0.000 A 
ATOM      4  C   UNL     1       5.288   5.891  17.563  0.00  0.00    +0.000 A 
ATOM      5  C   UNL     1       4.785   4.929  18.451  0.00  0.00    +0.000 A 
ATOM      6  N   UNL     1       5.304   3.715  18.801  0.00  0.00    +0.000 N 
ATOM      7  CA  UNL     1       4.507   3.068  19.721  0.00  0.00    +0.000 A 
ATOM      8  C   UNL     1       3.397   3.889  19.955  0.00  0.00    +0.000 A 
ATOM      9  C   UNL     1       3.588   5.079  19.147  0.00  0.00    +0.000 A 
ATOM     10  C   UNL     1       2.866   6.273  18.919  0.00  0.00    +0.000 A 
ATOM     11  H   UNL     1       6.170   3.329  18.443  0.00  0.00    +0.000 HD
ENDROOT
BRANCH   7  12
ATOM     12  C   UNL     1       4.931   1.758  20.179  0.00  0.00    +0.000 C 
ATOM     13  O   UNL     1       5.374   1.535  21.293  0.00  0.00    +0.000 OA
BRANCH  12  14
ATOM     14  OXT UNL     1       4.716   0.773  19.281  0.00  0.00    +0.000 OA
ATOM     15  HXT UNL     1       4.989   1.009  18.378  0.00  0.00    +0.000 HD
ENDBRANCH  12  14
ENDBRANCH   7  12
BRANCH   8  16
ATOM     16  C   UNL     1       2.232   3.578  20.870  0.00  0.00    +0.000 C 
BRANCH  16  17
ATOM     17  C   UNL     1       0.857   3.480  20.218  0.00  0.00    +0.000 C 
BRANCH  17  18
ATOM     18  C   UNL     1       0.888   2.629  18.976  0.00  0.00    +0.000 C 
ATOM     19  O   UNL     1       0.402   2.941  17.899  0.00  0.00    +0.000 OA
BRANCH  18  20
ATOM     20  O   UNL     1       1.563   1.471  19.163  0.00  0.00    +0.000 OA
ATOM     21  H   UNL     1       2.441   1.447  18.735  0.00  0.00    +0.000 HD
ENDBRANCH  18  20
ENDBRANCH  17  18
ENDBRANCH  16  17
ENDBRANCH   8  16
TORSDOF 6
ENDMDL
MODEL 8
REMARK VINA RESULT:      -6.9      2.486      5.518
REMARK  Name = 
REMARK  7 active torsions:
REMARK  status: ('A' for Active; 'I' for Inactive)
REMARK    1  A    between atoms: C_1  and  C_2
REMARK    2  A    between atoms: CA_7  and  C_8
REMARK    3  A    between atoms: C_8  and  OXT_10
REMARK    4  A    between atoms: C_11  and  C_12
REMARK    5  A    between atoms: C_12  and  C_13
REMARK    6  A    between atoms: C_13  and  C_14
REMARK    7  A    between atoms: C_14  and  O_16
REMARK                            x       y       z     vdW  Elec       q    Type
REMARK                         _______ _______ _______ _____ _____    ______ ____
ROOT
ATOM      1  C   UNL     1       4.578   2.982  11.238  0.00  0.00    +0.000 C 
ATOM      2  C   UNL     1       5.451   3.631  12.272  0.00  0.00    +0.000 A 
ATOM      3  C   UNL     1       6.672   4.211  11.939  0.00  0.00    +0.000 A 
ATOM      4  C   UNL     1       7.481   4.792  12.917  0.00  0.00    +0.000 A 
ATOM      5  C   UNL     1       7.035   4.762  14.247  0.00  0.00    +0.000 A 
ATOM      6  N   UNL     1       7.644   5.226  15.378  0.00  0.00    +0.000 N 
ATOM      7  CA  UNL     1       6.866   5.016  16.496  0.00  0.00    +0.000 A 
ATOM      8  C   UNL     1       5.708   4.353  16.074  0.00  0.00    +0.000 A 
ATOM      9  C   UNL     1       5.821   4.204  14.635  0.00  0.00    +0.000 A 
ATOM     10  C   UNL     1       5.022   3.643  13.611  0.00  0.00    +0.000 A 
ATOM     11  H   UNL     1       8.551   5.676  15.405  0.00  0.00    +0.000 HD
ENDROOT
BRANCH   7  12
ATOM     12  C   UNL     1       7.393   5.451  17.776  0.00  0.00    +0.000 C 
ATOM     13  O   UNL     1       7.786   4.690  18.646  0.00  0.00    +0.000 OA
BRANCH  12  14
ATOM     14  OXT UNL     1       7.491   6.791  17.897  0.00  0.00    +0.000 OA
ATOM     15  HXT UNL     1       7.325   7.266  17.065  0.00  0.00    +0.000 HD
ENDBRANCH  12  14
ENDBRANCH   7  12
BRANCH   8  16
ATOM     16  C   UNL     1       4.572   3.886  16.959  0.00  0.00    +0.000 C 
BRANCH  16  17
ATOM     17  C   UNL     1       3.940   4.933  17.871  0.00  0.00    +0.000 C 
BRANCH  17  18
ATOM     18  C   UNL     1       4.026   4.536  19.321  0.00  0.00    +0.000 C 
ATOM     19  O   UNL     1       3.260   4.907  20.197  0.00  0.00    +0.000 OA
BRANCH  18  20
ATOM     20  O   UNL     1       5.039   3.670  19.557  0.00  0.00    +0.000 OA
ATOM     21  H   UNL     1       5.159   2.996  18.860  0.00  0.00    +0.000 HD
ENDBRANCH  18  20
ENDBRANCH  17  18
ENDBRANCH  16  17
ENDBRANCH   8  16
TORSDOF 6
ENDMDL
MODEL 9
REMARK VINA RESULT:      -6.9      1.238      1.401
REMARK  Name = 
REMARK  7 active torsions:
REMARK  status: ('A' for Active; 'I' for Inactive)
REMARK    1  A    between atoms: C_1  and  C_2
REMARK    2  A    between atoms: CA_7  and  C_8
REMARK    3  A    between atoms: C_8  and  OXT_10
REMARK    4  A    between atoms: C_11  and  C_12
REMARK    5  A    between atoms: C_12  and  C_13
REMARK    6  A    between atoms: C_13  and  C_14
REMARK    7  A    between atoms: C_14  and  O_16
REMARK                            x       y       z     vdW  Elec       q    Type
REMARK                         _______ _______ _______ _____ _____    ______ ____
ROOT
ATOM      1  C   UNL     1       0.638   2.173  18.662  0.00  0.00    +0.000 C 
ATOM      2  C   UNL     1       1.744   3.163  18.889  0.00  0.00    +0.000 A 
ATOM      3  C   UNL     1       1.742   4.023  19.984  0.00  0.00    +0.000 A 
ATOM      4  C   UNL     1       2.768   4.952  20.169  0.00  0.00    +0.000 A 
ATOM      5  C   UNL     1       3.792   5.003  19.213  0.00  0.00    +0.000 A 
ATOM      6  N   UNL     1       4.878   5.830  19.146  0.00  0.00    +0.000 N 
ATOM      7  CA  UNL     1       5.663   5.550  18.048  0.00  0.00    +0.000 A 
ATOM      8  C   UNL     1       5.038   4.511  17.348  0.00  0.00    +0.000 A 
ATOM      9  C   UNL     1       3.850   4.163  18.105  0.00  0.00    +0.000 A 
ATOM     10  C   UNL     1       2.801   3.223  17.964  0.00  0.00    +0.000 A 
ATOM     11  H   UNL     1       5.095   6.558  19.817  0.00  0.00    +0.000 HD
ENDROOT
BRANCH   7  12
ATOM     12  C   UNL     1       6.849   6.360  17.843  0.00  0.00    +0.000 C 
ATOM     13  O   UNL     1       7.864   6.265  18.513  0.00  0.00    +0.000 OA
BRANCH  12  14
ATOM     14  OXT UNL     1       6.766   7.186  16.778  0.00  0.00    +0.000 OA
ATOM     15  HXT UNL     1       5.950   7.713  16.763  0.00  0.00    +0.000 HD
ENDBRANCH  12  14
ENDBRANCH   7  12
BRANCH   8  16
ATOM     16  C   UNL     1       5.518   3.889  16.055  0.00  0.00    +0.000 C 
BRANCH  16  17
ATOM     17  C   UNL     1       5.464   4.770  14.810  0.00  0.00    +0.000 C 
BRANCH  17  18
ATOM     18  C   UNL     1       6.719   4.651  13.987  0.00  0.00    +0.000 C 
ATOM     19  O   UNL     1       6.846   3.944  12.999  0.00  0.00    +0.000 OA
BRANCH  18  20
ATOM     20  O   UNL     1       7.707   5.458  14.438  0.00  0.00    +0.000 OA
ATOM     21  H   UNL     1       8.163   5.124  15.236  0.00  0.00    +0.000 HD
ENDBRANCH  18  20
ENDBRANCH  17  18
ENDBRANCH  16  17
ENDBRANCH   8  16
TORSDOF 6
ENDMDL
