MODEL 1
REMARK VINA RESULT:      -8.1      0.000      0.000
REMARK  Name = 
REMARK  4 active torsions:
REMARK  status: ('A' for Active; 'I' for Inactive)
REMARK    1  A    between atoms: C_1  and  O_2
REMARK    2  A    between atoms: O_2  and  C_3
REMARK    3  A    between atoms: C_12  and  C_13
REMARK    4  A    between atoms: N_31  and  C_32
REMARK                            x       y       z     vdW  Elec       q    Type
REMARK                         _______ _______ _______ _____ _____    ______ ____
ROOT
ATOM      1  C   UNL     1      -4.841  15.802  23.800  0.00  0.00    +0.000 A 
ATOM      2  C   UNL     1      -4.982  16.800  24.767  0.00  0.00    +0.000 A 
ATOM      3  C   UNL     1      -3.855  17.417  25.307  0.00  0.00    +0.000 A 
ATOM      4  C   UNL     1      -2.584  17.039  24.883  0.00  0.00    +0.000 A 
ATOM      5  C   UNL     1      -2.421  16.036  23.916  0.00  0.00    +0.000 A 
ATOM      6  C   UNL     1      -3.554  15.391  23.392  0.00  0.00    +0.000 A 
ATOM      7  C   UNL     1      -3.410  14.313  22.347  0.00  0.00    +0.000 C 
ATOM      8  C   UNL     1      -1.997  13.724  22.230  0.00  0.00    +0.000 C 
ATOM      9  C   UNL     1      -1.926  12.834  20.983  0.00  0.00    +0.000 C 
ATOM     10  C   UNL     1      -0.517  12.266  20.826  0.00  0.00    +0.000 C 
ATOM     11  C   UNL     1       0.499  13.413  20.798  0.00  0.00    +0.000 C 
ATOM     12  N   UNL     1       0.434  14.257  22.006  0.00  0.00    +0.000 NA
ATOM     13  C   UNL     1       1.474  15.291  21.918  0.00  0.00    +0.000 C 
ATOM     14  C   UNL     1      -0.927  14.838  22.194  0.00  0.00    +0.000 C 
ATOM     15  C   UNL     1      -1.021  15.643  23.513  0.00  0.00    +0.000 C 
ENDROOT
BRANCH  10  16
ATOM     16  C   UNL     1      -0.365  11.483  19.525  0.00  0.00    +0.000 C 
ATOM     17  O   UNL     1      -0.496  12.044  18.436  0.00  0.00    +0.000 OA
ATOM     18  N   UNL     1       0.060  10.167  19.608  0.00  0.00    +0.000 N 
ATOM     19  C   UNL     1       0.507   9.476  18.395  0.00  0.00    +0.000 C 
ATOM     20  C   UNL     1       1.884   8.821  18.620  0.00  0.00    +0.000 C 
ATOM     21  N   UNL     1       1.855   7.957  19.809  0.00  0.00    +0.000 N 
ATOM     22  C   UNL     1       2.350   6.665  19.839  0.00  0.00    +0.000 A 
ATOM     23  C   UNL     1       3.516   6.292  18.963  0.00  0.00    +0.000 A 
ATOM     24  C   UNL     1       4.000   5.046  19.010  0.00  0.00    +0.000 A 
ATOM     25  C   UNL     1       3.383   4.107  19.855  0.00  0.00    +0.000 A 
ATOM     26  N   UNL     1       3.632   2.831  20.068  0.00  0.00    +0.000 NA
ATOM     27  C   UNL     1       2.672   2.428  20.962  0.00  0.00    +0.000 A 
ATOM     28  C   UNL     1       1.845   3.472  21.304  0.00  0.00    +0.000 A 
ATOM     29  N   UNL     1       2.312   4.553  20.607  0.00  0.00    +0.000 N 
ATOM     30  N   UNL     1       1.785   5.805  20.651  0.00  0.00    +0.000 NA
ATOM     31  C   UNL     1       1.364   8.610  21.036  0.00  0.00    +0.000 C 
ATOM     32  C   UNL     1       0.012   9.294  20.792  0.00  0.00    +0.000 C 
ENDBRANCH  10  16
BRANCH   1  34
ATOM     33  C   UNL     1      -7.125  15.862  23.169  0.00  0.00    +0.000 C 
ATOM     34  O   UNL     1      -5.901  15.141  23.233  0.00  0.00    +0.000 OA
ENDBRANCH   1  34
TORSDOF 2
ENDMDL
MODEL 2
REMARK VINA RESULT:      -7.9      3.121     11.296
REMARK  Name = 
REMARK  4 active torsions:
REMARK  status: ('A' for Active; 'I' for Inactive)
REMARK    1  A    between atoms: C_1  and  O_2
REMARK    2  A    between atoms: O_2  and  C_3
REMARK    3  A    between atoms: C_12  and  C_13
REMARK    4  A    between atoms: N_31  and  C_32
REMARK                            x       y       z     vdW  Elec       q    Type
REMARK                         _______ _______ _______ _____ _____    ______ ____
ROOT
ATOM      1  C   UNL     1       2.912   4.064  20.000  0.00  0.00    +0.000 A 
ATOM      2  C   UNL     1       3.557   3.349  18.988  0.00  0.00    +0.000 A 
ATOM      3  C   UNL     1       3.792   3.943  17.751  0.00  0.00    +0.000 A 
ATOM      4  C   UNL     1       3.384   5.254  17.519  0.00  0.00    +0.000 A 
ATOM      5  C   UNL     1       2.732   5.988  18.520  0.00  0.00    +0.000 A 
ATOM      6  C   UNL     1       2.466   5.381  19.759  0.00  0.00    +0.000 A 
ATOM      7  C   UNL     1       1.770   6.148  20.857  0.00  0.00    +0.000 C 
ATOM      8  C   UNL     1       1.046   7.417  20.387  0.00  0.00    +0.000 C 
ATOM      9  C   UNL     1       0.602   8.225  21.613  0.00  0.00    +0.000 C 
ATOM     10  C   UNL     1      -0.089   9.512  21.168  0.00  0.00    +0.000 C 
ATOM     11  C   UNL     1       0.841  10.300  20.239  0.00  0.00    +0.000 C 
ATOM     12  N   UNL     1       1.253   9.522  19.056  0.00  0.00    +0.000 NA
ATOM     13  C   UNL     1       2.092  10.370  18.200  0.00  0.00    +0.000 C 
ATOM     14  C   UNL     1       1.939   8.257  19.446  0.00  0.00    +0.000 C 
ATOM     15  C   UNL     1       2.283   7.395  18.208  0.00  0.00    +0.000 C 
ENDROOT
BRANCH  10  16
ATOM     16  C   UNL     1      -0.428  10.411  22.354  0.00  0.00    +0.000 C 
ATOM     17  O   UNL     1       0.091  10.217  23.455  0.00  0.00    +0.000 OA
ATOM     18  N   UNL     1      -1.219  11.523  22.118  0.00  0.00    +0.000 N 
ATOM     19  C   UNL     1      -1.320  12.566  23.143  0.00  0.00    +0.000 C 
ATOM     20  C   UNL     1      -1.040  13.953  22.534  0.00  0.00    +0.000 C 
ATOM     21  N   UNL     1      -1.907  14.190  21.371  0.00  0.00    +0.000 N 
ATOM     22  C   UNL     1      -2.630  15.353  21.168  0.00  0.00    +0.000 A 
ATOM     23  C   UNL     1      -2.097  16.662  21.684  0.00  0.00    +0.000 A 
ATOM     24  C   UNL     1      -2.793  17.784  21.469  0.00  0.00    +0.000 A 
ATOM     25  C   UNL     1      -4.024  17.703  20.793  0.00  0.00    +0.000 A 
ATOM     26  N   UNL     1      -4.908  18.629  20.481  0.00  0.00    +0.000 NA
ATOM     27  C   UNL     1      -5.930  17.948  19.868  0.00  0.00    +0.000 A 
ATOM     28  C   UNL     1      -5.655  16.603  19.795  0.00  0.00    +0.000 A 
ATOM     29  N   UNL     1      -4.424  16.449  20.374  0.00  0.00    +0.000 N 
ATOM     30  N   UNL     1      -3.763  15.270  20.512  0.00  0.00    +0.000 NA
ATOM     31  C   UNL     1      -1.865  13.134  20.343  0.00  0.00    +0.000 C 
ATOM     32  C   UNL     1      -2.104  11.751  20.964  0.00  0.00    +0.000 C 
ENDBRANCH  10  16
BRANCH   1  34
ATOM     33  C   UNL     1       1.541   2.635  21.303  0.00  0.00    +0.000 C 
ATOM     34  O   UNL     1       2.634   3.543  21.238  0.00  0.00    +0.000 OA
ENDBRANCH   1  34
TORSDOF 2
ENDMDL
MODEL 3
REMARK VINA RESULT:      -7.6      1.167      1.236
REMARK  Name = 
REMARK  4 active torsions:
REMARK  status: ('A' for Active; 'I' for Inactive)
REMARK    1  A    between atoms: C_1  and  O_2
REMARK    2  A    between atoms: O_2  and  C_3
REMARK    3  A    between atoms: C_12  and  C_13
REMARK    4  A    between atoms: N_31  and  C_32
REMARK                            x       y       z     vdW  Elec       q    Type
REMARK                         _______ _______ _______ _____ _____    ______ ____
ROOT
ATOM      1  C   UNL     1      -3.787  14.906  23.955  0.00  0.00    +0.000 A 
ATOM      2  C   UNL     1      -3.998  15.797  25.010  0.00  0.00    +0.000 A 
ATOM      3  C   UNL     1      -2.928  16.506  25.552  0.00  0.00    +0.000 A 
ATOM      4  C   UNL     1      -1.645  16.327  25.043  0.00  0.00    +0.000 A 
ATOM      5  C   UNL     1      -1.412  15.435  23.987  0.00  0.00    +0.000 A 
ATOM      6  C   UNL     1      -2.484  14.695  23.458  0.00  0.00    +0.000 A 
ATOM      7  C   UNL     1      -2.264  13.731  22.319  0.00  0.00    +0.000 C 
ATOM      8  C   UNL     1      -0.798  13.337  22.091  0.00  0.00    +0.000 C 
ATOM      9  C   UNL     1      -0.684  12.566  20.770  0.00  0.00    +0.000 C 
ATOM     10  C   UNL     1       0.773  12.197  20.504  0.00  0.00    +0.000 C 
ATOM     11  C   UNL     1       1.638  13.462  20.533  0.00  0.00    +0.000 C 
ATOM     12  N   UNL     1       1.534  14.190  21.810  0.00  0.00    +0.000 NA
ATOM     13  C   UNL     1       2.433  15.351  21.768  0.00  0.00    +0.000 C 
ATOM     14  C   UNL     1       0.125  14.577  22.106  0.00  0.00    +0.000 C 
ATOM     15  C   UNL     1       0.002  15.255  23.492  0.00  0.00    +0.000 C 
ENDROOT
BRANCH  10  16
ATOM     16  C   UNL     1       0.951  11.546  19.135  0.00  0.00    +0.000 C 
ATOM     17  O   UNL     1       1.112  12.237  18.129  0.00  0.00    +0.000 OA
ATOM     18  N   UNL     1       1.065  10.166  19.085  0.00  0.00    +0.000 N 
ATOM     19  C   UNL     1       1.533   9.526  17.852  0.00  0.00    +0.000 C 
ATOM     20  C   UNL     1       2.685   8.548  18.153  0.00  0.00    +0.000 C 
ATOM     21  N   UNL     1       2.289   7.590  19.195  0.00  0.00    +0.000 N 
ATOM     22  C   UNL     1       2.484   6.223  19.104  0.00  0.00    +0.000 A 
ATOM     23  C   UNL     1       3.662   5.686  18.337  0.00  0.00    +0.000 A 
ATOM     24  C   UNL     1       3.853   4.364  18.269  0.00  0.00    +0.000 A 
ATOM     25  C   UNL     1       2.926   3.509  18.889  0.00  0.00    +0.000 A 
ATOM     26  N   UNL     1       2.858   2.194  18.949  0.00  0.00    +0.000 NA
ATOM     27  C   UNL     1       1.708   1.932  19.651  0.00  0.00    +0.000 A 
ATOM     28  C   UNL     1       1.083   3.096  20.030  0.00  0.00    +0.000 A 
ATOM     29  N   UNL     1       1.874   4.107  19.556  0.00  0.00    +0.000 N 
ATOM     30  N   UNL     1       1.628   5.435  19.710  0.00  0.00    +0.000 NA
ATOM     31  C   UNL     1       1.767   8.202  20.431  0.00  0.00    +0.000 C 
ATOM     32  C   UNL     1       0.648   9.205  20.119  0.00  0.00    +0.000 C 
ENDBRANCH  10  16
BRANCH   1  34
ATOM     33  C   UNL     1      -6.081  14.754  23.374  0.00  0.00    +0.000 C 
ATOM     34  O   UNL     1      -4.787  14.164  23.379  0.00  0.00    +0.000 OA
ENDBRANCH   1  34
TORSDOF 2
ENDMDL
MODEL 4
REMARK VINA RESULT:      -7.6      1.052      1.249
REMARK  Name = 
REMARK  4 active torsions:
REMARK  status: ('A' for Active; 'I' for Inactive)
REMARK    1  A    between atoms: C_1  and  O_2
REMARK    2  A    between atoms: O_2  and  C_3
REMARK    3  A    between atoms: C_12  and  C_13
REMARK    4  A    between atoms: N_31  and  C_32
REMARK                            x       y       z     vdW  Elec       q    Type
REMARK                         _______ _______ _______ _____ _____    ______ ____
ROOT
ATOM      1  C   UNL     1      -5.995  14.475  23.120  0.00  0.00    +0.000 A 
ATOM      2  C   UNL     1      -6.438  15.465  24.001  0.00  0.00    +0.000 A 
ATOM      3  C   UNL     1      -5.583  16.496  24.383  0.00  0.00    +0.000 A 
ATOM      4  C   UNL     1      -4.283  16.543  23.887  0.00  0.00    +0.000 A 
ATOM      5  C   UNL     1      -3.818  15.557  23.005  0.00  0.00    +0.000 A 
ATOM      6  C   UNL     1      -4.668  14.499  22.642  0.00  0.00    +0.000 A 
ATOM      7  C   UNL     1      -4.197  13.426  21.691  0.00  0.00    +0.000 C 
ATOM      8  C   UNL     1      -2.674  13.362  21.506  0.00  0.00    +0.000 C 
ATOM      9  C   UNL     1      -2.348  12.416  20.344  0.00  0.00    +0.000 C 
ATOM     10  C   UNL     1      -0.839  12.366  20.118  0.00  0.00    +0.000 C 
ATOM     11  C   UNL     1      -0.305  13.786  19.899  0.00  0.00    +0.000 C 
ATOM     12  N   UNL     1      -0.610  14.686  21.025  0.00  0.00    +0.000 NA
ATOM     13  C   UNL     1      -0.016  16.002  20.755  0.00  0.00    +0.000 C 
ATOM     14  C   UNL     1      -2.078  14.769  21.277  0.00  0.00    +0.000 C 
ATOM     15  C   UNL     1      -2.391  15.637  22.520  0.00  0.00    +0.000 C 
ENDROOT
BRANCH  10  16
ATOM     16  C   UNL     1      -0.479  11.541  18.886  0.00  0.00    +0.000 C 
ATOM     17  O   UNL     1      -0.462  12.059  17.768  0.00  0.00    +0.000 OA
ATOM     18  N   UNL     1      -0.040  10.242  19.083  0.00  0.00    +0.000 N 
ATOM     19  C   UNL     1       0.597   9.521  17.977  0.00  0.00    +0.000 C 
ATOM     20  C   UNL     1       1.941   8.916  18.426  0.00  0.00    +0.000 C 
ATOM     21  N   UNL     1       1.758   8.094  19.632  0.00  0.00    +0.000 N 
ATOM     22  C   UNL     1       2.274   6.819  19.785  0.00  0.00    +0.000 A 
ATOM     23  C   UNL     1       3.564   6.449  19.105  0.00  0.00    +0.000 A 
ATOM     24  C   UNL     1       4.065   5.220  19.272  0.00  0.00    +0.000 A 
ATOM     25  C   UNL     1       3.352   4.295  20.054  0.00  0.00    +0.000 A 
ATOM     26  N   UNL     1       3.597   3.035  20.352  0.00  0.00    +0.000 NA
ATOM     27  C   UNL     1       2.526   2.637  21.112  0.00  0.00    +0.000 A 
ATOM     28  C   UNL     1       1.633   3.668  21.287  0.00  0.00    +0.000 A 
ATOM     29  N   UNL     1       2.172   4.736  20.623  0.00  0.00    +0.000 N 
ATOM     30  N   UNL     1       1.615   5.972  20.540  0.00  0.00    +0.000 NA
ATOM     31  C   UNL     1       1.076   8.776  20.747  0.00  0.00    +0.000 C 
ATOM     32  C   UNL     1      -0.241   9.411  20.281  0.00  0.00    +0.000 C 
ENDBRANCH  10  16
BRANCH   1  34
ATOM     33  C   UNL     1      -7.891  13.753  21.895  0.00  0.00    +0.000 C 
ATOM     34  O   UNL     1      -6.773  13.423  22.709  0.00  0.00    +0.000 OA
ENDBRANCH   1  34
TORSDOF 2
ENDMDL
MODEL 5
REMARK VINA RESULT:      -7.6      3.214      4.977
REMARK  Name = 
REMARK  4 active torsions:
REMARK  status: ('A' for Active; 'I' for Inactive)
REMARK    1  A    between atoms: C_1  and  O_2
REMARK    2  A    between atoms: O_2  and  C_3
REMARK    3  A    between atoms: C_12  and  C_13
REMARK    4  A    between atoms: N_31  and  C_32
REMARK                            x       y       z     vdW  Elec       q    Type
REMARK                         _______ _______ _______ _____ _____    ______ ____
ROOT
ATOM      1  C   UNL     1      -6.832  13.894  19.645  0.00  0.00    +0.000 A 
ATOM      2  C   UNL     1      -7.905  14.221  18.813  0.00  0.00    +0.000 A 
ATOM      3  C   UNL     1      -7.916  13.798  17.486  0.00  0.00    +0.000 A 
ATOM      4  C   UNL     1      -6.857  13.046  16.985  0.00  0.00    +0.000 A 
ATOM      5  C   UNL     1      -5.769  12.709  17.804  0.00  0.00    +0.000 A 
ATOM      6  C   UNL     1      -5.740  13.161  19.134  0.00  0.00    +0.000 A 
ATOM      7  C   UNL     1      -4.585  12.811  20.039  0.00  0.00    +0.000 C 
ATOM      8  C   UNL     1      -3.329  12.317  19.308  0.00  0.00    +0.000 C 
ATOM      9  C   UNL     1      -2.333  11.764  20.335  0.00  0.00    +0.000 C 
ATOM     10  C   UNL     1      -1.090  11.233  19.625  0.00  0.00    +0.000 C 
ATOM     11  C   UNL     1      -1.502  10.194  18.576  0.00  0.00    +0.000 C 
ATOM     12  N   UNL     1      -2.449  10.736  17.584  0.00  0.00    +0.000 NA
ATOM     13  C   UNL     1      -2.744   9.694  16.592  0.00  0.00    +0.000 C 
ATOM     14  C   UNL     1      -3.683  11.262  18.236  0.00  0.00    +0.000 C 
ATOM     15  C   UNL     1      -4.632  11.918  17.204  0.00  0.00    +0.000 C 
ENDROOT
BRANCH  10  16
ATOM     16  C   UNL     1      -0.131  10.552  20.598  0.00  0.00    +0.000 C 
ATOM     17  O   UNL     1      -0.337  10.592  21.812  0.00  0.00    +0.000 OA
ATOM     18  N   UNL     1       0.887   9.777  20.067  0.00  0.00    +0.000 N 
ATOM     19  C   UNL     1       1.636   8.873  20.944  0.00  0.00    +0.000 C 
ATOM     20  C   UNL     1       1.684   7.454  20.346  0.00  0.00    +0.000 C 
ATOM     21  N   UNL     1       2.197   7.492  18.968  0.00  0.00    +0.000 N 
ATOM     22  C   UNL     1       3.182   6.648  18.486  0.00  0.00    +0.000 A 
ATOM     23  C   UNL     1       3.308   5.254  19.040  0.00  0.00    +0.000 A 
ATOM     24  C   UNL     1       4.251   4.439  18.556  0.00  0.00    +0.000 A 
ATOM     25  C   UNL     1       5.122   4.919  17.563  0.00  0.00    +0.000 A 
ATOM     26  N   UNL     1       6.138   4.349  16.946  0.00  0.00    +0.000 NA
ATOM     27  C   UNL     1       6.636   5.320  16.113  0.00  0.00    +0.000 A 
ATOM     28  C   UNL     1       5.907   6.481  16.217  0.00  0.00    +0.000 A 
ATOM     29  N   UNL     1       4.926   6.218  17.134  0.00  0.00    +0.000 N 
ATOM     30  N   UNL     1       3.972   7.096  17.540  0.00  0.00    +0.000 NA
ATOM     31  C   UNL     1       1.496   8.430  18.073  0.00  0.00    +0.000 C 
ATOM     32  C   UNL     1       1.417   9.830  18.695  0.00  0.00    +0.000 C 
ENDBRANCH  10  16
BRANCH   1  34
ATOM     33  C   UNL     1      -6.043  15.499  21.201  0.00  0.00    +0.000 C 
ATOM     34  O   UNL     1      -6.743  14.285  20.957  0.00  0.00    +0.000 OA
ENDBRANCH   1  34
TORSDOF 2
ENDMDL
MODEL 6
REMARK VINA RESULT:      -7.5      3.412      5.409
REMARK  Name = 
REMARK  4 active torsions:
REMARK  status: ('A' for Active; 'I' for Inactive)
REMARK    1  A    between atoms: C_1  and  O_2
REMARK    2  A    between atoms: O_2  and  C_3
REMARK    3  A    between atoms: C_12  and  C_13
REMARK    4  A    between atoms: N_31  and  C_32
REMARK                            x       y       z     vdW  Elec       q    Type
REMARK                         _______ _______ _______ _____ _____    ______ ____
ROOT
ATOM      1  C   UNL     1       1.887  16.268  18.453  0.00  0.00    +0.000 A 
ATOM      2  C   UNL     1       1.425  17.551  18.152  0.00  0.00    +0.000 A 
ATOM      3  C   UNL     1       0.093  17.889  18.382  0.00  0.00    +0.000 A 
ATOM      4  C   UNL     1      -0.782  16.945  18.914  0.00  0.00    +0.000 A 
ATOM      5  C   UNL     1      -0.339  15.650  19.220  0.00  0.00    +0.000 A 
ATOM      6  C   UNL     1       0.996  15.298  18.960  0.00  0.00    +0.000 A 
ATOM      7  C   UNL     1       1.502  13.914  19.283  0.00  0.00    +0.000 C 
ATOM      8  C   UNL     1       0.400  12.868  19.503  0.00  0.00    +0.000 C 
ATOM      9  C   UNL     1       1.029  11.586  20.063  0.00  0.00    +0.000 C 
ATOM     10  C   UNL     1      -0.055  10.543  20.325  0.00  0.00    +0.000 C 
ATOM     11  C   UNL     1      -1.125  11.135  21.249  0.00  0.00    +0.000 C 
ATOM     12  N   UNL     1      -1.734  12.359  20.699  0.00  0.00    +0.000 NA
ATOM     13  C   UNL     1      -2.780  12.823  21.620  0.00  0.00    +0.000 C 
ATOM     14  C   UNL     1      -0.709  13.409  20.434  0.00  0.00    +0.000 C 
ATOM     15  C   UNL     1      -1.336  14.657  19.766  0.00  0.00    +0.000 C 
ENDROOT
BRANCH  10  16
ATOM     16  C   UNL     1       0.509   9.300  21.007  0.00  0.00    +0.000 C 
ATOM     17  O   UNL     1       0.060   8.921  22.090  0.00  0.00    +0.000 OA
ATOM     18  N   UNL     1       1.434   8.542  20.308  0.00  0.00    +0.000 N 
ATOM     19  C   UNL     1       1.772   7.198  20.786  0.00  0.00    +0.000 C 
ATOM     20  C   UNL     1       1.650   6.170  19.644  0.00  0.00    +0.000 C 
ATOM     21  N   UNL     1       2.444   6.595  18.481  0.00  0.00    +0.000 N 
ATOM     22  C   UNL     1       3.312   5.767  17.791  0.00  0.00    +0.000 A 
ATOM     23  C   UNL     1       3.022   4.292  17.702  0.00  0.00    +0.000 A 
ATOM     24  C   UNL     1       3.856   3.501  17.019  0.00  0.00    +0.000 A 
ATOM     25  C   UNL     1       5.001   4.065  16.429  0.00  0.00    +0.000 A 
ATOM     26  N   UNL     1       5.984   3.521  15.740  0.00  0.00    +0.000 NA
ATOM     27  C   UNL     1       6.840   4.558  15.466  0.00  0.00    +0.000 A 
ATOM     28  C   UNL     1       6.364   5.741  15.980  0.00  0.00    +0.000 A 
ATOM     29  N   UNL     1       5.176   5.427  16.583  0.00  0.00    +0.000 N 
ATOM     30  N   UNL     1       4.361   6.307  17.222  0.00  0.00    +0.000 NA
ATOM     31  C   UNL     1       2.162   7.962  18.007  0.00  0.00    +0.000 C 
ATOM     32  C   UNL     1       2.245   8.973  19.158  0.00  0.00    +0.000 C 
ENDBRANCH  10  16
BRANCH   1  34
ATOM     33  C   UNL     1       4.192  16.644  18.858  0.00  0.00    +0.000 C 
ATOM     34  O   UNL     1       3.179  15.858  18.242  0.00  0.00    +0.000 OA
ENDBRANCH   1  34
TORSDOF 2
ENDMDL
MODEL 7
REMARK VINA RESULT:      -7.3      4.559     12.544
REMARK  Name = 
REMARK  4 active torsions:
REMARK  status: ('A' for Active; 'I' for Inactive)
REMARK    1  A    between atoms: C_1  and  O_2
REMARK    2  A    between atoms: O_2  and  C_3
REMARK    3  A    between atoms: C_12  and  C_13
REMARK    4  A    between atoms: N_31  and  C_32
REMARK                            x       y       z     vdW  Elec       q    Type
REMARK                         _______ _______ _______ _____ _____    ______ ____
ROOT
ATOM      1  C   UNL     1       5.548   3.696  12.665  0.00  0.00    +0.000 A 
ATOM      2  C   UNL     1       6.581   3.601  11.730  0.00  0.00    +0.000 A 
ATOM      3  C   UNL     1       7.845   4.104  12.029  0.00  0.00    +0.000 A 
ATOM      4  C   UNL     1       8.082   4.703  13.263  0.00  0.00    +0.000 A 
ATOM      5  C   UNL     1       7.058   4.811  14.214  0.00  0.00    +0.000 A 
ATOM      6  C   UNL     1       5.774   4.333  13.904  0.00  0.00    +0.000 A 
ATOM      7  C   UNL     1       4.653   4.432  14.909  0.00  0.00    +0.000 C 
ATOM      8  C   UNL     1       4.911   5.419  16.056  0.00  0.00    +0.000 C 
ATOM      9  C   UNL     1       3.826   5.241  17.126  0.00  0.00    +0.000 C 
ATOM     10  C   UNL     1       4.085   6.189  18.295  0.00  0.00    +0.000 C 
ATOM     11  C   UNL     1       5.500   5.961  18.838  0.00  0.00    +0.000 C 
ATOM     12  N   UNL     1       6.539   6.146  17.808  0.00  0.00    +0.000 NA
ATOM     13  C   UNL     1       7.858   5.963  18.427  0.00  0.00    +0.000 C 
ATOM     14  C   UNL     1       6.327   5.233  16.648  0.00  0.00    +0.000 C 
ATOM     15  C   UNL     1       7.360   5.496  15.525  0.00  0.00    +0.000 C 
ENDROOT
BRANCH  10  16
ATOM     16  C   UNL     1       3.106   5.952  19.442  0.00  0.00    +0.000 C 
ATOM     17  O   UNL     1       3.269   5.011  20.220  0.00  0.00    +0.000 OA
ATOM     18  N   UNL     1       2.122   6.902  19.659  0.00  0.00    +0.000 N 
ATOM     19  C   UNL     1       1.360   6.877  20.911  0.00  0.00    +0.000 C 
ATOM     20  C   UNL     1       1.360   8.269  21.573  0.00  0.00    +0.000 C 
ATOM     21  N   UNL     1       0.895   9.291  20.624  0.00  0.00    +0.000 N 
ATOM     22  C   UNL     1      -0.056  10.251  20.926  0.00  0.00    +0.000 A 
ATOM     23  C   UNL     1      -0.174  10.768  22.334  0.00  0.00    +0.000 A 
ATOM     24  C   UNL     1      -1.084  11.708  22.614  0.00  0.00    +0.000 A 
ATOM     25  C   UNL     1      -1.929  12.164  21.587  0.00  0.00    +0.000 A 
ATOM     26  N   UNL     1      -2.912  13.042  21.594  0.00  0.00    +0.000 NA
ATOM     27  C   UNL     1      -3.398  13.038  20.311  0.00  0.00    +0.000 A 
ATOM     28  C   UNL     1      -2.696  12.160  19.519  0.00  0.00    +0.000 A 
ATOM     29  N   UNL     1      -1.743  11.613  20.334  0.00  0.00    +0.000 N 
ATOM     30  N   UNL     1      -0.821  10.690  19.955  0.00  0.00    +0.000 NA
ATOM     31  C   UNL     1       1.609   9.310  19.335  0.00  0.00    +0.000 C 
ATOM     32  C   UNL     1       1.639   7.912  18.702  0.00  0.00    +0.000 C 
ENDBRANCH  10  16
BRANCH   1  34
ATOM     33  C   UNL     1       3.854   3.207  11.080  0.00  0.00    +0.000 C 
ATOM     34  O   UNL     1       4.275   3.238  12.438  0.00  0.00    +0.000 OA
ENDBRANCH   1  34
TORSDOF 2
ENDMDL
MODEL 8
REMARK VINA RESULT:      -7.2      2.946      4.662
REMARK  Name = 
REMARK  4 active torsions:
REMARK  status: ('A' for Active; 'I' for Inactive)
REMARK    1  A    between atoms: C_1  and  O_2
REMARK    2  A    between atoms: O_2  and  C_3
REMARK    3  A    between atoms: C_12  and  C_13
REMARK    4  A    between atoms: N_31  and  C_32
REMARK                            x       y       z     vdW  Elec       q    Type
REMARK                         _______ _______ _______ _____ _____    ______ ____
ROOT
ATOM      1  C   UNL     1      -0.263  17.181  18.349  0.00  0.00    +0.000 A 
ATOM      2  C   UNL     1      -0.939  18.353  18.001  0.00  0.00    +0.000 A 
ATOM      3  C   UNL     1      -2.188  18.631  18.550  0.00  0.00    +0.000 A 
ATOM      4  C   UNL     1      -2.768  17.739  19.447  0.00  0.00    +0.000 A 
ATOM      5  C   UNL     1      -2.108  16.554  19.806  0.00  0.00    +0.000 A 
ATOM      6  C   UNL     1      -0.862  16.257  19.231  0.00  0.00    +0.000 A 
ATOM      7  C   UNL     1      -0.126  14.993  19.602  0.00  0.00    +0.000 C 
ATOM      8  C   UNL     1      -0.995  13.928  20.286  0.00  0.00    +0.000 C 
ATOM      9  C   UNL     1      -0.090  12.815  20.829  0.00  0.00    +0.000 C 
ATOM     10  C   UNL     1      -0.931  11.762  21.548  0.00  0.00    +0.000 C 
ATOM     11  C   UNL     1      -1.772  12.432  22.639  0.00  0.00    +0.000 C 
ATOM     12  N   UNL     1      -2.649  13.492  22.107  0.00  0.00    +0.000 NA
ATOM     13  C   UNL     1      -3.454  14.037  23.208  0.00  0.00    +0.000 C 
ATOM     14  C   UNL     1      -1.866  14.547  21.402  0.00  0.00    +0.000 C 
ATOM     15  C   UNL     1      -2.794  15.607  20.760  0.00  0.00    +0.000 C 
ENDROOT
BRANCH  10  16
ATOM     16  C   UNL     1      -0.059  10.705  22.220  0.00  0.00    +0.000 C 
ATOM     17  O   UNL     1      -0.199  10.445  23.416  0.00  0.00    +0.000 OA
ATOM     18  N   UNL     1       0.786   9.957  21.417  0.00  0.00    +0.000 N 
ATOM     19  C   UNL     1       1.409   8.745  21.958  0.00  0.00    +0.000 C 
ATOM     20  C   UNL     1       1.185   7.551  21.010  0.00  0.00    +0.000 C 
ATOM     21  N   UNL     1       1.634   7.882  19.649  0.00  0.00    +0.000 N 
ATOM     22  C   UNL     1       2.436   7.060  18.877  0.00  0.00    +0.000 A 
ATOM     23  C   UNL     1       2.346   5.566  19.037  0.00  0.00    +0.000 A 
ATOM     24  C   UNL     1       3.112   4.778  18.275  0.00  0.00    +0.000 A 
ATOM     25  C   UNL     1       4.007   5.370  17.366  0.00  0.00    +0.000 A 
ATOM     26  N   UNL     1       4.880   4.841  16.533  0.00  0.00    +0.000 NA
ATOM     27  C   UNL     1       5.498   5.913  15.941  0.00  0.00    +0.000 A 
ATOM     28  C   UNL     1       4.985   7.100  16.408  0.00  0.00    +0.000 A 
ATOM     29  N   UNL     1       4.016   6.751  17.309  0.00  0.00    +0.000 N 
ATOM     30  N   UNL     1       3.247   7.622  18.013  0.00  0.00    +0.000 NA
ATOM     31  C   UNL     1       1.063   9.123  19.095  0.00  0.00    +0.000 C 
ATOM     32  C   UNL     1       1.254  10.298  20.063  0.00  0.00    +0.000 C 
ENDBRANCH  10  16
BRANCH   1  34
ATOM     33  C   UNL     1       2.084  17.511  18.394  0.00  0.00    +0.000 C 
ATOM     34  O   UNL     1       0.963  16.833  17.840  0.00  0.00    +0.000 OA
ENDBRANCH   1  34
TORSDOF 2
ENDMDL
MODEL 9
REMARK VINA RESULT:      -6.6      6.039     10.405
REMARK  Name = 
REMARK  4 active torsions:
REMARK  status: ('A' for Active; 'I' for Inactive)
REMARK    1  A    between atoms: C_1  and  O_2
REMARK    2  A    between atoms: O_2  and  C_3
REMARK    3  A    between atoms: C_12  and  C_13
REMARK    4  A    between atoms: N_31  and  C_32
REMARK                            x       y       z     vdW  Elec       q    Type
REMARK                         _______ _______ _______ _____ _____    ______ ____
ROOT
ATOM      1  C   UNL     1      10.005  15.804  17.643  0.00  0.00    +0.000 A 
ATOM      2  C   UNL     1      10.925  16.762  17.210  0.00  0.00    +0.000 A 
ATOM      3  C   UNL     1      10.684  18.116  17.434  0.00  0.00    +0.000 A 
ATOM      4  C   UNL     1       9.525  18.517  18.092  0.00  0.00    +0.000 A 
ATOM      5  C   UNL     1       8.588  17.571  18.532  0.00  0.00    +0.000 A 
ATOM      6  C   UNL     1       8.813  16.208  18.280  0.00  0.00    +0.000 A 
ATOM      7  C   UNL     1       7.824  15.167  18.745  0.00  0.00    +0.000 C 
ATOM      8  C   UNL     1       6.440  15.721  19.112  0.00  0.00    +0.000 C 
ATOM      9  C   UNL     1       5.623  14.619  19.797  0.00  0.00    +0.000 C 
ATOM     10  C   UNL     1       4.255  15.161  20.205  0.00  0.00    +0.000 C 
ATOM     11  C   UNL     1       4.434  16.403  21.083  0.00  0.00    +0.000 C 
ATOM     12  N   UNL     1       5.209  17.464  20.413  0.00  0.00    +0.000 NA
ATOM     13  C   UNL     1       5.283  18.630  21.302  0.00  0.00    +0.000 C 
ATOM     14  C   UNL     1       6.558  16.979  20.003  0.00  0.00    +0.000 C 
ATOM     15  C   UNL     1       7.333  18.061  19.213  0.00  0.00    +0.000 C 
ENDROOT
BRANCH  10  16
ATOM     16  C   UNL     1       3.459  14.136  21.010  0.00  0.00    +0.000 C 
ATOM     17  O   UNL     1       3.703  13.951  22.203  0.00  0.00    +0.000 OA
ATOM     18  N   UNL     1       2.373  13.534  20.396  0.00  0.00    +0.000 N 
ATOM     19  C   UNL     1       1.411  12.784  21.208  0.00  0.00    +0.000 C 
ATOM     20  C   UNL     1      -0.028  13.248  20.910  0.00  0.00    +0.000 C 
ATOM     21  N   UNL     1      -0.303  13.181  19.467  0.00  0.00    +0.000 N 
ATOM     22  C   UNL     1      -1.440  12.611  18.922  0.00  0.00    +0.000 A 
ATOM     23  C   UNL     1      -2.735  12.649  19.687  0.00  0.00    +0.000 A 
ATOM     24  C   UNL     1      -3.833  12.111  19.145  0.00  0.00    +0.000 A 
ATOM     25  C   UNL     1      -3.739  11.495  17.886  0.00  0.00    +0.000 A 
ATOM     26  N   UNL     1      -4.639  10.873  17.151  0.00  0.00    +0.000 NA
ATOM     27  C   UNL     1      -3.954  10.441  16.043  0.00  0.00    +0.000 A 
ATOM     28  C   UNL     1      -2.633  10.815  16.102  0.00  0.00    +0.000 A 
ATOM     29  N   UNL     1      -2.499  11.506  17.276  0.00  0.00    +0.000 N 
ATOM     30  N   UNL     1      -1.348  12.063  17.734  0.00  0.00    +0.000 NA
ATOM     31  C   UNL     1       0.676  13.885  18.618  0.00  0.00    +0.000 C 
ATOM     32  C   UNL     1       2.109  13.446  18.950  0.00  0.00    +0.000 C 
ENDBRANCH  10  16
BRANCH   1  34
ATOM     33  C   UNL     1      11.378  13.893  17.934  0.00  0.00    +0.000 C 
ATOM     34  O   UNL     1      10.166  14.456  17.447  0.00  0.00    +0.000 OA
ENDBRANCH   1  34
TORSDOF 2
ENDMDL
