MODEL 1
REMARK VINA RESULT:      -8.1      0.000      0.000
REMARK  Name = 
REMARK  7 active torsions:
REMARK  status: ('A' for Active; 'I' for Inactive)
REMARK    1  A    between atoms: C_2  and  C_3
REMARK    2  A    between atoms: N_5  and  C_6
REMARK    3  A    between atoms: C_10  and  C_12
REMARK    4  A    between atoms: C_15  and  N_16
REMARK    5  A    between atoms: C_17  and  O_19
REMARK    6  A    between atoms: O_19  and  C_20
REMARK    7  A    between atoms: C_20  and  C_21
REMARK                            x       y       z     vdW  Elec       q    Type
REMARK                         _______ _______ _______ _____ _____    ______ ____
ROOT
ATOM      1  C   UNL     1       2.173   7.259  19.666  0.00  0.00    +0.000 A 
ATOM      2  C   UNL     1       2.046   8.113  18.578  0.00  0.00    +0.000 A 
ATOM      3  C   UNL     1       1.435   9.354  18.717  0.00  0.00    +0.000 A 
ATOM      4  C   UNL     1       0.800   9.724  19.901  0.00  0.00    +0.000 A 
ATOM      5  C   UNL     1       0.843   8.831  20.980  0.00  0.00    +0.000 A 
ATOM      6  C   UNL     1       1.534   7.609  20.866  0.00  0.00    +0.000 A 
ENDROOT
BRANCH   1  11
ATOM      7  C   UNL     1       6.078   5.280  16.959  0.00  0.00    +0.000 C 
ATOM      8  C   UNL     1       5.685   4.425  18.169  0.00  0.00    +0.000 C 
ATOM      9  C   UNL     1       4.173   4.277  18.304  0.00  0.00    +0.000 C 
ATOM     10  N   UNL     1       3.541   5.590  18.363  0.00  0.00    +0.000 N 
ATOM     11  C   UNL     1       2.907   5.967  19.558  0.00  0.00    +0.000 C 
ATOM     12  O   UNL     1       2.926   5.256  20.564  0.00  0.00    +0.000 OA
ATOM     13  C   UNL     1       3.803   6.422  17.182  0.00  0.00    +0.000 C 
ATOM     14  C   UNL     1       5.294   6.593  16.919  0.00  0.00    +0.000 C 
BRANCH   7  17
ATOM     15  C   UNL     1       6.811   4.727  14.654  0.00  0.00    +0.000 C 
ATOM     16  O   UNL     1       7.655   5.611  14.598  0.00  0.00    +0.000 OA
ATOM     17  N   UNL     1       5.962   4.520  15.720  0.00  0.00    +0.000 N 
ATOM     18  H   UNL     1       5.266   3.789  15.658  0.00  0.00    +0.000 HD
BRANCH  15  20
ATOM     19  C   UNL     1       5.507   3.767  12.804  0.00  0.00    +0.000 C 
ATOM     20  C   UNL     1       6.601   3.732  13.570  0.00  0.00    +0.000 C 
ENDBRANCH  15  20
ENDBRANCH   7  17
ENDBRANCH   1  11
BRANCH   4  21
ATOM     21  N   UNL     1       0.114  10.951  20.031  0.00  0.00    +0.000 N 
ATOM     22  C   UNL     1       0.575  12.064  20.695  0.00  0.00    +0.000 C 
ATOM     23  O   UNL     1       1.669  12.206  21.224  0.00  0.00    +0.000 OA
ATOM     24  H   UNL     1      -0.819  11.032  19.649  0.00  0.00    +0.000 HD
BRANCH  22  25
ATOM     25  O   UNL     1      -0.397  13.012  20.759  0.00  0.00    +0.000 OA
BRANCH  25  26
ATOM     26  C   UNL     1      -1.687  12.527  20.347  0.00  0.00    +0.000 C 
BRANCH  26  27
ATOM     27  C   UNL     1      -2.755  12.596  21.412  0.00  0.00    +0.000 A 
ATOM     28  C   UNL     1      -2.429  12.289  22.743  0.00  0.00    +0.000 A 
ATOM     29  C   UNL     1      -3.372  12.429  23.761  0.00  0.00    +0.000 A 
ATOM     30  C   UNL     1      -4.656  12.882  23.465  0.00  0.00    +0.000 A 
ATOM     31  C   UNL     1      -4.990  13.205  22.151  0.00  0.00    +0.000 A 
ATOM     32  C   UNL     1      -4.046  13.067  21.130  0.00  0.00    +0.000 A 
ENDBRANCH  26  27
ENDBRANCH  25  26
ENDBRANCH  22  25
ENDBRANCH   4  21
TORSDOF 7
ENDMDL
MODEL 2
REMARK VINA RESULT:      -8.1      2.940     10.487
REMARK  Name = 
REMARK  7 active torsions:
REMARK  status: ('A' for Active; 'I' for Inactive)
REMARK    1  A    between atoms: C_2  and  C_3
REMARK    2  A    between atoms: N_5  and  C_6
REMARK    3  A    between atoms: C_10  and  C_12
REMARK    4  A    between atoms: C_15  and  N_16
REMARK    5  A    between atoms: C_17  and  O_19
REMARK    6  A    between atoms: O_19  and  C_20
REMARK    7  A    between atoms: C_20  and  C_21
REMARK                            x       y       z     vdW  Elec       q    Type
REMARK                         _______ _______ _______ _____ _____    ______ ____
ROOT
ATOM      1  C   UNL     1       0.677   9.800  19.483  0.00  0.00    +0.000 A 
ATOM      2  C   UNL     1       1.457   9.378  18.413  0.00  0.00    +0.000 A 
ATOM      3  C   UNL     1       2.172   8.187  18.482  0.00  0.00    +0.000 A 
ATOM      4  C   UNL     1       2.253   7.456  19.666  0.00  0.00    +0.000 A 
ATOM      5  C   UNL     1       1.544   7.921  20.781  0.00  0.00    +0.000 A 
ATOM      6  C   UNL     1       0.752   9.082  20.686  0.00  0.00    +0.000 A 
ENDROOT
BRANCH   1  11
ATOM      7  C   UNL     1       1.319  14.864  18.816  0.00  0.00    +0.000 C 
ATOM      8  C   UNL     1      -0.134  14.407  18.636  0.00  0.00    +0.000 C 
ATOM      9  C   UNL     1      -0.569  13.424  19.717  0.00  0.00    +0.000 C 
ATOM     10  N   UNL     1       0.338  12.283  19.755  0.00  0.00    +0.000 N 
ATOM     11  C   UNL     1      -0.168  11.023  19.393  0.00  0.00    +0.000 C 
ATOM     12  O   UNL     1      -1.321  10.871  18.986  0.00  0.00    +0.000 OA
ATOM     13  C   UNL     1       1.734  12.650  20.023  0.00  0.00    +0.000 C 
ATOM     14  C   UNL     1       2.259  13.675  19.027  0.00  0.00    +0.000 C 
BRANCH   7  17
ATOM     15  C   UNL     1       2.126  17.035  19.705  0.00  0.00    +0.000 C 
ATOM     16  O   UNL     1       2.793  17.310  18.716  0.00  0.00    +0.000 OA
ATOM     17  N   UNL     1       1.427  15.859  19.876  0.00  0.00    +0.000 N 
ATOM     18  H   UNL     1       0.938  15.701  20.747  0.00  0.00    +0.000 HD
BRANCH  15  20
ATOM     19  C   UNL     1       0.863  17.927  21.616  0.00  0.00    +0.000 C 
ATOM     20  C   UNL     1       1.964  17.956  20.860  0.00  0.00    +0.000 C 
ENDBRANCH  15  20
ENDBRANCH   7  17
ENDBRANCH   1  11
BRANCH   4  21
ATOM     21  N   UNL     1       3.035   6.284  19.769  0.00  0.00    +0.000 N 
ATOM     22  C   UNL     1       2.671   5.033  19.326  0.00  0.00    +0.000 C 
ATOM     23  O   UNL     1       1.654   4.733  18.718  0.00  0.00    +0.000 OA
ATOM     24  H   UNL     1       3.926   6.331  20.244  0.00  0.00    +0.000 HD
BRANCH  22  25
ATOM     25  O   UNL     1       3.586   4.108  19.722  0.00  0.00    +0.000 OA
BRANCH  25  26
ATOM     26  C   UNL     1       4.073   3.295  18.640  0.00  0.00    +0.000 C 
BRANCH  26  27
ATOM     27  C   UNL     1       5.051   3.988  17.722  0.00  0.00    +0.000 A 
ATOM     28  C   UNL     1       4.743   4.130  16.360  0.00  0.00    +0.000 A 
ATOM     29  C   UNL     1       5.586   4.840  15.506  0.00  0.00    +0.000 A 
ATOM     30  C   UNL     1       6.748   5.425  16.002  0.00  0.00    +0.000 A 
ATOM     31  C   UNL     1       7.061   5.307  17.355  0.00  0.00    +0.000 A 
ATOM     32  C   UNL     1       6.216   4.595  18.213  0.00  0.00    +0.000 A 
ENDBRANCH  26  27
ENDBRANCH  25  26
ENDBRANCH  22  25
ENDBRANCH   4  21
TORSDOF 7
ENDMDL
MODEL 3
REMARK VINA RESULT:      -8.0      3.045     10.380
REMARK  Name = 
REMARK  7 active torsions:
REMARK  status: ('A' for Active; 'I' for Inactive)
REMARK    1  A    between atoms: C_2  and  C_3
REMARK    2  A    between atoms: N_5  and  C_6
REMARK    3  A    between atoms: C_10  and  C_12
REMARK    4  A    between atoms: C_15  and  N_16
REMARK    5  A    between atoms: C_17  and  O_19
REMARK    6  A    between atoms: O_19  and  C_20
REMARK    7  A    between atoms: C_20  and  C_21
REMARK                            x       y       z     vdW  Elec       q    Type
REMARK                         _______ _______ _______ _____ _____    ______ ____
ROOT
ATOM      1  C   UNL     1       0.665   9.783  19.470  0.00  0.00    +0.000 A 
ATOM      2  C   UNL     1       1.495   9.357  18.441  0.00  0.00    +0.000 A 
ATOM      3  C   UNL     1       2.208   8.168  18.550  0.00  0.00    +0.000 A 
ATOM      4  C   UNL     1       2.235   7.443  19.740  0.00  0.00    +0.000 A 
ATOM      5  C   UNL     1       1.473   7.913  20.818  0.00  0.00    +0.000 A 
ATOM      6  C   UNL     1       0.684   9.072  20.680  0.00  0.00    +0.000 A 
ENDROOT
BRANCH   1  11
ATOM      7  C   UNL     1       1.330  14.852  18.872  0.00  0.00    +0.000 C 
ATOM      8  C   UNL     1      -0.107  14.393  18.597  0.00  0.00    +0.000 C 
ATOM      9  C   UNL     1      -0.606  13.403  19.645  0.00  0.00    +0.000 C 
ATOM     10  N   UNL     1       0.300  12.264  19.734  0.00  0.00    +0.000 N 
ATOM     11  C   UNL     1      -0.177  11.004  19.333  0.00  0.00    +0.000 C 
ATOM     12  O   UNL     1      -1.301  10.850  18.854  0.00  0.00    +0.000 OA
ATOM     13  C   UNL     1       1.675  12.634  20.091  0.00  0.00    +0.000 C 
ATOM     14  C   UNL     1       2.259  13.666  19.135  0.00  0.00    +0.000 C 
BRANCH   7  17
ATOM     15  C   UNL     1       1.804  17.132  19.727  0.00  0.00    +0.000 C 
ATOM     16  O   UNL     1       2.287  17.539  18.679  0.00  0.00    +0.000 OA
ATOM     17  N   UNL     1       1.368  15.843  19.941  0.00  0.00    +0.000 N 
ATOM     18  H   UNL     1       1.022  15.587  20.857  0.00  0.00    +0.000 HD
BRANCH  15  20
ATOM     19  C   UNL     1       0.447  18.631  21.125  0.00  0.00    +0.000 C 
ATOM     20  C   UNL     1       1.604  17.996  20.921  0.00  0.00    +0.000 C 
ENDBRANCH  15  20
ENDBRANCH   7  17
ENDBRANCH   1  11
BRANCH   4  21
ATOM     21  N   UNL     1       3.012   6.274  19.887  0.00  0.00    +0.000 N 
ATOM     22  C   UNL     1       2.708   5.035  19.370  0.00  0.00    +0.000 C 
ATOM     23  O   UNL     1       1.762   4.749  18.651  0.00  0.00    +0.000 OA
ATOM     24  H   UNL     1       3.849   6.311  20.453  0.00  0.00    +0.000 HD
BRANCH  22  25
ATOM     25  O   UNL     1       3.586   4.104  19.829  0.00  0.00    +0.000 OA
BRANCH  25  26
ATOM     26  C   UNL     1       4.498   3.641  18.819  0.00  0.00    +0.000 C 
BRANCH  26  27
ATOM     27  C   UNL     1       5.439   4.696  18.288  0.00  0.00    +0.000 A 
ATOM     28  C   UNL     1       6.464   5.189  19.111  0.00  0.00    +0.000 A 
ATOM     29  C   UNL     1       7.400   6.099  18.621  0.00  0.00    +0.000 A 
ATOM     30  C   UNL     1       7.330   6.526  17.297  0.00  0.00    +0.000 A 
ATOM     31  C   UNL     1       6.328   6.035  16.463  0.00  0.00    +0.000 A 
ATOM     32  C   UNL     1       5.389   5.122  16.953  0.00  0.00    +0.000 A 
ENDBRANCH  26  27
ENDBRANCH  25  26
ENDBRANCH  22  25
ENDBRANCH   4  21
TORSDOF 7
ENDMDL
MODEL 4
REMARK VINA RESULT:      -8.0      0.871      1.371
REMARK  Name = 
REMARK  7 active torsions:
REMARK  status: ('A' for Active; 'I' for Inactive)
REMARK    1  A    between atoms: C_2  and  C_3
REMARK    2  A    between atoms: N_5  and  C_6
REMARK    3  A    between atoms: C_10  and  C_12
REMARK    4  A    between atoms: C_15  and  N_16
REMARK    5  A    between atoms: C_17  and  O_19
REMARK    6  A    between atoms: O_19  and  C_20
REMARK    7  A    between atoms: C_20  and  C_21
REMARK                            x       y       z     vdW  Elec       q    Type
REMARK                         _______ _______ _______ _____ _____    ______ ____
ROOT
ATOM      1  C   UNL     1       2.179   7.136  19.700  0.00  0.00    +0.000 A 
ATOM      2  C   UNL     1       1.581   7.443  20.916  0.00  0.00    +0.000 A 
ATOM      3  C   UNL     1       0.832   8.605  21.065  0.00  0.00    +0.000 A 
ATOM      4  C   UNL     1       0.777   9.569  20.060  0.00  0.00    +0.000 A 
ATOM      5  C   UNL     1       1.452   9.311  18.860  0.00  0.00    +0.000 A 
ATOM      6  C   UNL     1       2.141   8.097  18.677  0.00  0.00    +0.000 A 
ENDROOT
BRANCH   1  11
ATOM      7  C   UNL     1       5.967   5.306  16.734  0.00  0.00    +0.000 C 
ATOM      8  C   UNL     1       5.623   4.388  17.913  0.00  0.00    +0.000 C 
ATOM      9  C   UNL     1       4.117   4.232  18.102  0.00  0.00    +0.000 C 
ATOM     10  N   UNL     1       3.490   5.540  18.256  0.00  0.00    +0.000 N 
ATOM     11  C   UNL     1       2.906   5.852  19.494  0.00  0.00    +0.000 C 
ATOM     12  O   UNL     1       2.965   5.089  20.460  0.00  0.00    +0.000 OA
ATOM     13  C   UNL     1       3.705   6.432  17.110  0.00  0.00    +0.000 C 
ATOM     14  C   UNL     1       5.184   6.619  16.796  0.00  0.00    +0.000 C 
BRANCH   7  17
ATOM     15  C   UNL     1       6.730   4.708  14.451  0.00  0.00    +0.000 C 
ATOM     16  O   UNL     1       7.708   5.442  14.472  0.00  0.00    +0.000 OA
ATOM     17  N   UNL     1       5.800   4.612  15.463  0.00  0.00    +0.000 N 
ATOM     18  H   UNL     1       4.999   4.008  15.338  0.00  0.00    +0.000 HD
BRANCH  15  20
ATOM     19  C   UNL     1       6.973   3.975  12.117  0.00  0.00    +0.000 C 
ATOM     20  C   UNL     1       6.423   3.793  13.320  0.00  0.00    +0.000 C 
ENDBRANCH  15  20
ENDBRANCH   7  17
ENDBRANCH   1  11
BRANCH   4  21
ATOM     21  N   UNL     1       0.080  10.785  20.227  0.00  0.00    +0.000 N 
ATOM     22  C   UNL     1      -1.077  11.146  19.573  0.00  0.00    +0.000 C 
ATOM     23  O   UNL     1      -1.727  10.463  18.796  0.00  0.00    +0.000 OA
ATOM     24  H   UNL     1       0.465  11.489  20.842  0.00  0.00    +0.000 HD
BRANCH  22  25
ATOM     25  O   UNL     1      -1.391  12.439  19.852  0.00  0.00    +0.000 OA
BRANCH  25  26
ATOM     26  C   UNL     1      -1.311  12.752  21.253  0.00  0.00    +0.000 C 
BRANCH  26  27
ATOM     27  C   UNL     1      -2.634  12.727  21.980  0.00  0.00    +0.000 A 
ATOM     28  C   UNL     1      -2.660  12.501  23.365  0.00  0.00    +0.000 A 
ATOM     29  C   UNL     1      -3.858  12.558  24.078  0.00  0.00    +0.000 A 
ATOM     30  C   UNL     1      -5.049  12.849  23.416  0.00  0.00    +0.000 A 
ATOM     31  C   UNL     1      -5.038  13.091  22.044  0.00  0.00    +0.000 A 
ATOM     32  C   UNL     1      -3.837  13.034  21.328  0.00  0.00    +0.000 A 
ENDBRANCH  26  27
ENDBRANCH  25  26
ENDBRANCH  22  25
ENDBRANCH   4  21
TORSDOF 7
ENDMDL
MODEL 5
REMARK VINA RESULT:      -8.0      0.983      1.420
REMARK  Name = 
REMARK  7 active torsions:
REMARK  status: ('A' for Active; 'I' for Inactive)
REMARK    1  A    between atoms: C_2  and  C_3
REMARK    2  A    between atoms: N_5  and  C_6
REMARK    3  A    between atoms: C_10  and  C_12
REMARK    4  A    between atoms: C_15  and  N_16
REMARK    5  A    between atoms: C_17  and  O_19
REMARK    6  A    between atoms: O_19  and  C_20
REMARK    7  A    between atoms: C_20  and  C_21
REMARK                            x       y       z     vdW  Elec       q    Type
REMARK                         _______ _______ _______ _____ _____    ______ ____
ROOT
ATOM      1  C   UNL     1       2.456   7.091  19.292  0.00  0.00    +0.000 A 
ATOM      2  C   UNL     1       2.275   7.984  18.243  0.00  0.00    +0.000 A 
ATOM      3  C   UNL     1       1.624   9.196  18.447  0.00  0.00    +0.000 A 
ATOM      4  C   UNL     1       1.004   9.493  19.658  0.00  0.00    +0.000 A 
ATOM      5  C   UNL     1       1.101   8.559  20.698  0.00  0.00    +0.000 A 
ATOM      6  C   UNL     1       1.832   7.369  20.518  0.00  0.00    +0.000 A 
ENDROOT
BRANCH   1  11
ATOM      7  C   UNL     1       6.324   5.347  16.378  0.00  0.00    +0.000 C 
ATOM      8  C   UNL     1       6.009   4.440  17.573  0.00  0.00    +0.000 C 
ATOM      9  C   UNL     1       4.510   4.231  17.760  0.00  0.00    +0.000 C 
ATOM     10  N   UNL     1       3.833   5.517  17.885  0.00  0.00    +0.000 N 
ATOM     11  C   UNL     1       3.232   5.832  19.115  0.00  0.00    +0.000 C 
ATOM     12  O   UNL     1       3.316   5.092  20.096  0.00  0.00    +0.000 OA
ATOM     13  C   UNL     1       4.019   6.394  16.723  0.00  0.00    +0.000 C 
ATOM     14  C   UNL     1       5.491   6.630  16.410  0.00  0.00    +0.000 C 
BRANCH   7  17
ATOM     15  C   UNL     1       7.071   4.798  14.077  0.00  0.00    +0.000 C 
ATOM     16  O   UNL     1       7.969   5.629  14.058  0.00  0.00    +0.000 OA
ATOM     17  N   UNL     1       6.188   4.622  15.120  0.00  0.00    +0.000 N 
ATOM     18  H   UNL     1       5.450   3.937  15.028  0.00  0.00    +0.000 HD
BRANCH  15  20
ATOM     19  C   UNL     1       5.582   3.484  12.628  0.00  0.00    +0.000 C 
ATOM     20  C   UNL     1       6.824   3.841  12.966  0.00  0.00    +0.000 C 
ENDBRANCH  15  20
ENDBRANCH   7  17
ENDBRANCH   1  11
BRANCH   4  21
ATOM     21  N   UNL     1       0.277  10.688  19.854  0.00  0.00    +0.000 N 
ATOM     22  C   UNL     1      -0.947  10.986  19.299  0.00  0.00    +0.000 C 
ATOM     23  O   UNL     1      -1.638  10.256  18.605  0.00  0.00    +0.000 OA
ATOM     24  H   UNL     1       0.689  11.425  20.412  0.00  0.00    +0.000 HD
BRANCH  22  25
ATOM     25  O   UNL     1      -1.285  12.275  19.569  0.00  0.00    +0.000 OA
BRANCH  25  26
ATOM     26  C   UNL     1      -0.999  12.663  20.924  0.00  0.00    +0.000 C 
BRANCH  26  27
ATOM     27  C   UNL     1      -2.214  12.811  21.807  0.00  0.00    +0.000 A 
ATOM     28  C   UNL     1      -3.360  13.451  21.308  0.00  0.00    +0.000 A 
ATOM     29  C   UNL     1      -4.527  13.524  22.070  0.00  0.00    +0.000 A 
ATOM     30  C   UNL     1      -4.568  12.954  23.340  0.00  0.00    +0.000 A 
ATOM     31  C   UNL     1      -3.444  12.301  23.842  0.00  0.00    +0.000 A 
ATOM     32  C   UNL     1      -2.273  12.226  23.081  0.00  0.00    +0.000 A 
ENDBRANCH  26  27
ENDBRANCH  25  26
ENDBRANCH  22  25
ENDBRANCH   4  21
TORSDOF 7
ENDMDL
MODEL 6
REMARK VINA RESULT:      -8.0      3.043     10.428
REMARK  Name = 
REMARK  7 active torsions:
REMARK  status: ('A' for Active; 'I' for Inactive)
REMARK    1  A    between atoms: C_2  and  C_3
REMARK    2  A    between atoms: N_5  and  C_6
REMARK    3  A    between atoms: C_10  and  C_12
REMARK    4  A    between atoms: C_15  and  N_16
REMARK    5  A    between atoms: C_17  and  O_19
REMARK    6  A    between atoms: O_19  and  C_20
REMARK    7  A    between atoms: C_20  and  C_21
REMARK                            x       y       z     vdW  Elec       q    Type
REMARK                         _______ _______ _______ _____ _____    ______ ____
ROOT
ATOM      1  C   UNL     1       0.585   9.895  19.568  0.00  0.00    +0.000 A 
ATOM      2  C   UNL     1       0.612   9.114  20.716  0.00  0.00    +0.000 A 
ATOM      3  C   UNL     1       1.466   8.020  20.810  0.00  0.00    +0.000 A 
ATOM      4  C   UNL     1       2.209   7.582  19.716  0.00  0.00    +0.000 A 
ATOM      5  C   UNL     1       2.120   8.309  18.522  0.00  0.00    +0.000 A 
ATOM      6  C   UNL     1       1.320   9.466  18.452  0.00  0.00    +0.000 A 
ENDROOT
BRANCH   1  11
ATOM      7  C   UNL     1       1.248  14.953  18.880  0.00  0.00    +0.000 C 
ATOM      8  C   UNL     1      -0.210  14.505  18.717  0.00  0.00    +0.000 C 
ATOM      9  C   UNL     1      -0.638  13.528  19.807  0.00  0.00    +0.000 C 
ATOM     10  N   UNL     1       0.263  12.381  19.837  0.00  0.00    +0.000 N 
ATOM     11  C   UNL     1      -0.254  11.123  19.484  0.00  0.00    +0.000 C 
ATOM     12  O   UNL     1      -1.412  10.976  19.091  0.00  0.00    +0.000 OA
ATOM     13  C   UNL     1       1.664  12.741  20.088  0.00  0.00    +0.000 C 
ATOM     14  C   UNL     1       2.184  13.760  19.083  0.00  0.00    +0.000 C 
BRANCH   7  17
ATOM     15  C   UNL     1       1.983  17.169  19.720  0.00  0.00    +0.000 C 
ATOM     16  O   UNL     1       2.553  17.489  18.686  0.00  0.00    +0.000 OA
ATOM     17  N   UNL     1       1.374  15.951  19.935  0.00  0.00    +0.000 N 
ATOM     18  H   UNL     1       0.964  15.760  20.840  0.00  0.00    +0.000 HD
BRANCH  15  20
ATOM     19  C   UNL     1       0.844  17.942  21.757  0.00  0.00    +0.000 C 
ATOM     20  C   UNL     1       1.852  18.075  20.891  0.00  0.00    +0.000 C 
ENDBRANCH  15  20
ENDBRANCH   7  17
ENDBRANCH   1  11
BRANCH   4  21
ATOM     21  N   UNL     1       3.024   6.430  19.778  0.00  0.00    +0.000 N 
ATOM     22  C   UNL     1       2.780   5.236  19.138  0.00  0.00    +0.000 C 
ATOM     23  O   UNL     1       1.866   4.988  18.365  0.00  0.00    +0.000 OA
ATOM     24  H   UNL     1       3.843   6.442  20.372  0.00  0.00    +0.000 HD
BRANCH  22  25
ATOM     25  O   UNL     1       3.678   4.296  19.536  0.00  0.00    +0.000 OA
BRANCH  25  26
ATOM     26  C   UNL     1       4.613   3.935  18.505  0.00  0.00    +0.000 C 
BRANCH  26  27
ATOM     27  C   UNL     1       5.732   4.926  18.294  0.00  0.00    +0.000 A 
ATOM     28  C   UNL     1       5.692   5.792  17.190  0.00  0.00    +0.000 A 
ATOM     29  C   UNL     1       6.666   6.776  17.017  0.00  0.00    +0.000 A 
ATOM     30  C   UNL     1       7.692   6.912  17.949  0.00  0.00    +0.000 A 
ATOM     31  C   UNL     1       7.737   6.070  19.058  0.00  0.00    +0.000 A 
ATOM     32  C   UNL     1       6.762   5.084  19.233  0.00  0.00    +0.000 A 
ENDBRANCH  26  27
ENDBRANCH  25  26
ENDBRANCH  22  25
ENDBRANCH   4  21
TORSDOF 7
ENDMDL
MODEL 7
REMARK VINA RESULT:      -8.0      1.046      1.368
REMARK  Name = 
REMARK  7 active torsions:
REMARK  status: ('A' for Active; 'I' for Inactive)
REMARK    1  A    between atoms: C_2  and  C_3
REMARK    2  A    between atoms: N_5  and  C_6
REMARK    3  A    between atoms: C_10  and  C_12
REMARK    4  A    between atoms: C_15  and  N_16
REMARK    5  A    between atoms: C_17  and  O_19
REMARK    6  A    between atoms: O_19  and  C_20
REMARK    7  A    between atoms: C_20  and  C_21
REMARK                            x       y       z     vdW  Elec       q    Type
REMARK                         _______ _______ _______ _____ _____    ______ ____
ROOT
ATOM      1  C   UNL     1       2.163   7.127  19.802  0.00  0.00    +0.000 A 
ATOM      2  C   UNL     1       2.065   8.086  18.802  0.00  0.00    +0.000 A 
ATOM      3  C   UNL     1       1.572   9.356  19.084  0.00  0.00    +0.000 A 
ATOM      4  C   UNL     1       1.025   9.665  20.328  0.00  0.00    +0.000 A 
ATOM      5  C   UNL     1       1.035   8.674  21.318  0.00  0.00    +0.000 A 
ATOM      6  C   UNL     1       1.610   7.415  21.060  0.00  0.00    +0.000 A 
ENDROOT
BRANCH   1  11
ATOM      7  C   UNL     1       5.868   5.119  16.846  0.00  0.00    +0.000 C 
ATOM      8  C   UNL     1       5.398   4.171  17.956  0.00  0.00    +0.000 C 
ATOM      9  C   UNL     1       3.878   4.148  18.090  0.00  0.00    +0.000 C 
ATOM     10  N   UNL     1       3.371   5.499  18.304  0.00  0.00    +0.000 N 
ATOM     11  C   UNL     1       2.774   5.794  19.541  0.00  0.00    +0.000 C 
ATOM     12  O   UNL     1       2.728   4.975  20.460  0.00  0.00    +0.000 OA
ATOM     13  C   UNL     1       3.708   6.431  17.221  0.00  0.00    +0.000 C 
ATOM     14  C   UNL     1       5.208   6.494  16.963  0.00  0.00    +0.000 C 
BRANCH   7  17
ATOM     15  C   UNL     1       6.620   4.645  14.530  0.00  0.00    +0.000 C 
ATOM     16  O   UNL     1       7.626   5.339  14.603  0.00  0.00    +0.000 OA
ATOM     17  N   UNL     1       5.681   4.518  15.530  0.00  0.00    +0.000 N 
ATOM     18  H   UNL     1       4.858   3.954  15.363  0.00  0.00    +0.000 HD
BRANCH  15  20
ATOM     19  C   UNL     1       6.939   3.977  12.186  0.00  0.00    +0.000 C 
ATOM     20  C   UNL     1       6.285   3.820  13.339  0.00  0.00    +0.000 C 
ENDBRANCH  15  20
ENDBRANCH   7  17
ENDBRANCH   1  11
BRANCH   4  21
ATOM     21  N   UNL     1       0.456  10.928  20.603  0.00  0.00    +0.000 N 
ATOM     22  C   UNL     1      -0.719  11.413  20.074  0.00  0.00    +0.000 C 
ATOM     23  O   UNL     1      -1.494  10.822  19.337  0.00  0.00    +0.000 OA
ATOM     24  H   UNL     1       0.955  11.568  21.204  0.00  0.00    +0.000 HD
BRANCH  22  25
ATOM     25  O   UNL     1      -0.892  12.715  20.427  0.00  0.00    +0.000 OA
BRANCH  25  26
ATOM     26  C   UNL     1      -0.427  13.007  21.756  0.00  0.00    +0.000 C 
BRANCH  26  27
ATOM     27  C   UNL     1      -1.520  13.160  22.786  0.00  0.00    +0.000 A 
ATOM     28  C   UNL     1      -1.598  14.338  23.545  0.00  0.00    +0.000 A 
ATOM     29  C   UNL     1      -2.647  14.543  24.442  0.00  0.00    +0.000 A 
ATOM     30  C   UNL     1      -3.638  13.576  24.588  0.00  0.00    +0.000 A 
ATOM     31  C   UNL     1      -3.584  12.408  23.830  0.00  0.00    +0.000 A 
ATOM     32  C   UNL     1      -2.533  12.200  22.931  0.00  0.00    +0.000 A 
ENDBRANCH  26  27
ENDBRANCH  25  26
ENDBRANCH  22  25
ENDBRANCH   4  21
TORSDOF 7
ENDMDL
MODEL 8
REMARK VINA RESULT:      -7.9      2.223     11.003
REMARK  Name = 
REMARK  7 active torsions:
REMARK  status: ('A' for Active; 'I' for Inactive)
REMARK    1  A    between atoms: C_2  and  C_3
REMARK    2  A    between atoms: N_5  and  C_6
REMARK    3  A    between atoms: C_10  and  C_12
REMARK    4  A    between atoms: C_15  and  N_16
REMARK    5  A    between atoms: C_17  and  O_19
REMARK    6  A    between atoms: O_19  and  C_20
REMARK    7  A    between atoms: C_20  and  C_21
REMARK                            x       y       z     vdW  Elec       q    Type
REMARK                         _______ _______ _______ _____ _____    ______ ____
ROOT
ATOM      1  C   UNL     1       1.004   9.640  19.310  0.00  0.00    +0.000 A 
ATOM      2  C   UNL     1       1.163   8.714  20.333  0.00  0.00    +0.000 A 
ATOM      3  C   UNL     1       1.999   7.614  20.171  0.00  0.00    +0.000 A 
ATOM      4  C   UNL     1       2.584   7.320  18.941  0.00  0.00    +0.000 A 
ATOM      5  C   UNL     1       2.357   8.199  17.874  0.00  0.00    +0.000 A 
ATOM      6  C   UNL     1       1.579   9.358  18.061  0.00  0.00    +0.000 A 
ENDROOT
BRANCH   1  11
ATOM      7  C   UNL     1      -1.495  12.041  23.116  0.00  0.00    +0.000 C 
ATOM      8  C   UNL     1      -1.304  12.915  21.870  0.00  0.00    +0.000 C 
ATOM      9  C   UNL     1      -1.603  12.156  20.581  0.00  0.00    +0.000 C 
ATOM     10  N   UNL     1      -0.787  10.949  20.506  0.00  0.00    +0.000 N 
ATOM     11  C   UNL     1       0.188  10.872  19.498  0.00  0.00    +0.000 C 
ATOM     12  O   UNL     1       0.415  11.808  18.730  0.00  0.00    +0.000 OA
ATOM     13  C   UNL     1      -1.000  10.025  21.626  0.00  0.00    +0.000 C 
ATOM     14  C   UNL     1      -0.778  10.697  22.975  0.00  0.00    +0.000 C 
BRANCH   7  17
ATOM     15  C   UNL     1      -3.614  12.873  24.101  0.00  0.00    +0.000 C 
ATOM     16  O   UNL     1      -3.121  13.893  24.564  0.00  0.00    +0.000 OA
ATOM     17  N   UNL     1      -2.909  11.892  23.439  0.00  0.00    +0.000 N 
ATOM     18  H   UNL     1      -3.396  11.061  23.128  0.00  0.00    +0.000 HD
BRANCH  15  20
ATOM     19  C   UNL     1      -5.981  13.449  23.775  0.00  0.00    +0.000 C 
ATOM     20  C   UNL     1      -5.067  12.564  24.177  0.00  0.00    +0.000 C 
ENDBRANCH  15  20
ENDBRANCH   7  17
ENDBRANCH   1  11
BRANCH   4  21
ATOM     21  N   UNL     1       3.375   6.167  18.744  0.00  0.00    +0.000 N 
ATOM     22  C   UNL     1       2.961   5.000  18.144  0.00  0.00    +0.000 C 
ATOM     23  O   UNL     1       1.875   4.783  17.627  0.00  0.00    +0.000 OA
ATOM     24  H   UNL     1       4.320   6.156  19.105  0.00  0.00    +0.000 HD
BRANCH  22  25
ATOM     25  O   UNL     1       3.922   4.045  18.259  0.00  0.00    +0.000 OA
BRANCH  25  26
ATOM     26  C   UNL     1       4.961   4.166  17.273  0.00  0.00    +0.000 C 
BRANCH  26  27
ATOM     27  C   UNL     1       6.078   5.110  17.648  0.00  0.00    +0.000 A 
ATOM     28  C   UNL     1       6.280   6.279  16.898  0.00  0.00    +0.000 A 
ATOM     29  C   UNL     1       7.247   7.212  17.273  0.00  0.00    +0.000 A 
ATOM     30  C   UNL     1       8.024   6.992  18.407  0.00  0.00    +0.000 A 
ATOM     31  C   UNL     1       7.825   5.844  19.172  0.00  0.00    +0.000 A 
ATOM     32  C   UNL     1       6.856   4.908  18.798  0.00  0.00    +0.000 A 
ENDBRANCH  26  27
ENDBRANCH  25  26
ENDBRANCH  22  25
ENDBRANCH   4  21
TORSDOF 7
ENDMDL
MODEL 9
REMARK VINA RESULT:      -7.9      0.703      1.313
REMARK  Name = 
REMARK  7 active torsions:
REMARK  status: ('A' for Active; 'I' for Inactive)
REMARK    1  A    between atoms: C_2  and  C_3
REMARK    2  A    between atoms: N_5  and  C_6
REMARK    3  A    between atoms: C_10  and  C_12
REMARK    4  A    between atoms: C_15  and  N_16
REMARK    5  A    between atoms: C_17  and  O_19
REMARK    6  A    between atoms: O_19  and  C_20
REMARK    7  A    between atoms: C_20  and  C_21
REMARK                            x       y       z     vdW  Elec       q    Type
REMARK                         _______ _______ _______ _____ _____    ______ ____
ROOT
ATOM      1  C   UNL     1       2.139   7.192  19.628  0.00  0.00    +0.000 A 
ATOM      2  C   UNL     1       1.492   7.529  20.811  0.00  0.00    +0.000 A 
ATOM      3  C   UNL     1       0.741   8.696  20.902  0.00  0.00    +0.000 A 
ATOM      4  C   UNL     1       0.731   9.636  19.873  0.00  0.00    +0.000 A 
ATOM      5  C   UNL     1       1.456   9.350  18.709  0.00  0.00    +0.000 A 
ATOM      6  C   UNL     1       2.148   8.130  18.584  0.00  0.00    +0.000 A 
ENDROOT
BRANCH   1  11
ATOM      7  C   UNL     1       5.979   5.259  16.798  0.00  0.00    +0.000 C 
ATOM      8  C   UNL     1       5.615   4.384  18.004  0.00  0.00    +0.000 C 
ATOM      9  C   UNL     1       4.107   4.233  18.173  0.00  0.00    +0.000 C 
ATOM     10  N   UNL     1       3.476   5.545  18.267  0.00  0.00    +0.000 N 
ATOM     11  C   UNL     1       2.870   5.903  19.483  0.00  0.00    +0.000 C 
ATOM     12  O   UNL     1       2.914   5.177  20.477  0.00  0.00    +0.000 OA
ATOM     13  C   UNL     1       3.710   6.395  17.093  0.00  0.00    +0.000 C 
ATOM     14  C   UNL     1       5.193   6.571  16.797  0.00  0.00    +0.000 C 
BRANCH   7  17
ATOM     15  C   UNL     1       6.712   4.675  14.500  0.00  0.00    +0.000 C 
ATOM     16  O   UNL     1       7.615   5.500  14.466  0.00  0.00    +0.000 OA
ATOM     17  N   UNL     1       5.834   4.517  15.550  0.00  0.00    +0.000 N 
ATOM     18  H   UNL     1       5.091   3.835  15.471  0.00  0.00    +0.000 HD
BRANCH  15  20
ATOM     19  C   UNL     1       6.837   3.962  12.151  0.00  0.00    +0.000 C 
ATOM     20  C   UNL     1       6.454   3.704  13.404  0.00  0.00    +0.000 C 
ENDBRANCH  15  20
ENDBRANCH   7  17
ENDBRANCH   1  11
BRANCH   4  21
ATOM     21  N   UNL     1       0.031  10.857  19.982  0.00  0.00    +0.000 N 
ATOM     22  C   UNL     1       0.470  11.979  20.648  0.00  0.00    +0.000 C 
ATOM     23  O   UNL     1       1.551  12.134  21.197  0.00  0.00    +0.000 OA
ATOM     24  H   UNL     1      -0.895  10.928  19.582  0.00  0.00    +0.000 HD
BRANCH  22  25
ATOM     25  O   UNL     1      -0.513  12.918  20.687  0.00  0.00    +0.000 OA
BRANCH  25  26
ATOM     26  C   UNL     1      -1.511  12.735  19.669  0.00  0.00    +0.000 C 
BRANCH  26  27
ATOM     27  C   UNL     1      -2.925  12.629  20.186  0.00  0.00    +0.000 A 
ATOM     28  C   UNL     1      -3.213  13.012  21.505  0.00  0.00    +0.000 A 
ATOM     29  C   UNL     1      -4.523  13.007  21.983  0.00  0.00    +0.000 A 
ATOM     30  C   UNL     1      -5.568  12.624  21.146  0.00  0.00    +0.000 A 
ATOM     31  C   UNL     1      -5.302  12.255  19.828  0.00  0.00    +0.000 A 
ATOM     32  C   UNL     1      -3.989  12.260  19.348  0.00  0.00    +0.000 A 
ENDBRANCH  26  27
ENDBRANCH  25  26
ENDBRANCH  22  25
ENDBRANCH   4  21
TORSDOF 7
ENDMDL
