MODEL 1
REMARK VINA RESULT:      -7.2      0.000      0.000
REMARK  Name = 
REMARK  6 active torsions:
REMARK  status: ('A' for Active; 'I' for Inactive)
REMARK    1  A    between atoms: C_1  and  O_2
REMARK    2  A    between atoms: O_2  and  C_3
REMARK    3  A    between atoms: C_8  and  C_9
REMARK    4  A    between atoms: C_12  and  C_13
REMARK    5  A    between atoms: C_13  and  C_14
REMARK    6  A    between atoms: N_24  and  C_25
REMARK                            x       y       z     vdW  Elec       q    Type
REMARK                         _______ _______ _______ _____ _____    ______ ____
ROOT
ATOM      1  C   UNL     1       1.780   7.169  20.157  0.00  0.00    +0.000 A 
ATOM      2  N   UNL     1       1.291   7.716  21.261  0.00  0.00    +0.000 NA
ATOM      3  N   UNL     1       0.961   9.019  21.014  0.00  0.00    +0.000 NA
ATOM      4  C   UNL     1       1.242   9.273  19.756  0.00  0.00    +0.000 A 
ATOM      5  N   UNL     1       1.708   8.126  19.162  0.00  0.00    +0.000 N 
ATOM      6  C   UNL     1       1.973   7.951  17.762  0.00  0.00    +0.000 C 
ENDROOT
BRANCH   1  12
ATOM      7  C   UNL     1       3.457   5.307  19.604  0.00  0.00    +0.000 A 
ATOM      8  C   UNL     1       3.759   3.934  19.616  0.00  0.00    +0.000 A 
ATOM      9  C   UNL     1       2.827   2.998  20.073  0.00  0.00    +0.000 A 
ATOM     10  C   UNL     1       1.598   3.429  20.541  0.00  0.00    +0.000 A 
ATOM     11  C   UNL     1       1.295   4.791  20.542  0.00  0.00    +0.000 A 
ATOM     12  C   UNL     1       2.207   5.760  20.070  0.00  0.00    +0.000 A 
BRANCH   7  14
ATOM     13  C   UNL     1       5.236   5.815  18.137  0.00  0.00    +0.000 C 
ATOM     14  O   UNL     1       4.405   6.224  19.226  0.00  0.00    +0.000 OA
ENDBRANCH   7  14
ENDBRANCH   1  12
BRANCH   4  15
ATOM     15  C   UNL     1       0.977  10.662  19.132  0.00  0.00    +0.000 C 
ATOM     16  C   UNL     1       1.479  11.809  20.078  0.00  0.00    +0.000 C 
ATOM     17  C   UNL     1       2.002  12.536  18.826  0.00  0.00    +0.000 C 
ATOM     18  C   UNL     1       2.046  11.169  18.109  0.00  0.00    +0.000 C 
BRANCH  15  19
ATOM     19  C   UNL     1      -0.578  10.675  18.644  0.00  0.00    +0.000 A 
ATOM     20  C   UNL     1      -1.025   9.939  17.526  0.00  0.00    +0.000 A 
ATOM     21  C   UNL     1      -2.310  10.106  16.989  0.00  0.00    +0.000 A 
ATOM     22  C   UNL     1      -3.182  11.029  17.553  0.00  0.00    +0.000 A 
ATOM     23 CL   UNL     1      -4.716  11.325  16.835  0.00  0.00    +0.000 Cl
ATOM     24  C   UNL     1      -2.809  11.728  18.690  0.00  0.00    +0.000 A 
ATOM     25  C   UNL     1      -1.538  11.525  19.239  0.00  0.00    +0.000 A 
ENDBRANCH  15  19
ENDBRANCH   4  15
TORSDOF 4
ENDMDL
MODEL 2
REMARK VINA RESULT:      -7.2      1.642      3.073
REMARK  Name = 
REMARK  6 active torsions:
REMARK  status: ('A' for Active; 'I' for Inactive)
REMARK    1  A    between atoms: C_1  and  O_2
REMARK    2  A    between atoms: O_2  and  C_3
REMARK    3  A    between atoms: C_8  and  C_9
REMARK    4  A    between atoms: C_12  and  C_13
REMARK    5  A    between atoms: C_13  and  C_14
REMARK    6  A    between atoms: N_24  and  C_25
REMARK                            x       y       z     vdW  Elec       q    Type
REMARK                         _______ _______ _______ _____ _____    ______ ____
ROOT
ATOM      1  C   UNL     1       2.639   7.683  18.099  0.00  0.00    +0.000 A 
ATOM      2  N   UNL     1       2.486   8.747  17.322  0.00  0.00    +0.000 NA
ATOM      3  N   UNL     1       1.626   9.625  17.919  0.00  0.00    +0.000 NA
ATOM      4  C   UNL     1       1.253   9.105  19.066  0.00  0.00    +0.000 A 
ATOM      5  N   UNL     1       1.905   7.910  19.248  0.00  0.00    +0.000 N 
ATOM      6  C   UNL     1       1.887   7.115  20.444  0.00  0.00    +0.000 C 
ENDROOT
BRANCH   1  12
ATOM      7  C   UNL     1       3.132   5.208  17.634  0.00  0.00    +0.000 A 
ATOM      8  C   UNL     1       4.071   4.230  17.263  0.00  0.00    +0.000 A 
ATOM      9  C   UNL     1       5.408   4.570  17.034  0.00  0.00    +0.000 A 
ATOM     10  C   UNL     1       5.808   5.888  17.151  0.00  0.00    +0.000 A 
ATOM     11  C   UNL     1       4.880   6.866  17.508  0.00  0.00    +0.000 A 
ATOM     12  C   UNL     1       3.526   6.554  17.765  0.00  0.00    +0.000 A 
BRANCH   7  14
ATOM     13  C   UNL     1       1.558   3.771  18.649  0.00  0.00    +0.000 C 
ATOM     14  O   UNL     1       1.808   4.879  17.782  0.00  0.00    +0.000 OA
ENDBRANCH   7  14
ENDBRANCH   1  12
BRANCH   4  15
ATOM     15  C   UNL     1       0.284   9.847  20.014  0.00  0.00    +0.000 C 
ATOM     16  C   UNL     1      -0.094   8.952  21.247  0.00  0.00    +0.000 C 
ATOM     17  C   UNL     1       0.024  10.211  22.124  0.00  0.00    +0.000 C 
ATOM     18  C   UNL     1       0.943  10.820  21.045  0.00  0.00    +0.000 C 
BRANCH  15  19
ATOM     19  C   UNL     1      -0.916  10.452  19.089  0.00  0.00    +0.000 A 
ATOM     20  C   UNL     1      -1.652  11.596  19.462  0.00  0.00    +0.000 A 
ATOM     21  C   UNL     1      -2.807  11.995  18.773  0.00  0.00    +0.000 A 
ATOM     22  C   UNL     1      -3.263  11.249  17.694  0.00  0.00    +0.000 A 
ATOM     23 CL   UNL     1      -4.738  11.663  16.913  0.00  0.00    +0.000 Cl
ATOM     24  C   UNL     1      -2.536  10.155  17.253  0.00  0.00    +0.000 A 
ATOM     25  C   UNL     1      -1.366   9.788  17.925  0.00  0.00    +0.000 A 
ENDBRANCH  15  19
ENDBRANCH   4  15
TORSDOF 4
ENDMDL
MODEL 3
REMARK VINA RESULT:      -7.0      5.823      7.267
REMARK  Name = 
REMARK  6 active torsions:
REMARK  status: ('A' for Active; 'I' for Inactive)
REMARK    1  A    between atoms: C_1  and  O_2
REMARK    2  A    between atoms: O_2  and  C_3
REMARK    3  A    between atoms: C_8  and  C_9
REMARK    4  A    between atoms: C_12  and  C_13
REMARK    5  A    between atoms: C_13  and  C_14
REMARK    6  A    between atoms: N_24  and  C_25
REMARK                            x       y       z     vdW  Elec       q    Type
REMARK                         _______ _______ _______ _____ _____    ______ ____
ROOT
ATOM      1  C   UNL     1       3.372   5.196  19.048  0.00  0.00    +0.000 A 
ATOM      2  N   UNL     1       2.929   6.364  18.602  0.00  0.00    +0.000 NA
ATOM      3  N   UNL     1       3.925   6.992  17.909  0.00  0.00    +0.000 NA
ATOM      4  C   UNL     1       4.980   6.209  17.923  0.00  0.00    +0.000 A 
ATOM      5  N   UNL     1       4.664   5.046  18.580  0.00  0.00    +0.000 N 
ATOM      6  C   UNL     1       5.495   3.878  18.671  0.00  0.00    +0.000 C 
ENDROOT
BRANCH   1  12
ATOM      7  C   UNL     1       1.666   3.292  19.262  0.00  0.00    +0.000 A 
ATOM      8  C   UNL     1       0.960   2.415  20.104  0.00  0.00    +0.000 A 
ATOM      9  C   UNL     1       1.098   2.486  21.492  0.00  0.00    +0.000 A 
ATOM     10  C   UNL     1       1.956   3.418  22.048  0.00  0.00    +0.000 A 
ATOM     11  C   UNL     1       2.669   4.285  21.219  0.00  0.00    +0.000 A 
ATOM     12  C   UNL     1       2.539   4.251  19.813  0.00  0.00    +0.000 A 
BRANCH   7  14
ATOM     13  C   UNL     1       2.500   2.228  17.326  0.00  0.00    +0.000 C 
ATOM     14  O   UNL     1       1.584   3.164  17.898  0.00  0.00    +0.000 OA
ENDBRANCH   7  14
ENDBRANCH   1  12
BRANCH   4  15
ATOM     15  C   UNL     1       6.293   6.608  17.213  0.00  0.00    +0.000 C 
ATOM     16  C   UNL     1       6.494   8.165  17.232  0.00  0.00    +0.000 C 
ATOM     17  C   UNL     1       7.984   7.912  17.520  0.00  0.00    +0.000 C 
ATOM     18  C   UNL     1       7.593   6.527  18.078  0.00  0.00    +0.000 C 
BRANCH  15  19
ATOM     19  C   UNL     1       6.312   5.835  15.777  0.00  0.00    +0.000 A 
ATOM     20  C   UNL     1       5.141   5.317  15.183  0.00  0.00    +0.000 A 
ATOM     21  C   UNL     1       5.184   4.484  14.056  0.00  0.00    +0.000 A 
ATOM     22  C   UNL     1       6.408   4.134  13.499  0.00  0.00    +0.000 A 
ATOM     23 CL   UNL     1       6.479   3.023  12.189  0.00  0.00    +0.000 Cl
ATOM     24  C   UNL     1       7.579   4.670  14.010  0.00  0.00    +0.000 A 
ATOM     25  C   UNL     1       7.521   5.530  15.111  0.00  0.00    +0.000 A 
ENDBRANCH  15  19
ENDBRANCH   4  15
TORSDOF 4
ENDMDL
MODEL 4
REMARK VINA RESULT:      -7.0      3.599      7.758
REMARK  Name = 
REMARK  6 active torsions:
REMARK  status: ('A' for Active; 'I' for Inactive)
REMARK    1  A    between atoms: C_1  and  O_2
REMARK    2  A    between atoms: O_2  and  C_3
REMARK    3  A    between atoms: C_8  and  C_9
REMARK    4  A    between atoms: C_12  and  C_13
REMARK    5  A    between atoms: C_13  and  C_14
REMARK    6  A    between atoms: N_24  and  C_25
REMARK                            x       y       z     vdW  Elec       q    Type
REMARK                         _______ _______ _______ _____ _____    ______ ____
ROOT
ATOM      1  C   UNL     1       2.257   7.500  19.342  0.00  0.00    +0.000 A 
ATOM      2  N   UNL     1       2.923   7.801  18.236  0.00  0.00    +0.000 NA
ATOM      3  N   UNL     1       3.510   6.673  17.738  0.00  0.00    +0.000 NA
ATOM      4  C   UNL     1       3.202   5.674  18.534  0.00  0.00    +0.000 A 
ATOM      5  N   UNL     1       2.371   6.135  19.527  0.00  0.00    +0.000 N 
ATOM      6  C   UNL     1       1.691   5.325  20.498  0.00  0.00    +0.000 C 
ENDROOT
BRANCH   1  12
ATOM      7  C   UNL     1       0.673   9.505  19.578  0.00  0.00    +0.000 A 
ATOM      8  C   UNL     1      -0.053  10.355  20.430  0.00  0.00    +0.000 A 
ATOM      9  C   UNL     1       0.024  10.216  21.818  0.00  0.00    +0.000 A 
ATOM     10  C   UNL     1       0.809   9.216  22.363  0.00  0.00    +0.000 A 
ATOM     11  C   UNL     1       1.525   8.362  21.524  0.00  0.00    +0.000 A 
ATOM     12  C   UNL     1       1.483   8.486  20.118  0.00  0.00    +0.000 A 
BRANCH   7  14
ATOM     13  C   UNL     1      -0.763  10.016  17.774  0.00  0.00    +0.000 C 
ATOM     14  O   UNL     1       0.531   9.599  18.216  0.00  0.00    +0.000 OA
ENDBRANCH   7  14
ENDBRANCH   1  12
BRANCH   4  15
ATOM     15  C   UNL     1       3.693   4.236  18.256  0.00  0.00    +0.000 C 
ATOM     16  C   UNL     1       4.030   3.487  19.594  0.00  0.00    +0.000 C 
ATOM     17  C   UNL     1       3.375   2.232  18.991  0.00  0.00    +0.000 C 
ATOM     18  C   UNL     1       2.578   3.159  18.048  0.00  0.00    +0.000 C 
BRANCH  15  19
ATOM     19  C   UNL     1       4.844   4.340  17.107  0.00  0.00    +0.000 A 
ATOM     20  C   UNL     1       6.139   4.831  17.377  0.00  0.00    +0.000 A 
ATOM     21  C   UNL     1       7.059   5.107  16.355  0.00  0.00    +0.000 A 
ATOM     22  C   UNL     1       6.701   4.908  15.028  0.00  0.00    +0.000 A 
ATOM     23 CL   UNL     1       7.778   5.351  13.763  0.00  0.00    +0.000 Cl
ATOM     24  C   UNL     1       5.463   4.368  14.719  0.00  0.00    +0.000 A 
ATOM     25  C   UNL     1       4.568   4.062  15.749  0.00  0.00    +0.000 A 
ENDBRANCH  15  19
ENDBRANCH   4  15
TORSDOF 4
ENDMDL
MODEL 5
REMARK VINA RESULT:      -7.0      1.340      1.899
REMARK  Name = 
REMARK  6 active torsions:
REMARK  status: ('A' for Active; 'I' for Inactive)
REMARK    1  A    between atoms: C_1  and  O_2
REMARK    2  A    between atoms: O_2  and  C_3
REMARK    3  A    between atoms: C_8  and  C_9
REMARK    4  A    between atoms: C_12  and  C_13
REMARK    5  A    between atoms: C_13  and  C_14
REMARK    6  A    between atoms: N_24  and  C_25
REMARK                            x       y       z     vdW  Elec       q    Type
REMARK                         _______ _______ _______ _____ _____    ______ ____
ROOT
ATOM      1  C   UNL     1       2.411   7.654  18.152  0.00  0.00    +0.000 A 
ATOM      2  N   UNL     1       2.614   8.521  17.170  0.00  0.00    +0.000 NA
ATOM      3  N   UNL     1       2.046   9.719  17.498  0.00  0.00    +0.000 NA
ATOM      4  C   UNL     1       1.497   9.592  18.685  0.00  0.00    +0.000 A 
ATOM      5  N   UNL     1       1.746   8.328  19.160  0.00  0.00    +0.000 N 
ATOM      6  C   UNL     1       1.451   7.852  20.481  0.00  0.00    +0.000 C 
ENDROOT
BRANCH   1  12
ATOM      7  C   UNL     1       4.272   5.893  18.013  0.00  0.00    +0.000 A 
ATOM      8  C   UNL     1       4.632   4.535  18.054  0.00  0.00    +0.000 A 
ATOM      9  C   UNL     1       3.662   3.539  18.197  0.00  0.00    +0.000 A 
ATOM     10  C   UNL     1       2.331   3.894  18.323  0.00  0.00    +0.000 A 
ATOM     11  C   UNL     1       1.967   5.241  18.293  0.00  0.00    +0.000 A 
ATOM     12  C   UNL     1       2.920   6.270  18.132  0.00  0.00    +0.000 A 
BRANCH   7  14
ATOM     13  C   UNL     1       6.282   6.616  17.006  0.00  0.00    +0.000 C 
ATOM     14  O   UNL     1       5.238   6.866  17.949  0.00  0.00    +0.000 OA
ENDBRANCH   7  14
ENDBRANCH   1  12
BRANCH   4  15
ATOM     15  C   UNL     1       0.773  10.772  19.372  0.00  0.00    +0.000 C 
ATOM     16  C   UNL     1       1.050  10.779  20.918  0.00  0.00    +0.000 C 
ATOM     17  C   UNL     1       1.180  12.310  20.830  0.00  0.00    +0.000 C 
ATOM     18  C   UNL     1       1.513  12.149  19.331  0.00  0.00    +0.000 C 
BRANCH  15  19
ATOM     19  C   UNL     1      -0.773  10.748  18.855  0.00  0.00    +0.000 A 
ATOM     20  C   UNL     1      -1.193   9.957  17.765  0.00  0.00    +0.000 A 
ATOM     21  C   UNL     1      -2.468  10.087  17.197  0.00  0.00    +0.000 A 
ATOM     22  C   UNL     1      -3.358  11.027  17.701  0.00  0.00    +0.000 A 
ATOM     23 CL   UNL     1      -4.880  11.276  16.942  0.00  0.00    +0.000 Cl
ATOM     24  C   UNL     1      -3.012  11.782  18.810  0.00  0.00    +0.000 A 
ATOM     25  C   UNL     1      -1.751  11.616  19.391  0.00  0.00    +0.000 A 
ENDBRANCH  15  19
ENDBRANCH   4  15
TORSDOF 4
ENDMDL
MODEL 6
REMARK VINA RESULT:      -7.0      0.373      1.022
REMARK  Name = 
REMARK  6 active torsions:
REMARK  status: ('A' for Active; 'I' for Inactive)
REMARK    1  A    between atoms: C_1  and  O_2
REMARK    2  A    between atoms: O_2  and  C_3
REMARK    3  A    between atoms: C_8  and  C_9
REMARK    4  A    between atoms: C_12  and  C_13
REMARK    5  A    between atoms: C_13  and  C_14
REMARK    6  A    between atoms: N_24  and  C_25
REMARK                            x       y       z     vdW  Elec       q    Type
REMARK                         _______ _______ _______ _____ _____    ______ ____
ROOT
ATOM      1  C   UNL     1       1.747   7.394  20.135  0.00  0.00    +0.000 A 
ATOM      2  N   UNL     1       1.262   7.967  21.228  0.00  0.00    +0.000 NA
ATOM      3  N   UNL     1       0.988   9.280  20.968  0.00  0.00    +0.000 NA
ATOM      4  C   UNL     1       1.300   9.515  19.714  0.00  0.00    +0.000 A 
ATOM      5  N   UNL     1       1.730   8.346  19.134  0.00  0.00    +0.000 N 
ATOM      6  C   UNL     1       2.011   8.153  17.739  0.00  0.00    +0.000 C 
ENDROOT
BRANCH   1  12
ATOM      7  C   UNL     1       3.345   5.462  19.588  0.00  0.00    +0.000 A 
ATOM      8  C   UNL     1       3.595   4.079  19.616  0.00  0.00    +0.000 A 
ATOM      9  C   UNL     1       2.635   3.186  20.099  0.00  0.00    +0.000 A 
ATOM     10  C   UNL     1       1.430   3.669  20.577  0.00  0.00    +0.000 A 
ATOM     11  C   UNL     1       1.178   5.041  20.562  0.00  0.00    +0.000 A 
ATOM     12  C   UNL     1       2.120   5.969  20.064  0.00  0.00    +0.000 A 
BRANCH   7  14
ATOM     13  C   UNL     1       5.119   5.882  18.087  0.00  0.00    +0.000 C 
ATOM     14  O   UNL     1       4.322   6.337  19.183  0.00  0.00    +0.000 OA
ENDBRANCH   7  14
ENDBRANCH   1  12
BRANCH   4  15
ATOM     15  C   UNL     1       1.100  10.909  19.078  0.00  0.00    +0.000 C 
ATOM     16  C   UNL     1       1.668  12.039  20.007  0.00  0.00    +0.000 C 
ATOM     17  C   UNL     1       2.216  12.725  18.744  0.00  0.00    +0.000 C 
ATOM     18  C   UNL     1       2.184  11.351  18.041  0.00  0.00    +0.000 C 
BRANCH  15  19
ATOM     19  C   UNL     1      -0.457  10.996  18.602  0.00  0.00    +0.000 A 
ATOM     20  C   UNL     1      -1.365  11.922  19.156  0.00  0.00    +0.000 A 
ATOM     21  C   UNL     1      -2.742  11.863  18.894  0.00  0.00    +0.000 A 
ATOM     22  C   UNL     1      -3.249  10.864  18.074  0.00  0.00    +0.000 A 
ATOM     23 CL   UNL     1      -4.945  10.712  17.837  0.00  0.00    +0.000 Cl
ATOM     24  C   UNL     1      -2.387   9.972  17.457  0.00  0.00    +0.000 A 
ATOM     25  C   UNL     1      -1.012  10.063  17.697  0.00  0.00    +0.000 A 
ENDBRANCH  15  19
ENDBRANCH   4  15
TORSDOF 4
ENDMDL
MODEL 7
REMARK VINA RESULT:      -7.0      1.608      2.815
REMARK  Name = 
REMARK  6 active torsions:
REMARK  status: ('A' for Active; 'I' for Inactive)
REMARK    1  A    between atoms: C_1  and  O_2
REMARK    2  A    between atoms: O_2  and  C_3
REMARK    3  A    between atoms: C_8  and  C_9
REMARK    4  A    between atoms: C_12  and  C_13
REMARK    5  A    between atoms: C_13  and  C_14
REMARK    6  A    between atoms: N_24  and  C_25
REMARK                            x       y       z     vdW  Elec       q    Type
REMARK                         _______ _______ _______ _____ _____    ______ ____
ROOT
ATOM      1  C   UNL     1       2.734   7.764  18.015  0.00  0.00    +0.000 A 
ATOM      2  N   UNL     1       2.674   8.793  17.181  0.00  0.00    +0.000 NA
ATOM      3  N   UNL     1       1.846   9.749  17.697  0.00  0.00    +0.000 NA
ATOM      4  C   UNL     1       1.399   9.312  18.852  0.00  0.00    +0.000 A 
ATOM      5  N   UNL     1       1.971   8.092  19.120  0.00  0.00    +0.000 N 
ATOM      6  C   UNL     1       1.860   7.363  20.352  0.00  0.00    +0.000 C 
ENDROOT
BRANCH   1  12
ATOM      7  C   UNL     1       3.097   5.243  17.704  0.00  0.00    +0.000 A 
ATOM      8  C   UNL     1       3.990   4.195  17.420  0.00  0.00    +0.000 A 
ATOM      9  C   UNL     1       5.349   4.445  17.216  0.00  0.00    +0.000 A 
ATOM     10  C   UNL     1       5.822   5.744  17.273  0.00  0.00    +0.000 A 
ATOM     11  C   UNL     1       4.941   6.791  17.545  0.00  0.00    +0.000 A 
ATOM     12  C   UNL     1       3.564   6.570  17.773  0.00  0.00    +0.000 A 
BRANCH   7  14
ATOM     13  C   UNL     1       1.420   3.678  18.264  0.00  0.00    +0.000 C 
ATOM     14  O   UNL     1       1.753   4.997  17.827  0.00  0.00    +0.000 OA
ENDBRANCH   7  14
ENDBRANCH   1  12
BRANCH   4  15
ATOM     15  C   UNL     1       0.441  10.156  19.722  0.00  0.00    +0.000 C 
ATOM     16  C   UNL     1       0.345   9.579  21.178  0.00  0.00    +0.000 C 
ATOM     17  C   UNL     1       0.367  11.029  21.694  0.00  0.00    +0.000 C 
ATOM     18  C   UNL     1       1.056  11.437  20.375  0.00  0.00    +0.000 C 
BRANCH  15  19
ATOM     19  C   UNL     1      -0.932  10.351  18.865  0.00  0.00    +0.000 A 
ATOM     20  C   UNL     1      -1.189   9.635  17.677  0.00  0.00    +0.000 A 
ATOM     21  C   UNL     1      -2.270   9.946  16.839  0.00  0.00    +0.000 A 
ATOM     22  C   UNL     1      -3.120  10.994  17.164  0.00  0.00    +0.000 A 
ATOM     23 CL   UNL     1      -4.379  11.458  16.088  0.00  0.00    +0.000 Cl
ATOM     24  C   UNL     1      -2.944  11.684  18.353  0.00  0.00    +0.000 A 
ATOM     25  C   UNL     1      -1.885  11.341  19.199  0.00  0.00    +0.000 A 
ENDBRANCH  15  19
ENDBRANCH   4  15
TORSDOF 4
ENDMDL
MODEL 8
REMARK VINA RESULT:      -6.9      0.926      1.459
REMARK  Name = 
REMARK  6 active torsions:
REMARK  status: ('A' for Active; 'I' for Inactive)
REMARK    1  A    between atoms: C_1  and  O_2
REMARK    2  A    between atoms: O_2  and  C_3
REMARK    3  A    between atoms: C_8  and  C_9
REMARK    4  A    between atoms: C_12  and  C_13
REMARK    5  A    between atoms: C_13  and  C_14
REMARK    6  A    between atoms: N_24  and  C_25
REMARK                            x       y       z     vdW  Elec       q    Type
REMARK                         _______ _______ _______ _____ _____    ______ ____
ROOT
ATOM      1  C   UNL     1       2.161   7.624  18.958  0.00  0.00    +0.000 A 
ATOM      2  N   UNL     1       2.516   8.138  17.788  0.00  0.00    +0.000 NA
ATOM      3  N   UNL     1       2.063   9.424  17.702  0.00  0.00    +0.000 NA
ATOM      4  C   UNL     1       1.434   9.704  18.820  0.00  0.00    +0.000 A 
ATOM      5  N   UNL     1       1.515   8.622  19.662  0.00  0.00    +0.000 N 
ATOM      6  C   UNL     1       1.091   8.589  21.033  0.00  0.00    +0.000 C 
ENDROOT
BRANCH   1  12
ATOM      7  C   UNL     1       3.666   5.546  18.991  0.00  0.00    +0.000 A 
ATOM      8  C   UNL     1       3.914   4.263  19.510  0.00  0.00    +0.000 A 
ATOM      9  C   UNL     1       3.025   3.668  20.409  0.00  0.00    +0.000 A 
ATOM     10  C   UNL     1       1.895   4.358  20.811  0.00  0.00    +0.000 A 
ATOM     11  C   UNL     1       1.648   5.636  20.309  0.00  0.00    +0.000 A 
ATOM     12  C   UNL     1       2.517   6.258  19.386  0.00  0.00    +0.000 A 
BRANCH   7  14
ATOM     13  C   UNL     1       4.833   5.468  16.940  0.00  0.00    +0.000 C 
ATOM     14  O   UNL     1       4.583   6.152  18.170  0.00  0.00    +0.000 OA
ENDBRANCH   7  14
ENDBRANCH   1  12
BRANCH   4  15
ATOM     15  C   UNL     1       0.803  11.093  19.068  0.00  0.00    +0.000 C 
ATOM     16  C   UNL     1       1.232  11.666  20.465  0.00  0.00    +0.000 C 
ATOM     17  C   UNL     1       1.380  13.042  19.793  0.00  0.00    +0.000 C 
ATOM     18  C   UNL     1       1.560  12.311  18.445  0.00  0.00    +0.000 C 
BRANCH  15  19
ATOM     19  C   UNL     1      -0.787  10.961  18.731  0.00  0.00    +0.000 A 
ATOM     20  C   UNL     1      -1.276  10.110  17.717  0.00  0.00    +0.000 A 
ATOM     21  C   UNL     1      -2.612  10.146  17.295  0.00  0.00    +0.000 A 
ATOM     22  C   UNL     1      -3.497  11.048  17.872  0.00  0.00    +0.000 A 
ATOM     23 CL   UNL     1      -5.108  11.180  17.285  0.00  0.00    +0.000 Cl
ATOM     24  C   UNL     1      -3.077  11.858  18.914  0.00  0.00    +0.000 A 
ATOM     25  C   UNL     1      -1.751  11.787  19.352  0.00  0.00    +0.000 A 
ENDBRANCH  15  19
ENDBRANCH   4  15
TORSDOF 4
ENDMDL
MODEL 9
REMARK VINA RESULT:      -6.9      2.139      3.242
REMARK  Name = 
REMARK  6 active torsions:
REMARK  status: ('A' for Active; 'I' for Inactive)
REMARK    1  A    between atoms: C_1  and  O_2
REMARK    2  A    between atoms: O_2  and  C_3
REMARK    3  A    between atoms: C_8  and  C_9
REMARK    4  A    between atoms: C_12  and  C_13
REMARK    5  A    between atoms: C_13  and  C_14
REMARK    6  A    between atoms: N_24  and  C_25
REMARK                            x       y       z     vdW  Elec       q    Type
REMARK                         _______ _______ _______ _____ _____    ______ ____
ROOT
ATOM      1  C   UNL     1       2.466   6.652  18.799  0.00  0.00    +0.000 A 
ATOM      2  N   UNL     1       2.649   7.756  18.089  0.00  0.00    +0.000 NA
ATOM      3  N   UNL     1       2.082   8.814  18.741  0.00  0.00    +0.000 NA
ATOM      4  C   UNL     1       1.554   8.363  19.856  0.00  0.00    +0.000 A 
ATOM      5  N   UNL     1       1.816   7.019  19.963  0.00  0.00    +0.000 N 
ATOM      6  C   UNL     1       1.545   6.197  21.108  0.00  0.00    +0.000 C 
ENDROOT
BRANCH   1  12
ATOM      7  C   UNL     1       4.257   4.817  18.694  0.00  0.00    +0.000 A 
ATOM      8  C   UNL     1       4.609   3.519  18.286  0.00  0.00    +0.000 A 
ATOM      9  C   UNL     1       3.713   2.725  17.566  0.00  0.00    +0.000 A 
ATOM     10  C   UNL     1       2.453   3.213  17.269  0.00  0.00    +0.000 A 
ATOM     11  C   UNL     1       2.092   4.497  17.680  0.00  0.00    +0.000 A 
ATOM     12  C   UNL     1       2.981   5.331  18.393  0.00  0.00    +0.000 A 
BRANCH   7  14
ATOM     13  C   UNL     1       6.491   5.470  19.092  0.00  0.00    +0.000 C 
ATOM     14  O   UNL     1       5.115   5.560  19.466  0.00  0.00    +0.000 OA
ENDBRANCH   7  14
ENDBRANCH   1  12
BRANCH   4  15
ATOM     15  C   UNL     1       0.837   9.303  20.851  0.00  0.00    +0.000 C 
ATOM     16  C   UNL     1      -0.435   8.615  21.460  0.00  0.00    +0.000 C 
ATOM     17  C   UNL     1      -0.049   9.230  22.817  0.00  0.00    +0.000 C 
ATOM     18  C   UNL     1       1.405   9.323  22.307  0.00  0.00    +0.000 C 
BRANCH  15  19
ATOM     19  C   UNL     1       0.666  10.743  20.105  0.00  0.00    +0.000 A 
ATOM     20  C   UNL     1       1.471  11.858  20.421  0.00  0.00    +0.000 A 
ATOM     21  C   UNL     1       1.194  13.141  19.928  0.00  0.00    +0.000 A 
ATOM     22  C   UNL     1       0.090  13.345  19.110  0.00  0.00    +0.000 A 
ATOM     23 CL   UNL     1      -0.326  14.931  18.593  0.00  0.00    +0.000 Cl
ATOM     24  C   UNL     1      -0.692  12.269  18.723  0.00  0.00    +0.000 A 
ATOM     25  C   UNL     1      -0.384  10.988  19.191  0.00  0.00    +0.000 A 
ENDBRANCH  15  19
ENDBRANCH   4  15
TORSDOF 4
ENDMDL
