MODEL 1
REMARK VINA RESULT:      -9.2      0.000      0.000
REMARK  Name = 
REMARK  8 active torsions:
REMARK  status: ('A' for Active; 'I' for Inactive)
REMARK    1  A    between atoms: C_5  and  C_6
REMARK    2  A    between atoms: C_6  and  O_7
REMARK    3  A    between atoms: C_6  and  C_27
REMARK    4  A    between atoms: O_7  and  C_8
REMARK    5  A    between atoms: C_8  and  C_9
REMARK    6  A    between atoms: C_9  and  N_10
REMARK    7  A    between atoms: N_13  and  C_14
REMARK    8  A    between atoms: C_14  and  C_15
REMARK                            x       y       z     vdW  Elec       q    Type
REMARK                         _______ _______ _______ _____ _____    ______ ____
ROOT
ATOM      1  C   UNL     1       2.142   9.751  17.916  0.00  0.00    +0.000 C 
ENDROOT
BRANCH   1   2
ATOM      2  N   UNL     1       1.450  10.359  19.061  0.00  0.00    +0.000 NA
ATOM      3  C   UNL     1       0.060   9.902  19.200  0.00  0.00    +0.000 C 
ATOM      4  C   UNL     1      -0.548  10.427  20.524  0.00  0.00    +0.000 C 
ATOM      5  N   UNL     1      -0.478  11.894  20.718  0.00  0.00    +0.000 NA
ATOM      6  C   UNL     1       0.906  12.336  20.458  0.00  0.00    +0.000 C 
ATOM      7  C   UNL     1       1.497  11.830  19.122  0.00  0.00    +0.000 C 
BRANCH   5   8
ATOM      8  C   UNL     1      -1.415  12.635  19.859  0.00  0.00    +0.000 C 
BRANCH   8   9
ATOM      9  C   UNL     1      -2.849  12.567  20.329  0.00  0.00    +0.000 A 
ATOM     10  C   UNL     1      -3.869  12.264  19.421  0.00  0.00    +0.000 A 
ATOM     11  C   UNL     1      -5.198  12.233  19.840  0.00  0.00    +0.000 A 
ATOM     12  C   UNL     1      -5.538  12.499  21.179  0.00  0.00    +0.000 A 
ATOM     13  C   UNL     1      -6.872  12.487  21.603  0.00  0.00    +0.000 A 
ATOM     14  C   UNL     1      -7.195  12.737  22.936  0.00  0.00    +0.000 A 
ATOM     15  C   UNL     1      -6.186  12.999  23.858  0.00  0.00    +0.000 A 
ATOM     16  C   UNL     1      -4.855  13.023  23.448  0.00  0.00    +0.000 A 
ATOM     17  C   UNL     1      -4.513  12.781  22.105  0.00  0.00    +0.000 A 
ATOM     18  C   UNL     1      -3.181  12.820  21.669  0.00  0.00    +0.000 A 
ENDBRANCH   8   9
ENDBRANCH   5   8
ENDBRANCH   1   2
BRANCH   1  19
ATOM     19  C   UNL     1       1.819   8.257  17.825  0.00  0.00    +0.000 C 
BRANCH  19  20
ATOM     20  O   UNL     1       2.794   7.416  18.447  0.00  0.00    +0.000 OA
BRANCH  20  21
ATOM     21  C   UNL     1       2.772   6.053  17.938  0.00  0.00    +0.000 C 
BRANCH  21  26
ATOM     22  F   UNL     1       0.936   2.423  21.902  0.00  0.00    +0.000 F 
ATOM     23  C   UNL     1       1.331   3.299  20.970  0.00  0.00    +0.000 A 
ATOM     24  C   UNL     1       2.126   4.380  21.333  0.00  0.00    +0.000 A 
ATOM     25  C   UNL     1       2.559   5.285  20.358  0.00  0.00    +0.000 A 
ATOM     26  C   UNL     1       2.194   5.114  19.011  0.00  0.00    +0.000 A 
ATOM     27  C   UNL     1       1.388   4.002  18.678  0.00  0.00    +0.000 A 
ATOM     28  C   UNL     1       0.956   3.103  19.651  0.00  0.00    +0.000 A 
ENDBRANCH  21  26
BRANCH  21  29
ATOM     29  C   UNL     1       4.121   5.648  17.316  0.00  0.00    +0.000 A 
ATOM     30  C   UNL     1       5.209   6.539  17.262  0.00  0.00    +0.000 A 
ATOM     31  C   UNL     1       6.347   6.233  16.515  0.00  0.00    +0.000 A 
ATOM     32  C   UNL     1       6.437   5.005  15.874  0.00  0.00    +0.000 A 
ATOM     33  F   UNL     1       7.503   4.734  15.111  0.00  0.00    +0.000 F 
ATOM     34  C   UNL     1       5.435   4.056  16.011  0.00  0.00    +0.000 A 
ATOM     35  C   UNL     1       4.293   4.366  16.752  0.00  0.00    +0.000 A 
ENDBRANCH  21  29
ENDBRANCH  20  21
ENDBRANCH  19  20
ENDBRANCH   1  19
TORSDOF 8
ENDMDL
MODEL 2
REMARK VINA RESULT:      -8.8      0.836      2.036
REMARK  Name = 
REMARK  8 active torsions:
REMARK  status: ('A' for Active; 'I' for Inactive)
REMARK    1  A    between atoms: C_5  and  C_6
REMARK    2  A    between atoms: C_6  and  O_7
REMARK    3  A    between atoms: C_6  and  C_27
REMARK    4  A    between atoms: O_7  and  C_8
REMARK    5  A    between atoms: C_8  and  C_9
REMARK    6  A    between atoms: C_9  and  N_10
REMARK    7  A    between atoms: N_13  and  C_14
REMARK    8  A    between atoms: C_14  and  C_15
REMARK                            x       y       z     vdW  Elec       q    Type
REMARK                         _______ _______ _______ _____ _____    ______ ____
ROOT
ATOM      1  C   UNL     1       2.145   9.476  17.966  0.00  0.00    +0.000 C 
ENDROOT
BRANCH   1   2
ATOM      2  N   UNL     1       1.046  10.415  18.232  0.00  0.00    +0.000 NA
ATOM      3  C   UNL     1       1.477  11.606  18.979  0.00  0.00    +0.000 C 
ATOM      4  C   UNL     1       0.323  12.636  19.059  0.00  0.00    +0.000 C 
ATOM      5  N   UNL     1      -0.950  12.123  19.618  0.00  0.00    +0.000 NA
ATOM      6  C   UNL     1      -1.293  10.866  18.925  0.00  0.00    +0.000 C 
ATOM      7  C   UNL     1      -0.145   9.832  18.872  0.00  0.00    +0.000 C 
BRANCH   5   8
ATOM      8  C   UNL     1      -0.893  11.900  21.071  0.00  0.00    +0.000 C 
BRANCH   8   9
ATOM      9  C   UNL     1      -2.168  12.272  21.790  0.00  0.00    +0.000 A 
ATOM     10  C   UNL     1      -2.253  12.135  23.180  0.00  0.00    +0.000 A 
ATOM     11  C   UNL     1      -3.438  12.445  23.847  0.00  0.00    +0.000 A 
ATOM     12  C   UNL     1      -4.564  12.901  23.139  0.00  0.00    +0.000 A 
ATOM     13  C   UNL     1      -5.762  13.197  23.800  0.00  0.00    +0.000 A 
ATOM     14  C   UNL     1      -6.868  13.664  23.090  0.00  0.00    +0.000 A 
ATOM     15  C   UNL     1      -6.783  13.843  21.713  0.00  0.00    +0.000 A 
ATOM     16  C   UNL     1      -5.600  13.545  21.041  0.00  0.00    +0.000 A 
ATOM     17  C   UNL     1      -4.479  13.065  21.742  0.00  0.00    +0.000 A 
ATOM     18  C   UNL     1      -3.285  12.740  21.081  0.00  0.00    +0.000 A 
ENDBRANCH   8   9
ENDBRANCH   5   8
ENDBRANCH   1   2
BRANCH   1  19
ATOM     19  C   UNL     1       1.832   8.101  18.561  0.00  0.00    +0.000 C 
BRANCH  19  20
ATOM     20  O   UNL     1       2.975   7.251  18.686  0.00  0.00    +0.000 OA
BRANCH  20  21
ATOM     21  C   UNL     1       2.782   5.950  18.064  0.00  0.00    +0.000 C 
BRANCH  21  26
ATOM     22  F   UNL     1       0.851   2.377  22.035  0.00  0.00    +0.000 F 
ATOM     23  C   UNL     1       1.341   3.195  21.095  0.00  0.00    +0.000 A 
ATOM     24  C   UNL     1       0.885   3.090  19.786  0.00  0.00    +0.000 A 
ATOM     25  C   UNL     1       1.379   3.956  18.805  0.00  0.00    +0.000 A 
ATOM     26  C   UNL     1       2.336   4.933  19.129  0.00  0.00    +0.000 A 
ATOM     27  C   UNL     1       2.774   5.013  20.471  0.00  0.00    +0.000 A 
ATOM     28  C   UNL     1       2.283   4.147  21.446  0.00  0.00    +0.000 A 
ENDBRANCH  21  26
BRANCH  21  29
ATOM     29  C   UNL     1       3.979   5.549  17.182  0.00  0.00    +0.000 A 
ATOM     30  C   UNL     1       4.242   4.205  16.857  0.00  0.00    +0.000 A 
ATOM     31  C   UNL     1       5.438   3.841  16.236  0.00  0.00    +0.000 A 
ATOM     32  C   UNL     1       6.349   4.823  15.873  0.00  0.00    +0.000 A 
ATOM     33  F   UNL     1       7.520   4.470  15.329  0.00  0.00    +0.000 F 
ATOM     34  C   UNL     1       6.062   6.166  16.068  0.00  0.00    +0.000 A 
ATOM     35  C   UNL     1       4.869   6.529  16.696  0.00  0.00    +0.000 A 
ENDBRANCH  21  29
ENDBRANCH  20  21
ENDBRANCH  19  20
ENDBRANCH   1  19
TORSDOF 8
ENDMDL
MODEL 3
REMARK VINA RESULT:      -8.8      0.711      1.637
REMARK  Name = 
REMARK  8 active torsions:
REMARK  status: ('A' for Active; 'I' for Inactive)
REMARK    1  A    between atoms: C_5  and  C_6
REMARK    2  A    between atoms: C_6  and  O_7
REMARK    3  A    between atoms: C_6  and  C_27
REMARK    4  A    between atoms: O_7  and  C_8
REMARK    5  A    between atoms: C_8  and  C_9
REMARK    6  A    between atoms: C_9  and  N_10
REMARK    7  A    between atoms: N_13  and  C_14
REMARK    8  A    between atoms: C_14  and  C_15
REMARK                            x       y       z     vdW  Elec       q    Type
REMARK                         _______ _______ _______ _____ _____    ______ ____
ROOT
ATOM      1  C   UNL     1       1.164   8.838  18.045  0.00  0.00    +0.000 C 
ENDROOT
BRANCH   1   2
ATOM      2  N   UNL     1       1.137   9.804  19.152  0.00  0.00    +0.000 NA
ATOM      3  C   UNL     1      -0.068   9.687  19.986  0.00  0.00    +0.000 C 
ATOM      4  C   UNL     1       0.054  10.594  21.236  0.00  0.00    +0.000 C 
ATOM      5  N   UNL     1       0.339  12.022  20.960  0.00  0.00    +0.000 NA
ATOM      6  C   UNL     1       1.482  12.099  20.029  0.00  0.00    +0.000 C 
ATOM      7  C   UNL     1       1.342  11.211  18.770  0.00  0.00    +0.000 C 
BRANCH   5   8
ATOM      8  C   UNL     1      -0.815  12.744  20.405  0.00  0.00    +0.000 C 
BRANCH   8   9
ATOM      9  C   UNL     1      -1.990  12.824  21.351  0.00  0.00    +0.000 A 
ATOM     10  C   UNL     1      -1.774  13.020  22.719  0.00  0.00    +0.000 A 
ATOM     11  C   UNL     1      -2.852  13.062  23.603  0.00  0.00    +0.000 A 
ATOM     12  C   UNL     1      -4.171  12.913  23.138  0.00  0.00    +0.000 A 
ATOM     13  C   UNL     1      -5.256  12.937  24.021  0.00  0.00    +0.000 A 
ATOM     14  C   UNL     1      -6.561  12.804  23.547  0.00  0.00    +0.000 A 
ATOM     15  C   UNL     1      -6.791  12.650  22.183  0.00  0.00    +0.000 A 
ATOM     16  C   UNL     1      -5.720  12.615  21.293  0.00  0.00    +0.000 A 
ATOM     17  C   UNL     1      -4.398  12.740  21.757  0.00  0.00    +0.000 A 
ATOM     18  C   UNL     1      -3.305  12.689  20.879  0.00  0.00    +0.000 A 
ENDBRANCH   8   9
ENDBRANCH   5   8
ENDBRANCH   1   2
BRANCH   1  19
ATOM     19  C   UNL     1       2.597   8.370  17.776  0.00  0.00    +0.000 C 
BRANCH  19  20
ATOM     20  O   UNL     1       3.039   7.328  18.651  0.00  0.00    +0.000 OA
BRANCH  20  21
ATOM     21  C   UNL     1       2.964   6.009  18.041  0.00  0.00    +0.000 C 
BRANCH  21  26
ATOM     22  F   UNL     1       0.738   2.458  21.875  0.00  0.00    +0.000 F 
ATOM     23  C   UNL     1       1.298   3.270  20.969  0.00  0.00    +0.000 A 
ATOM     24  C   UNL     1       0.910   3.185  19.637  0.00  0.00    +0.000 A 
ATOM     25  C   UNL     1       1.477   4.045  18.690  0.00  0.00    +0.000 A 
ATOM     26  C   UNL     1       2.438   4.996  19.073  0.00  0.00    +0.000 A 
ATOM     27  C   UNL     1       2.804   5.057  20.437  0.00  0.00    +0.000 A 
ATOM     28  C   UNL     1       2.241   4.197  21.378  0.00  0.00    +0.000 A 
ENDBRANCH  21  26
BRANCH  21  29
ATOM     29  C   UNL     1       4.266   5.637  17.308  0.00  0.00    +0.000 A 
ATOM     30  C   UNL     1       5.380   6.498  17.295  0.00  0.00    +0.000 A 
ATOM     31  C   UNL     1       6.469   6.245  16.460  0.00  0.00    +0.000 A 
ATOM     32  C   UNL     1       6.485   5.095  15.683  0.00  0.00    +0.000 A 
ATOM     33  F   UNL     1       7.502   4.881  14.840  0.00  0.00    +0.000 F 
ATOM     34  C   UNL     1       5.458   4.165  15.768  0.00  0.00    +0.000 A 
ATOM     35  C   UNL     1       4.366   4.423  16.597  0.00  0.00    +0.000 A 
ENDBRANCH  21  29
ENDBRANCH  20  21
ENDBRANCH  19  20
ENDBRANCH   1  19
TORSDOF 8
ENDMDL
MODEL 4
REMARK VINA RESULT:      -8.7      0.622      1.021
REMARK  Name = 
REMARK  8 active torsions:
REMARK  status: ('A' for Active; 'I' for Inactive)
REMARK    1  A    between atoms: C_5  and  C_6
REMARK    2  A    between atoms: C_6  and  O_7
REMARK    3  A    between atoms: C_6  and  C_27
REMARK    4  A    between atoms: O_7  and  C_8
REMARK    5  A    between atoms: C_8  and  C_9
REMARK    6  A    between atoms: C_9  and  N_10
REMARK    7  A    between atoms: N_13  and  C_14
REMARK    8  A    between atoms: C_14  and  C_15
REMARK                            x       y       z     vdW  Elec       q    Type
REMARK                         _______ _______ _______ _____ _____    ______ ____
ROOT
ATOM      1  C   UNL     1       1.652   9.047  18.386  0.00  0.00    +0.000 C 
ENDROOT
BRANCH   1   2
ATOM      2  N   UNL     1       1.159  10.077  19.312  0.00  0.00    +0.000 NA
ATOM      3  C   UNL     1      -0.234   9.858  19.725  0.00  0.00    +0.000 C 
ATOM      4  C   UNL     1      -0.627  10.859  20.840  0.00  0.00    +0.000 C 
ATOM      5  N   UNL     1      -0.417  12.289  20.512  0.00  0.00    +0.000 NA
ATOM      6  C   UNL     1       0.954  12.454  19.992  0.00  0.00    +0.000 C 
ATOM      7  C   UNL     1       1.331  11.468  18.862  0.00  0.00    +0.000 C 
BRANCH   5   8
ATOM      8  C   UNL     1      -1.393  12.807  19.542  0.00  0.00    +0.000 C 
BRANCH   8   9
ATOM      9  C   UNL     1      -2.830  12.610  19.964  0.00  0.00    +0.000 A 
ATOM     10  C   UNL     1      -3.762  12.098  19.055  0.00  0.00    +0.000 A 
ATOM     11  C   UNL     1      -5.097  11.945  19.428  0.00  0.00    +0.000 A 
ATOM     12  C   UNL     1      -5.529  12.297  20.719  0.00  0.00    +0.000 A 
ATOM     13  C   UNL     1      -6.871  12.162  21.094  0.00  0.00    +0.000 A 
ATOM     14  C   UNL     1      -7.285  12.500  22.382  0.00  0.00    +0.000 A 
ATOM     15  C   UNL     1      -6.360  12.972  23.308  0.00  0.00    +0.000 A 
ATOM     16  C   UNL     1      -5.022  13.119  22.946  0.00  0.00    +0.000 A 
ATOM     17  C   UNL     1      -4.591  12.791  21.648  0.00  0.00    +0.000 A 
ATOM     18  C   UNL     1      -3.253  12.950  21.258  0.00  0.00    +0.000 A 
ENDBRANCH   8   9
ENDBRANCH   5   8
ENDBRANCH   1   2
BRANCH   1  19
ATOM     19  C   UNL     1       2.069   7.790  19.154  0.00  0.00    +0.000 C 
BRANCH  19  20
ATOM     20  O   UNL     1       3.248   7.164  18.641  0.00  0.00    +0.000 OA
BRANCH  20  21
ATOM     21  C   UNL     1       2.976   5.885  18.002  0.00  0.00    +0.000 C 
BRANCH  21  26
ATOM     22  F   UNL     1       0.822   2.404  21.940  0.00  0.00    +0.000 F 
ATOM     23  C   UNL     1       1.362   3.196  21.005  0.00  0.00    +0.000 A 
ATOM     24  C   UNL     1       0.850   3.184  19.713  0.00  0.00    +0.000 A 
ATOM     25  C   UNL     1       1.397   4.026  18.739  0.00  0.00    +0.000 A 
ATOM     26  C   UNL     1       2.464   4.885  19.054  0.00  0.00    +0.000 A 
ATOM     27  C   UNL     1       2.956   4.874  20.379  0.00  0.00    +0.000 A 
ATOM     28  C   UNL     1       2.411   4.032  21.347  0.00  0.00    +0.000 A 
ENDBRANCH  21  26
BRANCH  21  29
ATOM     29  C   UNL     1       4.148   5.420  17.118  0.00  0.00    +0.000 A 
ATOM     30  C   UNL     1       4.889   6.326  16.335  0.00  0.00    +0.000 A 
ATOM     31  C   UNL     1       5.805   5.868  15.387  0.00  0.00    +0.000 A 
ATOM     32  C   UNL     1       6.039   4.505  15.262  0.00  0.00    +0.000 A 
ATOM     33  F   UNL     1       6.875   4.062  14.315  0.00  0.00    +0.000 F 
ATOM     34  C   UNL     1       5.416   3.596  16.105  0.00  0.00    +0.000 A 
ATOM     35  C   UNL     1       4.494   4.055  17.048  0.00  0.00    +0.000 A 
ENDBRANCH  21  29
ENDBRANCH  20  21
ENDBRANCH  19  20
ENDBRANCH   1  19
TORSDOF 8
ENDMDL
MODEL 5
REMARK VINA RESULT:      -8.7      2.033      4.793
REMARK  Name = 
REMARK  8 active torsions:
REMARK  status: ('A' for Active; 'I' for Inactive)
REMARK    1  A    between atoms: C_5  and  C_6
REMARK    2  A    between atoms: C_6  and  O_7
REMARK    3  A    between atoms: C_6  and  C_27
REMARK    4  A    between atoms: O_7  and  C_8
REMARK    5  A    between atoms: C_8  and  C_9
REMARK    6  A    between atoms: C_9  and  N_10
REMARK    7  A    between atoms: N_13  and  C_14
REMARK    8  A    between atoms: C_14  and  C_15
REMARK                            x       y       z     vdW  Elec       q    Type
REMARK                         _______ _______ _______ _____ _____    ______ ____
ROOT
ATOM      1  C   UNL     1       1.436   9.165  17.906  0.00  0.00    +0.000 C 
ENDROOT
BRANCH   1   2
ATOM      2  N   UNL     1       1.400   9.901  19.177  0.00  0.00    +0.000 NA
ATOM      3  C   UNL     1       0.796   9.127  20.271  0.00  0.00    +0.000 C 
ATOM      4  C   UNL     1       0.961   9.878  21.616  0.00  0.00    +0.000 C 
ATOM      5  N   UNL     1       0.445  11.267  21.635  0.00  0.00    +0.000 NA
ATOM      6  C   UNL     1       0.979  11.982  20.460  0.00  0.00    +0.000 C 
ATOM      7  C   UNL     1       0.787  11.239  19.118  0.00  0.00    +0.000 C 
BRANCH   5   8
ATOM      8  C   UNL     1      -1.024  11.336  21.645  0.00  0.00    +0.000 C 
BRANCH   8   9
ATOM      9  C   UNL     1      -1.576  12.373  22.595  0.00  0.00    +0.000 A 
ATOM     10  C   UNL     1      -2.809  12.163  23.221  0.00  0.00    +0.000 A 
ATOM     11  C   UNL     1      -3.340  13.130  24.073  0.00  0.00    +0.000 A 
ATOM     12  C   UNL     1      -2.647  14.329  24.321  0.00  0.00    +0.000 A 
ATOM     13  C   UNL     1      -3.182  15.312  25.162  0.00  0.00    +0.000 A 
ATOM     14  C   UNL     1      -2.479  16.491  25.413  0.00  0.00    +0.000 A 
ATOM     15  C   UNL     1      -1.233  16.693  24.828  0.00  0.00    +0.000 A 
ATOM     16  C   UNL     1      -0.692  15.727  23.983  0.00  0.00    +0.000 A 
ATOM     17  C   UNL     1      -1.393  14.537  23.713  0.00  0.00    +0.000 A 
ATOM     18  C   UNL     1      -0.874  13.561  22.849  0.00  0.00    +0.000 A 
ENDBRANCH   8   9
ENDBRANCH   5   8
ENDBRANCH   1   2
BRANCH   1  19
ATOM     19  C   UNL     1       2.723   8.344  17.797  0.00  0.00    +0.000 C 
BRANCH  19  20
ATOM     20  O   UNL     1       2.522   6.934  17.925  0.00  0.00    +0.000 OA
BRANCH  20  21
ATOM     21  C   UNL     1       3.631   6.263  18.588  0.00  0.00    +0.000 C 
BRANCH  21  26
ATOM     22  F   UNL     1       7.586   4.513  14.905  0.00  0.00    +0.000 F 
ATOM     23  C   UNL     1       6.648   4.961  15.749  0.00  0.00    +0.000 A 
ATOM     24  C   UNL     1       5.352   4.465  15.665  0.00  0.00    +0.000 A 
ATOM     25  C   UNL     1       4.374   4.913  16.559  0.00  0.00    +0.000 A 
ATOM     26  C   UNL     1       4.688   5.866  17.543  0.00  0.00    +0.000 A 
ATOM     27  C   UNL     1       6.016   6.346  17.602  0.00  0.00    +0.000 A 
ATOM     28  C   UNL     1       6.988   5.900  16.709  0.00  0.00    +0.000 A 
ENDBRANCH  21  26
BRANCH  21  29
ATOM     29  C   UNL     1       3.147   5.154  19.540  0.00  0.00    +0.000 A 
ATOM     30  C   UNL     1       3.879   3.965  19.725  0.00  0.00    +0.000 A 
ATOM     31  C   UNL     1       3.330   2.889  20.423  0.00  0.00    +0.000 A 
ATOM     32  C   UNL     1       2.075   3.016  21.003  0.00  0.00    +0.000 A 
ATOM     33  F   UNL     1       1.524   1.966  21.624  0.00  0.00    +0.000 F 
ATOM     34  C   UNL     1       1.383   4.217  20.944  0.00  0.00    +0.000 A 
ATOM     35  C   UNL     1       1.929   5.290  20.238  0.00  0.00    +0.000 A 
ENDBRANCH  21  29
ENDBRANCH  20  21
ENDBRANCH  19  20
ENDBRANCH   1  19
TORSDOF 8
ENDMDL
MODEL 6
REMARK VINA RESULT:      -8.6      2.972      6.079
REMARK  Name = 
REMARK  8 active torsions:
REMARK  status: ('A' for Active; 'I' for Inactive)
REMARK    1  A    between atoms: C_5  and  C_6
REMARK    2  A    between atoms: C_6  and  O_7
REMARK    3  A    between atoms: C_6  and  C_27
REMARK    4  A    between atoms: O_7  and  C_8
REMARK    5  A    between atoms: C_8  and  C_9
REMARK    6  A    between atoms: C_9  and  N_10
REMARK    7  A    between atoms: N_13  and  C_14
REMARK    8  A    between atoms: C_14  and  C_15
REMARK                            x       y       z     vdW  Elec       q    Type
REMARK                         _______ _______ _______ _____ _____    ______ ____
ROOT
ATOM      1  C   UNL     1       1.840   8.266  19.766  0.00  0.00    +0.000 C 
ENDROOT
BRANCH   1   2
ATOM      2  N   UNL     1       0.921   9.412  19.780  0.00  0.00    +0.000 NA
ATOM      3  C   UNL     1       1.305  10.468  18.833  0.00  0.00    +0.000 C 
ATOM      4  C   UNL     1       0.200  11.551  18.759  0.00  0.00    +0.000 C 
ATOM      5  N   UNL     1      -0.187  12.154  20.056  0.00  0.00    +0.000 NA
ATOM      6  C   UNL     1      -0.455  11.066  21.017  0.00  0.00    +0.000 C 
ATOM      7  C   UNL     1       0.664  10.002  21.105  0.00  0.00    +0.000 C 
BRANCH   5   8
ATOM      8  C   UNL     1       0.833  13.065  20.596  0.00  0.00    +0.000 C 
BRANCH   8   9
ATOM      9  C   UNL     1       1.105  14.260  19.712  0.00  0.00    +0.000 A 
ATOM     10  C   UNL     1       2.410  14.535  19.289  0.00  0.00    +0.000 A 
ATOM     11  C   UNL     1       2.673  15.654  18.501  0.00  0.00    +0.000 A 
ATOM     12  C   UNL     1       1.637  16.523  18.115  0.00  0.00    +0.000 A 
ATOM     13  C   UNL     1       1.896  17.658  17.338  0.00  0.00    +0.000 A 
ATOM     14  C   UNL     1       0.858  18.504  16.948  0.00  0.00    +0.000 A 
ATOM     15  C   UNL     1      -0.449  18.219  17.328  0.00  0.00    +0.000 A 
ATOM     16  C   UNL     1      -0.721  17.097  18.108  0.00  0.00    +0.000 A 
ATOM     17  C   UNL     1       0.316  16.239  18.517  0.00  0.00    +0.000 A 
ATOM     18  C   UNL     1       0.065  15.116  19.318  0.00  0.00    +0.000 A 
ENDBRANCH   8   9
ENDBRANCH   5   8
ENDBRANCH   1   2
BRANCH   1  19
ATOM     19  C   UNL     1       2.371   8.020  18.350  0.00  0.00    +0.000 C 
BRANCH  19  20
ATOM     20  O   UNL     1       2.251   6.664  17.915  0.00  0.00    +0.000 OA
BRANCH  20  21
ATOM     21  C   UNL     1       3.317   5.812  18.421  0.00  0.00    +0.000 C 
BRANCH  21  26
ATOM     22  F   UNL     1       6.512   4.422  13.935  0.00  0.00    +0.000 F 
ATOM     23  C   UNL     1       5.793   4.742  15.018  0.00  0.00    +0.000 A 
ATOM     24  C   UNL     1       5.600   6.079  15.346  0.00  0.00    +0.000 A 
ATOM     25  C   UNL     1       4.832   6.419  16.464  0.00  0.00    +0.000 A 
ATOM     26  C   UNL     1       4.252   5.419  17.264  0.00  0.00    +0.000 A 
ATOM     27  C   UNL     1       4.466   4.070  16.899  0.00  0.00    +0.000 A 
ATOM     28  C   UNL     1       5.234   3.734  15.786  0.00  0.00    +0.000 A 
ENDBRANCH  21  26
BRANCH  21  29
ATOM     29  C   UNL     1       2.775   4.665  19.294  0.00  0.00    +0.000 A 
ATOM     30  C   UNL     1       1.401   4.527  19.564  0.00  0.00    +0.000 A 
ATOM     31  C   UNL     1       0.948   3.615  20.518  0.00  0.00    +0.000 A 
ATOM     32  C   UNL     1       1.858   2.786  21.160  0.00  0.00    +0.000 A 
ATOM     33  F   UNL     1       1.432   1.951  22.116  0.00  0.00    +0.000 F 
ATOM     34  C   UNL     1       3.204   2.813  20.825  0.00  0.00    +0.000 A 
ATOM     35  C   UNL     1       3.657   3.731  19.877  0.00  0.00    +0.000 A 
ENDBRANCH  21  29
ENDBRANCH  20  21
ENDBRANCH  19  20
ENDBRANCH   1  19
TORSDOF 8
ENDMDL
MODEL 7
REMARK VINA RESULT:      -8.6      1.545      4.490
REMARK  Name = 
REMARK  8 active torsions:
REMARK  status: ('A' for Active; 'I' for Inactive)
REMARK    1  A    between atoms: C_5  and  C_6
REMARK    2  A    between atoms: C_6  and  O_7
REMARK    3  A    between atoms: C_6  and  C_27
REMARK    4  A    between atoms: O_7  and  C_8
REMARK    5  A    between atoms: C_8  and  C_9
REMARK    6  A    between atoms: C_9  and  N_10
REMARK    7  A    between atoms: N_13  and  C_14
REMARK    8  A    between atoms: C_14  and  C_15
REMARK                            x       y       z     vdW  Elec       q    Type
REMARK                         _______ _______ _______ _____ _____    ______ ____
ROOT
ATOM      1  C   UNL     1       1.590   9.047  17.904  0.00  0.00    +0.000 C 
ENDROOT
BRANCH   1   2
ATOM      2  N   UNL     1       1.487   9.870  19.117  0.00  0.00    +0.000 NA
ATOM      3  C   UNL     1       0.860   9.160  20.241  0.00  0.00    +0.000 C 
ATOM      4  C   UNL     1       0.955  10.010  21.533  0.00  0.00    +0.000 C 
ATOM      5  N   UNL     1       0.404  11.382  21.433  0.00  0.00    +0.000 NA
ATOM      6  C   UNL     1       0.964  12.026  20.229  0.00  0.00    +0.000 C 
ATOM      7  C   UNL     1       0.843  11.183  18.938  0.00  0.00    +0.000 C 
BRANCH   5   8
ATOM      8  C   UNL     1      -1.066  11.410  21.383  0.00  0.00    +0.000 C 
BRANCH   8   9
ATOM      9  C   UNL     1      -1.677  12.535  22.185  0.00  0.00    +0.000 A 
ATOM     10  C   UNL     1      -0.873  13.312  23.026  0.00  0.00    +0.000 A 
ATOM     11  C   UNL     1      -1.435  14.330  23.794  0.00  0.00    +0.000 A 
ATOM     12  C   UNL     1      -2.815  14.597  23.737  0.00  0.00    +0.000 A 
ATOM     13  C   UNL     1      -3.389  15.606  24.519  0.00  0.00    +0.000 A 
ATOM     14  C   UNL     1      -4.756  15.872  24.443  0.00  0.00    +0.000 A 
ATOM     15  C   UNL     1      -5.560  15.133  23.580  0.00  0.00    +0.000 A 
ATOM     16  C   UNL     1      -5.003  14.119  22.802  0.00  0.00    +0.000 A 
ATOM     17  C   UNL     1      -3.628  13.834  22.875  0.00  0.00    +0.000 A 
ATOM     18  C   UNL     1      -3.052  12.805  22.114  0.00  0.00    +0.000 A 
ENDBRANCH   8   9
ENDBRANCH   5   8
ENDBRANCH   1   2
BRANCH   1  19
ATOM     19  C   UNL     1       2.833   8.154  17.965  0.00  0.00    +0.000 C 
BRANCH  19  20
ATOM     20  O   UNL     1       2.541   6.755  17.943  0.00  0.00    +0.000 OA
BRANCH  20  21
ATOM     21  C   UNL     1       3.563   5.954  18.601  0.00  0.00    +0.000 C 
BRANCH  21  26
ATOM     22  F   UNL     1       7.534   4.879  14.685  0.00  0.00    +0.000 F 
ATOM     23  C   UNL     1       6.608   5.096  15.627  0.00  0.00    +0.000 A 
ATOM     24  C   UNL     1       6.886   5.962  16.678  0.00  0.00    +0.000 A 
ATOM     25  C   UNL     1       5.914   6.208  17.654  0.00  0.00    +0.000 A 
ATOM     26  C   UNL     1       4.657   5.584  17.584  0.00  0.00    +0.000 A 
ATOM     27  C   UNL     1       4.408   4.713  16.500  0.00  0.00    +0.000 A 
ATOM     28  C   UNL     1       5.379   4.467  15.530  0.00  0.00    +0.000 A 
ENDBRANCH  21  26
BRANCH  21  29
ATOM     29  C   UNL     1       2.954   4.797  19.415  0.00  0.00    +0.000 A 
ATOM     30  C   UNL     1       1.617   4.823  19.852  0.00  0.00    +0.000 A 
ATOM     31  C   UNL     1       1.143   3.875  20.759  0.00  0.00    +0.000 A 
ATOM     32  C   UNL     1       1.980   2.853  21.183  0.00  0.00    +0.000 A 
ATOM     33  F   UNL     1       1.545   1.976  22.097  0.00  0.00    +0.000 F 
ATOM     34  C   UNL     1       3.266   2.729  20.675  0.00  0.00    +0.000 A 
ATOM     35  C   UNL     1       3.741   3.683  19.774  0.00  0.00    +0.000 A 
ENDBRANCH  21  29
ENDBRANCH  20  21
ENDBRANCH  19  20
ENDBRANCH   1  19
TORSDOF 8
ENDMDL
MODEL 8
REMARK VINA RESULT:      -8.6      1.588      2.240
REMARK  Name = 
REMARK  8 active torsions:
REMARK  status: ('A' for Active; 'I' for Inactive)
REMARK    1  A    between atoms: C_5  and  C_6
REMARK    2  A    between atoms: C_6  and  O_7
REMARK    3  A    between atoms: C_6  and  C_27
REMARK    4  A    between atoms: O_7  and  C_8
REMARK    5  A    between atoms: C_8  and  C_9
REMARK    6  A    between atoms: C_9  and  N_10
REMARK    7  A    between atoms: N_13  and  C_14
REMARK    8  A    between atoms: C_14  and  C_15
REMARK                            x       y       z     vdW  Elec       q    Type
REMARK                         _______ _______ _______ _____ _____    ______ ____
ROOT
ATOM      1  C   UNL     1       1.621   8.665  17.625  0.00  0.00    +0.000 C 
ENDROOT
BRANCH   1   2
ATOM      2  N   UNL     1       1.124  10.016  17.919  0.00  0.00    +0.000 NA
ATOM      3  C   UNL     1       2.188  10.941  18.337  0.00  0.00    +0.000 C 
ATOM      4  C   UNL     1       1.634  12.383  18.445  0.00  0.00    +0.000 C 
ATOM      5  N   UNL     1       0.451  12.546  19.323  0.00  0.00    +0.000 NA
ATOM      6  C   UNL     1      -0.550  11.527  18.953  0.00  0.00    +0.000 C 
ATOM      7  C   UNL     1       0.004  10.086  18.872  0.00  0.00    +0.000 C 
BRANCH   5   8
ATOM      8  C   UNL     1       0.777  12.439  20.753  0.00  0.00    +0.000 C 
BRANCH   8   9
ATOM      9  C   UNL     1      -0.437  12.458  21.653  0.00  0.00    +0.000 A 
ATOM     10  C   UNL     1      -0.714  11.362  22.477  0.00  0.00    +0.000 A 
ATOM     11  C   UNL     1      -1.850  11.359  23.285  0.00  0.00    +0.000 A 
ATOM     12  C   UNL     1      -2.734  12.453  23.290  0.00  0.00    +0.000 A 
ATOM     13  C   UNL     1      -3.885  12.450  24.086  0.00  0.00    +0.000 A 
ATOM     14  C   UNL     1      -4.746  13.547  24.094  0.00  0.00    +0.000 A 
ATOM     15  C   UNL     1      -4.459  14.660  23.310  0.00  0.00    +0.000 A 
ATOM     16  C   UNL     1      -3.321  14.674  22.507  0.00  0.00    +0.000 A 
ATOM     17  C   UNL     1      -2.448  13.571  22.481  0.00  0.00    +0.000 A 
ATOM     18  C   UNL     1      -1.307  13.559  21.664  0.00  0.00    +0.000 A 
ENDBRANCH   8   9
ENDBRANCH   5   8
ENDBRANCH   1   2
BRANCH   1  19
ATOM     19  C   UNL     1       2.093   7.975  18.908  0.00  0.00    +0.000 C 
BRANCH  19  20
ATOM     20  O   UNL     1       3.316   7.251  18.759  0.00  0.00    +0.000 OA
BRANCH  20  21
ATOM     21  C   UNL     1       3.135   5.965  18.101  0.00  0.00    +0.000 C 
BRANCH  21  26
ATOM     22  F   UNL     1       0.724   2.447  21.853  0.00  0.00    +0.000 F 
ATOM     23  C   UNL     1       1.324   3.247  20.963  0.00  0.00    +0.000 A 
ATOM     24  C   UNL     1       0.868   3.282  19.651  0.00  0.00    +0.000 A 
ATOM     25  C   UNL     1       1.477   4.132  18.722  0.00  0.00    +0.000 A 
ATOM     26  C   UNL     1       2.552   4.954  19.104  0.00  0.00    +0.000 A 
ATOM     27  C   UNL     1       2.987   4.896  20.448  0.00  0.00    +0.000 A 
ATOM     28  C   UNL     1       2.380   4.046  21.370  0.00  0.00    +0.000 A 
ENDBRANCH  21  26
BRANCH  21  29
ATOM     29  C   UNL     1       4.394   5.528  17.330  0.00  0.00    +0.000 A 
ATOM     30  C   UNL     1       5.568   6.304  17.330  0.00  0.00    +0.000 A 
ATOM     31  C   UNL     1       6.622   6.006  16.466  0.00  0.00    +0.000 A 
ATOM     32  C   UNL     1       6.540   4.890  15.644  0.00  0.00    +0.000 A 
ATOM     33  F   UNL     1       7.526   4.636  14.774  0.00  0.00    +0.000 F 
ATOM     34  C   UNL     1       5.449   4.036  15.711  0.00  0.00    +0.000 A 
ATOM     35  C   UNL     1       4.392   4.340  16.570  0.00  0.00    +0.000 A 
ENDBRANCH  21  29
ENDBRANCH  20  21
ENDBRANCH  19  20
ENDBRANCH   1  19
TORSDOF 8
ENDMDL
MODEL 9
REMARK VINA RESULT:      -8.6      1.881      2.480
REMARK  Name = 
REMARK  8 active torsions:
REMARK  status: ('A' for Active; 'I' for Inactive)
REMARK    1  A    between atoms: C_5  and  C_6
REMARK    2  A    between atoms: C_6  and  O_7
REMARK    3  A    between atoms: C_6  and  C_27
REMARK    4  A    between atoms: O_7  and  C_8
REMARK    5  A    between atoms: C_8  and  C_9
REMARK    6  A    between atoms: C_9  and  N_10
REMARK    7  A    between atoms: N_13  and  C_14
REMARK    8  A    between atoms: C_14  and  C_15
REMARK                            x       y       z     vdW  Elec       q    Type
REMARK                         _______ _______ _______ _____ _____    ______ ____
ROOT
ATOM      1  C   UNL     1       0.891   9.019  18.213  0.00  0.00    +0.000 C 
ENDROOT
BRANCH   1   2
ATOM      2  N   UNL     1       0.904   9.939  19.359  0.00  0.00    +0.000 NA
ATOM      3  C   UNL     1       0.765   9.250  20.650  0.00  0.00    +0.000 C 
ATOM      4  C   UNL     1       0.978  10.247  21.817  0.00  0.00    +0.000 C 
ATOM      5  N   UNL     1       0.112  11.449  21.791  0.00  0.00    +0.000 NA
ATOM      6  C   UNL     1       0.186  12.051  20.446  0.00  0.00    +0.000 C 
ATOM      7  C   UNL     1      -0.054  11.056  19.287  0.00  0.00    +0.000 C 
BRANCH   5   8
ATOM      8  C   UNL     1      -1.287  11.160  22.140  0.00  0.00    +0.000 C 
BRANCH   8   9
ATOM      9  C   UNL     1      -2.012  12.332  22.758  0.00  0.00    +0.000 A 
ATOM     10  C   UNL     1      -3.392  12.476  22.578  0.00  0.00    +0.000 A 
ATOM     11  C   UNL     1      -4.062  13.573  23.117  0.00  0.00    +0.000 A 
ATOM     12  C   UNL     1      -3.367  14.551  23.852  0.00  0.00    +0.000 A 
ATOM     13  C   UNL     1      -4.030  15.664  24.381  0.00  0.00    +0.000 A 
ATOM     14  C   UNL     1      -3.334  16.619  25.122  0.00  0.00    +0.000 A 
ATOM     15  C   UNL     1      -1.969  16.466  25.343  0.00  0.00    +0.000 A 
ATOM     16  C   UNL     1      -1.294  15.367  24.814  0.00  0.00    +0.000 A 
ATOM     17  C   UNL     1      -1.981  14.400  24.058  0.00  0.00    +0.000 A 
ATOM     18  C   UNL     1      -1.316  13.298  23.502  0.00  0.00    +0.000 A 
ENDBRANCH   8   9
ENDBRANCH   5   8
ENDBRANCH   1   2
BRANCH   1  19
ATOM     19  C   UNL     1       2.319   8.727  17.743  0.00  0.00    +0.000 C 
BRANCH  19  20
ATOM     20  O   UNL     1       2.993   7.737  18.524  0.00  0.00    +0.000 OA
BRANCH  20  21
ATOM     21  C   UNL     1       2.966   6.418  17.909  0.00  0.00    +0.000 C 
BRANCH  21  26
ATOM     22  F   UNL     1       0.765   2.599  21.492  0.00  0.00    +0.000 F 
ATOM     23  C   UNL     1       1.244   3.516  20.642  0.00  0.00    +0.000 A 
ATOM     24  C   UNL     1       1.871   4.653  21.138  0.00  0.00    +0.000 A 
ATOM     25  C   UNL     1       2.392   5.604  20.254  0.00  0.00    +0.000 A 
ATOM     26  C   UNL     1       2.287   5.421  18.865  0.00  0.00    +0.000 A 
ATOM     27  C   UNL     1       1.648   4.251  18.395  0.00  0.00    +0.000 A 
ATOM     28  C   UNL     1       1.126   3.307  19.278  0.00  0.00    +0.000 A 
ENDBRANCH  21  26
BRANCH  21  29
ATOM     29  C   UNL     1       4.343   6.014  17.349  0.00  0.00    +0.000 A 
ATOM     30  C   UNL     1       4.748   6.374  16.051  0.00  0.00    +0.000 A 
ATOM     31  C   UNL     1       5.901   5.829  15.485  0.00  0.00    +0.000 A 
ATOM     32  C   UNL     1       6.695   4.974  16.236  0.00  0.00    +0.000 A 
ATOM     33  F   UNL     1       7.770   4.406  15.676  0.00  0.00    +0.000 F 
ATOM     34  C   UNL     1       6.388   4.698  17.561  0.00  0.00    +0.000 A 
ATOM     35  C   UNL     1       5.230   5.237  18.123  0.00  0.00    +0.000 A 
ENDBRANCH  21  29
ENDBRANCH  20  21
ENDBRANCH  19  20
ENDBRANCH   1  19
TORSDOF 8
ENDMDL
