MODEL 1
REMARK VINA RESULT:      -7.7      0.000      0.000
REMARK  Name = 
REMARK  10 active torsions:
REMARK  status: ('A' for Active; 'I' for Inactive)
REMARK    1  A    between atoms: C_1  and  C_2
REMARK    2  A    between atoms: C_2  and  N_3
REMARK    3  A    between atoms: C_2  and  C_14
REMARK    4  A    between atoms: N_3  and  C_4
REMARK    5  A    between atoms: C_4  and  C_5
REMARK    6  A    between atoms: C_5  and  C_6
REMARK    7  A    between atoms: C_6  and  C_7
REMARK    8  A    between atoms: C_7  and  C_8
REMARK    9  A    between atoms: C_14  and  O_15
REMARK   10  A    between atoms: C_14  and  C_16
REMARK                            x       y       z     vdW  Elec       q    Type
REMARK                         _______ _______ _______ _____ _____    ______ ____
ROOT
ATOM      1  C   UNL     1       6.873   4.586  15.370  0.00  0.00    +0.000 C 
ATOM      2  C   UNL     1       6.672   4.411  16.882  0.00  0.00    +0.000 C 
ENDROOT
BRANCH   2   3
ATOM      3  N   UNL     1       7.769   5.056  17.641  0.00  0.00    +0.000 NA
ATOM      4  H   UNL     1       8.485   5.352  16.978  0.00  0.00    +0.000 HD
BRANCH   3   5
ATOM      5  C   UNL     1       7.377   6.193  18.474  0.00  0.00    +0.000 C 
BRANCH   5   6
ATOM      6  C   UNL     1       7.609   7.539  17.766  0.00  0.00    +0.000 C 
BRANCH   6   7
ATOM      7  C   UNL     1       8.667   8.421  18.447  0.00  0.00    +0.000 C 
BRANCH   7   8
ATOM      8  C   UNL     1       8.419   9.916  18.198  0.00  0.00    +0.000 C 
BRANCH   8   9
ATOM      9  C   UNL     1       9.483  10.770  18.826  0.00  0.00    +0.000 A 
ATOM     10  C   UNL     1      10.570  11.241  18.070  0.00  0.00    +0.000 A 
ATOM     11  C   UNL     1      11.562  12.007  18.679  0.00  0.00    +0.000 A 
ATOM     12  C   UNL     1      11.483  12.307  20.039  0.00  0.00    +0.000 A 
ATOM     13  C   UNL     1      10.418  11.837  20.802  0.00  0.00    +0.000 A 
ATOM     14  C   UNL     1       9.425  11.071  20.197  0.00  0.00    +0.000 A 
ENDBRANCH   8   9
ENDBRANCH   7   8
ENDBRANCH   6   7
ENDBRANCH   5   6
ENDBRANCH   3   5
ENDBRANCH   2   3
BRANCH   2  15
ATOM     15  C   UNL     1       5.199   4.771  17.298  0.00  0.00    +0.000 C 
BRANCH  15  16
ATOM     16  C   UNL     1       4.478   3.723  18.138  0.00  0.00    +0.000 A 
ATOM     17  C   UNL     1       5.081   3.127  19.268  0.00  0.00    +0.000 A 
ATOM     18  C   UNL     1       4.294   2.577  20.278  0.00  0.00    +0.000 A 
ATOM     19  C   UNL     1       2.925   2.610  20.103  0.00  0.00    +0.000 A 
ATOM     20  C   UNL     1       2.344   2.923  18.869  0.00  0.00    +0.000 A 
ATOM     21  C   UNL     1       3.121   3.483  17.870  0.00  0.00    +0.000 A 
ATOM     22  C   UNL     1       0.843   2.936  18.923  0.00  0.00    +0.000 C 
ATOM     23  C   UNL     1       0.602   3.705  20.218  0.00  0.00    +0.000 C 
ATOM     24  S   UNL     1       1.709   2.832  21.397  0.00  0.00    +0.000 S 
ENDBRANCH  15  16
BRANCH  15  25
ATOM     25  O   UNL     1       4.427   5.061  16.136  0.00  0.00    +0.000 OA
ATOM     26  H   UNL     1       4.898   4.692  15.372  0.00  0.00    +0.000 HD
ENDBRANCH  15  25
ENDBRANCH   2  15
TORSDOF 9
ENDMDL
MODEL 2
REMARK VINA RESULT:      -7.4      4.599      6.837
REMARK  Name = 
REMARK  10 active torsions:
REMARK  status: ('A' for Active; 'I' for Inactive)
REMARK    1  A    between atoms: C_1  and  C_2
REMARK    2  A    between atoms: C_2  and  N_3
REMARK    3  A    between atoms: C_2  and  C_14
REMARK    4  A    between atoms: N_3  and  C_4
REMARK    5  A    between atoms: C_4  and  C_5
REMARK    6  A    between atoms: C_5  and  C_6
REMARK    7  A    between atoms: C_6  and  C_7
REMARK    8  A    between atoms: C_7  and  C_8
REMARK    9  A    between atoms: C_14  and  O_15
REMARK   10  A    between atoms: C_14  and  C_16
REMARK                            x       y       z     vdW  Elec       q    Type
REMARK                         _______ _______ _______ _____ _____    ______ ____
ROOT
ATOM      1  C   UNL     1       3.633   2.837  17.970  0.00  0.00    +0.000 C 
ATOM      2  C   UNL     1       3.453   3.803  19.150  0.00  0.00    +0.000 C 
ENDROOT
BRANCH   2   3
ATOM      3  N   UNL     1       4.709   4.542  19.426  0.00  0.00    +0.000 NA
ATOM      4  H   UNL     1       5.088   4.207  20.310  0.00  0.00    +0.000 HD
BRANCH   3   5
ATOM      5  C   UNL     1       5.737   4.450  18.389  0.00  0.00    +0.000 C 
BRANCH   5   6
ATOM      6  C   UNL     1       6.111   5.828  17.817  0.00  0.00    +0.000 C 
BRANCH   6   7
ATOM      7  C   UNL     1       5.725   6.010  16.341  0.00  0.00    +0.000 C 
BRANCH   7   8
ATOM      8  C   UNL     1       5.330   4.683  15.679  0.00  0.00    +0.000 C 
BRANCH   8   9
ATOM      9  C   UNL     1       6.027   4.486  14.364  0.00  0.00    +0.000 A 
ATOM     10  C   UNL     1       7.192   5.205  14.049  0.00  0.00    +0.000 A 
ATOM     11  C   UNL     1       7.807   5.029  12.811  0.00  0.00    +0.000 A 
ATOM     12  C   UNL     1       7.269   4.142  11.880  0.00  0.00    +0.000 A 
ATOM     13  C   UNL     1       6.110   3.430  12.174  0.00  0.00    +0.000 A 
ATOM     14  C   UNL     1       5.493   3.604  13.409  0.00  0.00    +0.000 A 
ENDBRANCH   8   9
ENDBRANCH   7   8
ENDBRANCH   6   7
ENDBRANCH   5   6
ENDBRANCH   3   5
ENDBRANCH   2   3
BRANCH   2  15
ATOM     15  C   UNL     1       2.140   4.651  18.987  0.00  0.00    +0.000 C 
BRANCH  15  16
ATOM     16  C   UNL     1       2.306   6.158  19.144  0.00  0.00    +0.000 A 
ATOM     17  C   UNL     1       2.577   6.999  18.042  0.00  0.00    +0.000 A 
ATOM     18  C   UNL     1       2.248   8.352  18.090  0.00  0.00    +0.000 A 
ATOM     19  C   UNL     1       1.690   8.826  19.261  0.00  0.00    +0.000 A 
ATOM     20  C   UNL     1       1.697   8.075  20.441  0.00  0.00    +0.000 A 
ATOM     21  C   UNL     1       2.009   6.728  20.393  0.00  0.00    +0.000 A 
ATOM     22  C   UNL     1       1.001   8.773  21.575  0.00  0.00    +0.000 C 
ATOM     23  C   UNL     1      -0.255   9.287  20.878  0.00  0.00    +0.000 C 
ATOM     24  S   UNL     1       0.439  10.101  19.383  0.00  0.00    +0.000 S 
ENDBRANCH  15  16
BRANCH  15  25
ATOM     25  O   UNL     1       1.149   4.186  19.901  0.00  0.00    +0.000 OA
ATOM     26  H   UNL     1       0.389   3.883  19.379  0.00  0.00    +0.000 HD
ENDBRANCH  15  25
ENDBRANCH   2  15
TORSDOF 9
ENDMDL
MODEL 3
REMARK VINA RESULT:      -7.4      1.505      2.036
REMARK  Name = 
REMARK  10 active torsions:
REMARK  status: ('A' for Active; 'I' for Inactive)
REMARK    1  A    between atoms: C_1  and  C_2
REMARK    2  A    between atoms: C_2  and  N_3
REMARK    3  A    between atoms: C_2  and  C_14
REMARK    4  A    between atoms: N_3  and  C_4
REMARK    5  A    between atoms: C_4  and  C_5
REMARK    6  A    between atoms: C_5  and  C_6
REMARK    7  A    between atoms: C_6  and  C_7
REMARK    8  A    between atoms: C_7  and  C_8
REMARK    9  A    between atoms: C_14  and  O_15
REMARK   10  A    between atoms: C_14  and  C_16
REMARK                            x       y       z     vdW  Elec       q    Type
REMARK                         _______ _______ _______ _____ _____    ______ ____
ROOT
ATOM      1  C   UNL     1       5.568   4.214  16.843  0.00  0.00    +0.000 C 
ATOM      2  C   UNL     1       5.917   5.368  17.793  0.00  0.00    +0.000 C 
ENDROOT
BRANCH   2   3
ATOM      3  N   UNL     1       7.253   5.929  17.478  0.00  0.00    +0.000 NA
ATOM      4  H   UNL     1       7.223   6.312  16.533  0.00  0.00    +0.000 HD
BRANCH   3   5
ATOM      5  C   UNL     1       7.742   6.953  18.402  0.00  0.00    +0.000 C 
BRANCH   5   6
ATOM      6  C   UNL     1       7.971   8.304  17.703  0.00  0.00    +0.000 C 
BRANCH   6   7
ATOM      7  C   UNL     1       8.618   9.365  18.607  0.00  0.00    +0.000 C 
BRANCH   7   8
ATOM      8  C   UNL     1       8.772  10.716  17.894  0.00  0.00    +0.000 C 
BRANCH   8   9
ATOM      9  C   UNL     1      10.000  11.451  18.348  0.00  0.00    +0.000 A 
ATOM     10  C   UNL     1      10.730  12.258  17.460  0.00  0.00    +0.000 A 
ATOM     11  C   UNL     1      11.883  12.907  17.894  0.00  0.00    +0.000 A 
ATOM     12  C   UNL     1      12.320  12.757  19.210  0.00  0.00    +0.000 A 
ATOM     13  C   UNL     1      11.613  11.952  20.098  0.00  0.00    +0.000 A 
ATOM     14  C   UNL     1      10.461  11.302  19.668  0.00  0.00    +0.000 A 
ENDBRANCH   8   9
ENDBRANCH   7   8
ENDBRANCH   6   7
ENDBRANCH   5   6
ENDBRANCH   3   5
ENDBRANCH   2   3
BRANCH   2  15
ATOM     15  C   UNL     1       4.720   6.380  17.912  0.00  0.00    +0.000 C 
BRANCH  15  16
ATOM     16  C   UNL     1       3.407   5.790  18.410  0.00  0.00    +0.000 A 
ATOM     17  C   UNL     1       2.437   5.270  17.524  0.00  0.00    +0.000 A 
ATOM     18  C   UNL     1       1.513   4.325  17.967  0.00  0.00    +0.000 A 
ATOM     19  C   UNL     1       1.569   3.960  19.298  0.00  0.00    +0.000 A 
ATOM     20  C   UNL     1       2.319   4.682  20.232  0.00  0.00    +0.000 A 
ATOM     21  C   UNL     1       3.247   5.611  19.794  0.00  0.00    +0.000 A 
ATOM     22  C   UNL     1       2.263   4.082  21.608  0.00  0.00    +0.000 C 
ATOM     23  C   UNL     1       2.460   2.602  21.291  0.00  0.00    +0.000 C 
ATOM     24  S   UNL     1       1.232   2.328  19.951  0.00  0.00    +0.000 S 
ENDBRANCH  15  16
BRANCH  15  25
ATOM     25  O   UNL     1       4.506   7.022  16.657  0.00  0.00    +0.000 OA
ATOM     26  H   UNL     1       3.557   6.968  16.459  0.00  0.00    +0.000 HD
ENDBRANCH  15  25
ENDBRANCH   2  15
TORSDOF 9
ENDMDL
MODEL 4
REMARK VINA RESULT:      -7.4      1.153      1.440
REMARK  Name = 
REMARK  10 active torsions:
REMARK  status: ('A' for Active; 'I' for Inactive)
REMARK    1  A    between atoms: C_1  and  C_2
REMARK    2  A    between atoms: C_2  and  N_3
REMARK    3  A    between atoms: C_2  and  C_14
REMARK    4  A    between atoms: N_3  and  C_4
REMARK    5  A    between atoms: C_4  and  C_5
REMARK    6  A    between atoms: C_5  and  C_6
REMARK    7  A    between atoms: C_6  and  C_7
REMARK    8  A    between atoms: C_7  and  C_8
REMARK    9  A    between atoms: C_14  and  O_15
REMARK   10  A    between atoms: C_14  and  C_16
REMARK                            x       y       z     vdW  Elec       q    Type
REMARK                         _______ _______ _______ _____ _____    ______ ____
ROOT
ATOM      1  C   UNL     1       3.891   6.523  17.578  0.00  0.00    +0.000 C 
ATOM      2  C   UNL     1       4.907   5.959  16.575  0.00  0.00    +0.000 C 
ENDROOT
BRANCH   2   3
ATOM      3  N   UNL     1       6.293   6.297  16.979  0.00  0.00    +0.000 NA
ATOM      4  H   UNL     1       6.920   6.029  16.221  0.00  0.00    +0.000 HD
BRANCH   3   5
ATOM      5  C   UNL     1       6.524   7.699  17.329  0.00  0.00    +0.000 C 
BRANCH   5   6
ATOM      6  C   UNL     1       7.943   7.935  17.874  0.00  0.00    +0.000 C 
BRANCH   6   7
ATOM      7  C   UNL     1       8.309   9.420  18.021  0.00  0.00    +0.000 C 
BRANCH   7   8
ATOM      8  C   UNL     1       9.223   9.673  19.229  0.00  0.00    +0.000 C 
BRANCH   8   9
ATOM      9  C   UNL     1       9.949  10.983  19.115  0.00  0.00    +0.000 A 
ATOM     10  C   UNL     1      10.442  11.431  17.878  0.00  0.00    +0.000 A 
ATOM     11  C   UNL     1      11.138  12.635  17.800  0.00  0.00    +0.000 A 
ATOM     12  C   UNL     1      11.352  13.398  18.948  0.00  0.00    +0.000 A 
ATOM     13  C   UNL     1      10.879  12.961  20.181  0.00  0.00    +0.000 A 
ATOM     14  C   UNL     1      10.183  11.759  20.263  0.00  0.00    +0.000 A 
ENDBRANCH   8   9
ENDBRANCH   7   8
ENDBRANCH   6   7
ENDBRANCH   5   6
ENDBRANCH   3   5
ENDBRANCH   2   3
BRANCH   2  15
ATOM     15  C   UNL     1       4.599   4.452  16.250  0.00  0.00    +0.000 C 
BRANCH  15  16
ATOM     16  C   UNL     1       4.183   3.594  17.439  0.00  0.00    +0.000 A 
ATOM     17  C   UNL     1       5.040   3.379  18.541  0.00  0.00    +0.000 A 
ATOM     18  C   UNL     1       4.514   3.036  19.785  0.00  0.00    +0.000 A 
ATOM     19  C   UNL     1       3.145   2.884  19.874  0.00  0.00    +0.000 A 
ATOM     20  C   UNL     1       2.334   2.803  18.736  0.00  0.00    +0.000 A 
ATOM     21  C   UNL     1       2.850   3.156  17.502  0.00  0.00    +0.000 A 
ATOM     22  C   UNL     1       0.875   2.678  19.073  0.00  0.00    +0.000 C 
ATOM     23  C   UNL     1       0.735   3.731  20.168  0.00  0.00    +0.000 C 
ATOM     24  S   UNL     1       2.133   3.314  21.287  0.00  0.00    +0.000 S 
ENDBRANCH  15  16
BRANCH  15  25
ATOM     25  O   UNL     1       5.724   3.859  15.607  0.00  0.00    +0.000 OA
ATOM     26  H   UNL     1       6.127   4.535  15.038  0.00  0.00    +0.000 HD
ENDBRANCH  15  25
ENDBRANCH   2  15
TORSDOF 9
ENDMDL
MODEL 5
REMARK VINA RESULT:      -7.3      1.493      1.884
REMARK  Name = 
REMARK  10 active torsions:
REMARK  status: ('A' for Active; 'I' for Inactive)
REMARK    1  A    between atoms: C_1  and  C_2
REMARK    2  A    between atoms: C_2  and  N_3
REMARK    3  A    between atoms: C_2  and  C_14
REMARK    4  A    between atoms: N_3  and  C_4
REMARK    5  A    between atoms: C_4  and  C_5
REMARK    6  A    between atoms: C_5  and  C_6
REMARK    7  A    between atoms: C_6  and  C_7
REMARK    8  A    between atoms: C_7  and  C_8
REMARK    9  A    between atoms: C_14  and  O_15
REMARK   10  A    between atoms: C_14  and  C_16
REMARK                            x       y       z     vdW  Elec       q    Type
REMARK                         _______ _______ _______ _____ _____    ______ ____
ROOT
ATOM      1  C   UNL     1       5.336   6.310  15.712  0.00  0.00    +0.000 C 
ATOM      2  C   UNL     1       6.416   5.375  16.274  0.00  0.00    +0.000 C 
ENDROOT
BRANCH   2   3
ATOM      3  N   UNL     1       7.490   6.148  16.943  0.00  0.00    +0.000 NA
ATOM      4  H   UNL     1       8.304   6.160  16.330  0.00  0.00    +0.000 HD
BRANCH   3   5
ATOM      5  C   UNL     1       7.142   7.520  17.316  0.00  0.00    +0.000 C 
BRANCH   5   6
ATOM      6  C   UNL     1       8.237   8.185  18.167  0.00  0.00    +0.000 C 
BRANCH   6   7
ATOM      7  C   UNL     1       8.076   9.708  18.301  0.00  0.00    +0.000 C 
BRANCH   7   8
ATOM      8  C   UNL     1       9.157  10.473  17.525  0.00  0.00    +0.000 C 
BRANCH   8   9
ATOM      9  C   UNL     1      10.108  11.183  18.446  0.00  0.00    +0.000 A 
ATOM     10  C   UNL     1      11.315  11.717  17.966  0.00  0.00    +0.000 A 
ATOM     11  C   UNL     1      12.197  12.346  18.843  0.00  0.00    +0.000 A 
ATOM     12  C   UNL     1      11.887  12.444  20.199  0.00  0.00    +0.000 A 
ATOM     13  C   UNL     1      10.700  11.909  20.691  0.00  0.00    +0.000 A 
ATOM     14  C   UNL     1       9.817  11.281  19.817  0.00  0.00    +0.000 A 
ENDBRANCH   8   9
ENDBRANCH   7   8
ENDBRANCH   6   7
ENDBRANCH   5   6
ENDBRANCH   3   5
ENDBRANCH   2   3
BRANCH   2  15
ATOM     15  C   UNL     1       5.770   4.192  17.082  0.00  0.00    +0.000 C 
BRANCH  15  16
ATOM     16  C   UNL     1       4.295   4.358  17.425  0.00  0.00    +0.000 A 
ATOM     17  C   UNL     1       3.300   3.519  16.874  0.00  0.00    +0.000 A 
ATOM     18  C   UNL     1       2.083   3.345  17.531  0.00  0.00    +0.000 A 
ATOM     19  C   UNL     1       1.889   4.049  18.702  0.00  0.00    +0.000 A 
ATOM     20  C   UNL     1       2.737   5.094  19.087  0.00  0.00    +0.000 A 
ATOM     21  C   UNL     1       3.952   5.260  18.446  0.00  0.00    +0.000 A 
ATOM     22  C   UNL     1       2.357   5.689  20.413  0.00  0.00    +0.000 C 
ATOM     23  C   UNL     1       2.098   4.431  21.236  0.00  0.00    +0.000 C 
ATOM     24  S   UNL     1       0.983   3.471  20.134  0.00  0.00    +0.000 S 
ENDBRANCH  15  16
BRANCH  15  25
ATOM     25  O   UNL     1       6.512   3.963  18.277  0.00  0.00    +0.000 OA
ATOM     26  H   UNL     1       6.860   4.819  18.574  0.00  0.00    +0.000 HD
ENDBRANCH  15  25
ENDBRANCH   2  15
TORSDOF 9
ENDMDL
MODEL 6
REMARK VINA RESULT:      -7.3      1.250      1.796
REMARK  Name = 
REMARK  10 active torsions:
REMARK  status: ('A' for Active; 'I' for Inactive)
REMARK    1  A    between atoms: C_1  and  C_2
REMARK    2  A    between atoms: C_2  and  N_3
REMARK    3  A    between atoms: C_2  and  C_14
REMARK    4  A    between atoms: N_3  and  C_4
REMARK    5  A    between atoms: C_4  and  C_5
REMARK    6  A    between atoms: C_5  and  C_6
REMARK    7  A    between atoms: C_6  and  C_7
REMARK    8  A    between atoms: C_7  and  C_8
REMARK    9  A    between atoms: C_14  and  O_15
REMARK   10  A    between atoms: C_14  and  C_16
REMARK                            x       y       z     vdW  Elec       q    Type
REMARK                         _______ _______ _______ _____ _____    ______ ____
ROOT
ATOM      1  C   UNL     1       7.340   5.186  15.200  0.00  0.00    +0.000 C 
ATOM      2  C   UNL     1       6.566   5.581  16.465  0.00  0.00    +0.000 C 
ENDROOT
BRANCH   2   3
ATOM      3  N   UNL     1       6.708   7.031  16.742  0.00  0.00    +0.000 NA
ATOM      4  H   UNL     1       5.782   7.410  16.939  0.00  0.00    +0.000 HD
BRANCH   3   5
ATOM      5  C   UNL     1       7.619   7.379  17.833  0.00  0.00    +0.000 C 
BRANCH   5   6
ATOM      6  C   UNL     1       7.937   8.883  17.867  0.00  0.00    +0.000 C 
BRANCH   6   7
ATOM      7  C   UNL     1       9.020   9.262  18.889  0.00  0.00    +0.000 C 
BRANCH   7   8
ATOM      8  C   UNL     1       8.887  10.718  19.359  0.00  0.00    +0.000 C 
BRANCH   8   9
ATOM      9  C   UNL     1      10.104  11.529  19.016  0.00  0.00    +0.000 A 
ATOM     10  C   UNL     1      10.928  12.056  20.024  0.00  0.00    +0.000 A 
ATOM     11  C   UNL     1      12.035  12.830  19.685  0.00  0.00    +0.000 A 
ATOM     12  C   UNL     1      12.328  13.088  18.345  0.00  0.00    +0.000 A 
ATOM     13  C   UNL     1      11.514  12.582  17.337  0.00  0.00    +0.000 A 
ATOM     14  C   UNL     1      10.407  11.808  17.672  0.00  0.00    +0.000 A 
ENDBRANCH   8   9
ENDBRANCH   7   8
ENDBRANCH   6   7
ENDBRANCH   5   6
ENDBRANCH   3   5
ENDBRANCH   2   3
BRANCH   2  15
ATOM     15  C   UNL     1       5.109   4.993  16.439  0.00  0.00    +0.000 C 
BRANCH  15  16
ATOM     16  C   UNL     1       4.558   4.540  17.786  0.00  0.00    +0.000 A 
ATOM     17  C   UNL     1       4.419   5.431  18.874  0.00  0.00    +0.000 A 
ATOM     18  C   UNL     1       3.501   5.166  19.888  0.00  0.00    +0.000 A 
ATOM     19  C   UNL     1       2.777   3.993  19.796  0.00  0.00    +0.000 A 
ATOM     20  C   UNL     1       3.121   2.981  18.895  0.00  0.00    +0.000 A 
ATOM     21  C   UNL     1       4.021   3.246  17.878  0.00  0.00    +0.000 A 
ATOM     22  C   UNL     1       2.172   1.816  18.943  0.00  0.00    +0.000 C 
ATOM     23  C   UNL     1       0.826   2.535  18.974  0.00  0.00    +0.000 C 
ATOM     24  S   UNL     1       1.078   3.769  20.312  0.00  0.00    +0.000 S 
ENDBRANCH  15  16
BRANCH  15  25
ATOM     25  O   UNL     1       5.042   3.912  15.512  0.00  0.00    +0.000 OA
ATOM     26  H   UNL     1       5.946   3.727  15.212  0.00  0.00    +0.000 HD
ENDBRANCH  15  25
ENDBRANCH   2  15
TORSDOF 9
ENDMDL
MODEL 7
REMARK VINA RESULT:      -7.3      1.635      2.040
REMARK  Name = 
REMARK  10 active torsions:
REMARK  status: ('A' for Active; 'I' for Inactive)
REMARK    1  A    between atoms: C_1  and  C_2
REMARK    2  A    between atoms: C_2  and  N_3
REMARK    3  A    between atoms: C_2  and  C_14
REMARK    4  A    between atoms: N_3  and  C_4
REMARK    5  A    between atoms: C_4  and  C_5
REMARK    6  A    between atoms: C_5  and  C_6
REMARK    7  A    between atoms: C_6  and  C_7
REMARK    8  A    between atoms: C_7  and  C_8
REMARK    9  A    between atoms: C_14  and  O_15
REMARK   10  A    between atoms: C_14  and  C_16
REMARK                            x       y       z     vdW  Elec       q    Type
REMARK                         _______ _______ _______ _____ _____    ______ ____
ROOT
ATOM      1  C   UNL     1       5.412   5.810  15.452  0.00  0.00    +0.000 C 
ATOM      2  C   UNL     1       6.300   5.914  16.699  0.00  0.00    +0.000 C 
ENDROOT
BRANCH   2   3
ATOM      3  N   UNL     1       6.530   7.332  17.069  0.00  0.00    +0.000 NA
ATOM      4  H   UNL     1       5.798   7.614  17.720  0.00  0.00    +0.000 HD
BRANCH   3   5
ATOM      5  C   UNL     1       7.839   7.629  17.650  0.00  0.00    +0.000 C 
BRANCH   5   6
ATOM      6  C   UNL     1       8.040   9.134  17.892  0.00  0.00    +0.000 C 
BRANCH   6   7
ATOM      7  C   UNL     1       9.207   9.458  18.837  0.00  0.00    +0.000 C 
BRANCH   7   8
ATOM      8  C   UNL     1       9.058  10.841  19.487  0.00  0.00    +0.000 C 
BRANCH   8   9
ATOM      9  C   UNL     1      10.187  11.759  19.112  0.00  0.00    +0.000 A 
ATOM     10  C   UNL     1      10.593  11.895  17.774  0.00  0.00    +0.000 A 
ATOM     11  C   UNL     1      11.661  12.728  17.450  0.00  0.00    +0.000 A 
ATOM     12  C   UNL     1      12.333  13.428  18.453  0.00  0.00    +0.000 A 
ATOM     13  C   UNL     1      11.949  13.294  19.783  0.00  0.00    +0.000 A 
ATOM     14  C   UNL     1      10.882  12.462  20.109  0.00  0.00    +0.000 A 
ENDBRANCH   8   9
ENDBRANCH   7   8
ENDBRANCH   6   7
ENDBRANCH   5   6
ENDBRANCH   3   5
ENDBRANCH   2   3
BRANCH   2  15
ATOM     15  C   UNL     1       5.796   4.947  17.831  0.00  0.00    +0.000 C 
BRANCH  15  16
ATOM     16  C   UNL     1       4.293   4.694  17.858  0.00  0.00    +0.000 A 
ATOM     17  C   UNL     1       3.684   3.721  17.035  0.00  0.00    +0.000 A 
ATOM     18  C   UNL     1       2.459   3.161  17.394  0.00  0.00    +0.000 A 
ATOM     19  C   UNL     1       1.866   3.626  18.551  0.00  0.00    +0.000 A 
ATOM     20  C   UNL     1       2.312   4.783  19.198  0.00  0.00    +0.000 A 
ATOM     21  C   UNL     1       3.534   5.332  18.854  0.00  0.00    +0.000 A 
ATOM     22  C   UNL     1       1.544   5.076  20.456  0.00  0.00    +0.000 C 
ATOM     23  C   UNL     1       1.485   3.691  21.093  0.00  0.00    +0.000 C 
ATOM     24  S   UNL     1       0.899   2.648  19.697  0.00  0.00    +0.000 S 
ENDBRANCH  15  16
BRANCH  15  25
ATOM     25  O   UNL     1       6.218   5.433  19.103  0.00  0.00    +0.000 OA
ATOM     26  H   UNL     1       5.449   5.406  19.696  0.00  0.00    +0.000 HD
ENDBRANCH  15  25
ENDBRANCH   2  15
TORSDOF 9
ENDMDL
MODEL 8
REMARK VINA RESULT:      -7.3      1.456      1.929
REMARK  Name = 
REMARK  10 active torsions:
REMARK  status: ('A' for Active; 'I' for Inactive)
REMARK    1  A    between atoms: C_1  and  C_2
REMARK    2  A    between atoms: C_2  and  N_3
REMARK    3  A    between atoms: C_2  and  C_14
REMARK    4  A    between atoms: N_3  and  C_4
REMARK    5  A    between atoms: C_4  and  C_5
REMARK    6  A    between atoms: C_5  and  C_6
REMARK    7  A    between atoms: C_6  and  C_7
REMARK    8  A    between atoms: C_7  and  C_8
REMARK    9  A    between atoms: C_14  and  O_15
REMARK   10  A    between atoms: C_14  and  C_16
REMARK                            x       y       z     vdW  Elec       q    Type
REMARK                         _______ _______ _______ _____ _____    ______ ____
ROOT
ATOM      1  C   UNL     1       5.834   5.060  19.364  0.00  0.00    +0.000 C 
ATOM      2  C   UNL     1       6.023   6.121  18.271  0.00  0.00    +0.000 C 
ENDROOT
BRANCH   2   3
ATOM      3  N   UNL     1       7.449   6.232  17.882  0.00  0.00    +0.000 NA
ATOM      4  H   UNL     1       7.512   6.136  16.869  0.00  0.00    +0.000 HD
BRANCH   3   5
ATOM      5  C   UNL     1       8.122   7.463  18.297  0.00  0.00    +0.000 C 
BRANCH   5   6
ATOM      6  C   UNL     1       7.666   8.680  17.473  0.00  0.00    +0.000 C 
BRANCH   6   7
ATOM      7  C   UNL     1       8.084  10.029  18.080  0.00  0.00    +0.000 C 
BRANCH   7   8
ATOM      8  C   UNL     1       9.214   9.874  19.108  0.00  0.00    +0.000 C 
BRANCH   8   9
ATOM      9  C   UNL     1      10.215  10.989  19.008  0.00  0.00    +0.000 A 
ATOM     10  C   UNL     1      10.730  11.388  17.763  0.00  0.00    +0.000 A 
ATOM     11  C   UNL     1      11.681  12.404  17.695  0.00  0.00    +0.000 A 
ATOM     12  C   UNL     1      12.128  13.026  18.860  0.00  0.00    +0.000 A 
ATOM     13  C   UNL     1      11.635  12.633  20.101  0.00  0.00    +0.000 A 
ATOM     14  C   UNL     1      10.686  11.619  20.172  0.00  0.00    +0.000 A 
ENDBRANCH   8   9
ENDBRANCH   7   8
ENDBRANCH   6   7
ENDBRANCH   5   6
ENDBRANCH   3   5
ENDBRANCH   2   3
BRANCH   2  15
ATOM     15  C   UNL     1       4.974   5.930  17.115  0.00  0.00    +0.000 C 
BRANCH  15  16
ATOM     16  C   UNL     1       3.716   5.157  17.490  0.00  0.00    +0.000 A 
ATOM     17  C   UNL     1       3.449   3.868  16.976  0.00  0.00    +0.000 A 
ATOM     18  C   UNL     1       2.608   2.995  17.664  0.00  0.00    +0.000 A 
ATOM     19  C   UNL     1       2.029   3.460  18.828  0.00  0.00    +0.000 A 
ATOM     20  C   UNL     1       2.052   4.815  19.176  0.00  0.00    +0.000 A 
ATOM     21  C   UNL     1       2.897   5.680  18.505  0.00  0.00    +0.000 A 
ATOM     22  C   UNL     1       1.396   5.083  20.502  0.00  0.00    +0.000 C 
ATOM     23  C   UNL     1       1.979   3.956  21.350  0.00  0.00    +0.000 C 
ATOM     24  S   UNL     1       1.688   2.484  20.289  0.00  0.00    +0.000 S 
ENDBRANCH  15  16
BRANCH  15  25
ATOM     25  O   UNL     1       5.598   5.306  15.996  0.00  0.00    +0.000 OA
ATOM     26  H   UNL     1       4.952   4.698  15.602  0.00  0.00    +0.000 HD
ENDBRANCH  15  25
ENDBRANCH   2  15
TORSDOF 9
ENDMDL
MODEL 9
REMARK VINA RESULT:      -7.3      2.195      2.953
REMARK  Name = 
REMARK  10 active torsions:
REMARK  status: ('A' for Active; 'I' for Inactive)
REMARK    1  A    between atoms: C_1  and  C_2
REMARK    2  A    between atoms: C_2  and  N_3
REMARK    3  A    between atoms: C_2  and  C_14
REMARK    4  A    between atoms: N_3  and  C_4
REMARK    5  A    between atoms: C_4  and  C_5
REMARK    6  A    between atoms: C_5  and  C_6
REMARK    7  A    between atoms: C_6  and  C_7
REMARK    8  A    between atoms: C_7  and  C_8
REMARK    9  A    between atoms: C_14  and  O_15
REMARK   10  A    between atoms: C_14  and  C_16
REMARK                            x       y       z     vdW  Elec       q    Type
REMARK                         _______ _______ _______ _____ _____    ______ ____
ROOT
ATOM      1  C   UNL     1       6.438   6.747  16.812  0.00  0.00    +0.000 C 
ATOM      2  C   UNL     1       7.398   6.109  17.825  0.00  0.00    +0.000 C 
ENDROOT
BRANCH   2   3
ATOM      3  N   UNL     1       8.145   7.149  18.574  0.00  0.00    +0.000 NA
ATOM      4  H   UNL     1       9.111   6.837  18.675  0.00  0.00    +0.000 HD
BRANCH   3   5
ATOM      5  C   UNL     1       8.126   8.488  17.985  0.00  0.00    +0.000 C 
BRANCH   5   6
ATOM      6  C   UNL     1       8.950   9.495  18.806  0.00  0.00    +0.000 C 
BRANCH   6   7
ATOM      7  C   UNL     1       8.923  10.923  18.238  0.00  0.00    +0.000 C 
BRANCH   7   8
ATOM      8  C   UNL     1      10.321  11.409  17.832  0.00  0.00    +0.000 C 
BRANCH   8   9
ATOM      9  C   UNL     1      10.380  12.905  17.717  0.00  0.00    +0.000 A 
ATOM     10  C   UNL     1       9.319  13.707  18.170  0.00  0.00    +0.000 A 
ATOM     11  C   UNL     1       9.381  15.092  18.027  0.00  0.00    +0.000 A 
ATOM     12  C   UNL     1      10.492  15.687  17.430  0.00  0.00    +0.000 A 
ATOM     13  C   UNL     1      11.546  14.904  16.967  0.00  0.00    +0.000 A 
ATOM     14  C   UNL     1      11.487  13.521  17.109  0.00  0.00    +0.000 A 
ENDBRANCH   8   9
ENDBRANCH   7   8
ENDBRANCH   6   7
ENDBRANCH   5   6
ENDBRANCH   3   5
ENDBRANCH   2   3
BRANCH   2  15
ATOM     15  C   UNL     1       6.671   4.999  18.667  0.00  0.00    +0.000 C 
BRANCH  15  16
ATOM     16  C   UNL     1       5.168   4.882  18.442  0.00  0.00    +0.000 A 
ATOM     17  C   UNL     1       4.625   4.055  17.433  0.00  0.00    +0.000 A 
ATOM     18  C   UNL     1       3.321   3.576  17.541  0.00  0.00    +0.000 A 
ATOM     19  C   UNL     1       2.589   3.975  18.642  0.00  0.00    +0.000 A 
ATOM     20  C   UNL     1       3.013   5.016  19.474  0.00  0.00    +0.000 A 
ATOM     21  C   UNL     1       4.311   5.483  19.379  0.00  0.00    +0.000 A 
ATOM     22  C   UNL     1       2.080   5.251  20.629  0.00  0.00    +0.000 C 
ATOM     23  C   UNL     1       1.818   3.820  21.089  0.00  0.00    +0.000 C 
ATOM     24  S   UNL     1       1.383   2.980  19.514  0.00  0.00    +0.000 S 
ENDBRANCH  15  16
BRANCH  15  25
ATOM     25  O   UNL     1       6.928   5.199  20.055  0.00  0.00    +0.000 OA
ATOM     26  H   UNL     1       6.685   4.382  20.518  0.00  0.00    +0.000 HD
ENDBRANCH  15  25
ENDBRANCH   2  15
TORSDOF 9
ENDMDL
