MODEL 1
REMARK VINA RESULT:      -7.5      0.000      0.000
REMARK  Name = 
REMARK  5 active torsions:
REMARK  status: ('A' for Active; 'I' for Inactive)
REMARK    1  A    between atoms: C_1  and  C_2
REMARK    2  A    between atoms: C_2  and  C_3
REMARK    3  A    between atoms: C_9  and  C_10
REMARK    4  A    between atoms: N_12  and  C_13
REMARK    5  A    between atoms: N_22  and  C_23
REMARK                            x       y       z     vdW  Elec       q    Type
REMARK                         _______ _______ _______ _____ _____    ______ ____
ROOT
ATOM      1  C   UNL     1       4.066   0.660  18.679  0.00  0.00    +0.000 C 
ATOM      2  C   UNL     1       3.690   2.024  19.283  0.00  0.00    +0.000 C 
ATOM      3  C   UNL     1       4.569   2.253  20.532  0.00  0.00    +0.000 C 
ATOM      4  C   UNL     1       2.203   2.028  19.656  0.00  0.00    +0.000 C 
ATOM      5  C   UNL     1       1.788   3.385  20.175  0.00  0.00    +0.000 C 
ATOM      6  O   UNL     1       0.977   3.491  21.094  0.00  0.00    +0.000 OA
ATOM      7  C   UNL     1       2.354   4.603  19.501  0.00  0.00    +0.000 A 
ATOM      8  C   UNL     1       1.840   5.905  19.846  0.00  0.00    +0.000 A 
ATOM      9  C   UNL     1       2.330   7.034  19.305  0.00  0.00    +0.000 A 
ATOM     10  C   UNL     1       3.443   6.933  18.324  0.00  0.00    +0.000 A 
ATOM     11  O   UNL     1       3.903   7.978  17.855  0.00  0.00    +0.000 OA
ATOM     12  N   UNL     1       3.861   5.635  17.960  0.00  0.00    +0.000 N 
ATOM     13  C   UNL     1       3.325   4.479  18.572  0.00  0.00    +0.000 A 
ATOM     14  C   UNL     1       3.929   3.128  18.228  0.00  0.00    +0.000 C 
ENDROOT
BRANCH  12  15
ATOM     15  C   UNL     1       4.837   5.573  16.918  0.00  0.00    +0.000 A 
ATOM     16  C   UNL     1       4.500   5.024  15.675  0.00  0.00    +0.000 A 
ATOM     17  C   UNL     1       5.461   4.908  14.670  0.00  0.00    +0.000 A 
ATOM     18  C   UNL     1       6.767   5.327  14.912  0.00  0.00    +0.000 A 
ATOM     19 CL   UNL     1       7.958   5.153  13.684  0.00  0.00    +0.000 Cl
ATOM     20  C   UNL     1       7.118   5.871  16.147  0.00  0.00    +0.000 A 
ATOM     21  C   UNL     1       6.154   5.997  17.151  0.00  0.00    +0.000 A 
ENDBRANCH  12  15
BRANCH   9  22
ATOM     22  C   UNL     1       1.671   8.319  19.683  0.00  0.00    +0.000 C 
ATOM     23  O   UNL     1       1.625   8.628  20.874  0.00  0.00    +0.000 OA
ATOM     24  N   UNL     1       1.107   9.045  18.652  0.00  0.00    +0.000 N 
ATOM     25  H   UNL     1       1.047   8.594  17.736  0.00  0.00    +0.000 HD
BRANCH  24  26
ATOM     26  C   UNL     1       0.372  10.251  18.799  0.00  0.00    +0.000 A 
ATOM     27  C   UNL     1      -0.962  10.254  19.222  0.00  0.00    +0.000 A 
ATOM     28  C   UNL     1      -1.715  11.427  19.222  0.00  0.00    +0.000 A 
ATOM     29  C   UNL     1      -1.140  12.629  18.831  0.00  0.00    +0.000 A 
ATOM     30  C   UNL     1       0.213  12.663  18.483  0.00  0.00    +0.000 A 
ATOM     31  C   UNL     1       0.967  11.484  18.478  0.00  0.00    +0.000 A 
ATOM     32 CL   UNL     1       2.633  11.593  18.026  0.00  0.00    +0.000 Cl
ENDBRANCH  24  26
ENDBRANCH   9  22
TORSDOF 3
ENDMDL
MODEL 2
REMARK VINA RESULT:      -7.4      3.351     10.097
REMARK  Name = 
REMARK  5 active torsions:
REMARK  status: ('A' for Active; 'I' for Inactive)
REMARK    1  A    between atoms: C_1  and  C_2
REMARK    2  A    between atoms: C_2  and  C_3
REMARK    3  A    between atoms: C_9  and  C_10
REMARK    4  A    between atoms: N_12  and  C_13
REMARK    5  A    between atoms: N_22  and  C_23
REMARK                            x       y       z     vdW  Elec       q    Type
REMARK                         _______ _______ _______ _____ _____    ______ ____
ROOT
ATOM      1  C   UNL     1       0.867  16.897  20.576  0.00  0.00    +0.000 C 
ATOM      2  C   UNL     1       1.413  15.484  20.303  0.00  0.00    +0.000 C 
ATOM      3  C   UNL     1       2.459  15.158  21.391  0.00  0.00    +0.000 C 
ATOM      4  C   UNL     1       2.047  15.438  18.908  0.00  0.00    +0.000 C 
ATOM      5  C   UNL     1       2.517  14.040  18.582  0.00  0.00    +0.000 C 
ATOM      6  O   UNL     1       3.555  13.852  17.950  0.00  0.00    +0.000 OA
ATOM      7  C   UNL     1       1.652  12.886  19.008  0.00  0.00    +0.000 A 
ATOM      8  C   UNL     1       1.976  11.557  18.553  0.00  0.00    +0.000 A 
ATOM      9  C   UNL     1       1.263  10.480  18.929  0.00  0.00    +0.000 A 
ATOM     10  C   UNL     1       0.108  10.670  19.847  0.00  0.00    +0.000 A 
ATOM     11  O   UNL     1      -0.521   9.671  20.206  0.00  0.00    +0.000 OA
ATOM     12  N   UNL     1      -0.215  11.997  20.203  0.00  0.00    +0.000 N 
ATOM     13  C   UNL     1       0.578  13.095  19.796  0.00  0.00    +0.000 A 
ATOM     14  C   UNL     1       0.244  14.474  20.339  0.00  0.00    +0.000 C 
ENDROOT
BRANCH  12  15
ATOM     15  C   UNL     1      -1.407  12.152  20.976  0.00  0.00    +0.000 A 
ATOM     16  C   UNL     1      -2.606  12.512  20.348  0.00  0.00    +0.000 A 
ATOM     17  C   UNL     1      -3.763  12.721  21.100  0.00  0.00    +0.000 A 
ATOM     18  C   UNL     1      -3.718  12.586  22.486  0.00  0.00    +0.000 A 
ATOM     19 CL   UNL     1      -5.136  12.875  23.416  0.00  0.00    +0.000 Cl
ATOM     20  C   UNL     1      -2.530  12.234  23.125  0.00  0.00    +0.000 A 
ATOM     21  C   UNL     1      -1.374  12.015  22.371  0.00  0.00    +0.000 A 
ENDBRANCH  12  15
BRANCH   9  22
ATOM     22  C   UNL     1       1.645   9.163  18.338  0.00  0.00    +0.000 C 
ATOM     23  O   UNL     1       1.273   8.902  17.194  0.00  0.00    +0.000 OA
ATOM     24  N   UNL     1       2.353   8.306  19.158  0.00  0.00    +0.000 N 
ATOM     25  H   UNL     1       2.439   8.562  20.145  0.00  0.00    +0.000 HD
BRANCH  24  26
ATOM     26  C   UNL     1       2.750   6.986  18.823  0.00  0.00    +0.000 A 
ATOM     27  C   UNL     1       3.614   6.724  17.753  0.00  0.00    +0.000 A 
ATOM     28  C   UNL     1       3.881   5.419  17.343  0.00  0.00    +0.000 A 
ATOM     29  C   UNL     1       3.315   4.344  18.017  0.00  0.00    +0.000 A 
ATOM     30  C   UNL     1       2.515   4.579  19.138  0.00  0.00    +0.000 A 
ATOM     31  C   UNL     1       2.244   5.890  19.546  0.00  0.00    +0.000 A 
ATOM     32 CL   UNL     1       1.237   6.113  20.934  0.00  0.00    +0.000 Cl
ENDBRANCH  24  26
ENDBRANCH   9  22
TORSDOF 3
ENDMDL
MODEL 3
REMARK VINA RESULT:      -7.4      3.018      8.732
REMARK  Name = 
REMARK  5 active torsions:
REMARK  status: ('A' for Active; 'I' for Inactive)
REMARK    1  A    between atoms: C_1  and  C_2
REMARK    2  A    between atoms: C_2  and  C_3
REMARK    3  A    between atoms: C_9  and  C_10
REMARK    4  A    between atoms: N_12  and  C_13
REMARK    5  A    between atoms: N_22  and  C_23
REMARK                            x       y       z     vdW  Elec       q    Type
REMARK                         _______ _______ _______ _____ _____    ______ ____
ROOT
ATOM      1  C   UNL     1      -1.685  13.187  23.522  0.00  0.00    +0.000 C 
ATOM      2  C   UNL     1      -1.344  12.111  22.476  0.00  0.00    +0.000 C 
ATOM      3  C   UNL     1      -2.573  11.931  21.557  0.00  0.00    +0.000 C 
ATOM      4  C   UNL     1      -0.999  10.797  23.185  0.00  0.00    +0.000 C 
ATOM      5  C   UNL     1      -0.580   9.745  22.185  0.00  0.00    +0.000 C 
ATOM      6  O   UNL     1      -0.896   8.565  22.335  0.00  0.00    +0.000 OA
ATOM      7  C   UNL     1       0.276  10.174  21.026  0.00  0.00    +0.000 A 
ATOM      8  C   UNL     1       0.845   9.172  20.159  0.00  0.00    +0.000 A 
ATOM      9  C   UNL     1       1.589   9.493  19.087  0.00  0.00    +0.000 A 
ATOM     10  C   UNL     1       1.826  10.930  18.784  0.00  0.00    +0.000 A 
ATOM     11  O   UNL     1       2.488  11.212  17.781  0.00  0.00    +0.000 OA
ATOM     12  N   UNL     1       1.314  11.871  19.702  0.00  0.00    +0.000 N 
ATOM     13  C   UNL     1       0.521  11.482  20.807  0.00  0.00    +0.000 A 
ATOM     14  C   UNL     1      -0.109  12.565  21.666  0.00  0.00    +0.000 C 
ENDROOT
BRANCH  12  15
ATOM     15  C   UNL     1       1.674  13.231  19.454  0.00  0.00    +0.000 A 
ATOM     16  C   UNL     1       2.908  13.721  19.898  0.00  0.00    +0.000 A 
ATOM     17  C   UNL     1       3.245  15.062  19.710  0.00  0.00    +0.000 A 
ATOM     18  C   UNL     1       2.341  15.920  19.089  0.00  0.00    +0.000 A 
ATOM     19 CL   UNL     1       2.744  17.580  18.885  0.00  0.00    +0.000 Cl
ATOM     20  C   UNL     1       1.107  15.447  18.645  0.00  0.00    +0.000 A 
ATOM     21  C   UNL     1       0.772  14.102  18.825  0.00  0.00    +0.000 A 
ENDBRANCH  12  15
BRANCH   9  22
ATOM     22  C   UNL     1       2.186   8.370  18.304  0.00  0.00    +0.000 C 
ATOM     23  O   UNL     1       2.285   8.493  17.083  0.00  0.00    +0.000 OA
ATOM     24  N   UNL     1       2.536   7.242  19.020  0.00  0.00    +0.000 N 
ATOM     25  H   UNL     1       2.233   7.190  19.995  0.00  0.00    +0.000 HD
BRANCH  24  26
ATOM     26  C   UNL     1       3.048   6.040  18.466  0.00  0.00    +0.000 A 
ATOM     27  C   UNL     1       4.090   6.045  17.532  0.00  0.00    +0.000 A 
ATOM     28  C   UNL     1       4.486   4.874  16.886  0.00  0.00    +0.000 A 
ATOM     29  C   UNL     1       3.869   3.666  17.187  0.00  0.00    +0.000 A 
ATOM     30  C   UNL     1       2.882   3.625  18.175  0.00  0.00    +0.000 A 
ATOM     31  C   UNL     1       2.483   4.802  18.819  0.00  0.00    +0.000 A 
ATOM     32 CL   UNL     1       1.248   4.683  20.024  0.00  0.00    +0.000 Cl
ENDBRANCH  24  26
ENDBRANCH   9  22
TORSDOF 3
ENDMDL
MODEL 4
REMARK VINA RESULT:      -7.4      0.967      1.540
REMARK  Name = 
REMARK  5 active torsions:
REMARK  status: ('A' for Active; 'I' for Inactive)
REMARK    1  A    between atoms: C_1  and  C_2
REMARK    2  A    between atoms: C_2  and  C_3
REMARK    3  A    between atoms: C_9  and  C_10
REMARK    4  A    between atoms: N_12  and  C_13
REMARK    5  A    between atoms: N_22  and  C_23
REMARK                            x       y       z     vdW  Elec       q    Type
REMARK                         _______ _______ _______ _____ _____    ______ ____
ROOT
ATOM      1  C   UNL     1       3.811   0.635  18.622  0.00  0.00    +0.000 C 
ATOM      2  C   UNL     1       3.502   2.039  19.172  0.00  0.00    +0.000 C 
ATOM      3  C   UNL     1       4.365   2.258  20.434  0.00  0.00    +0.000 C 
ATOM      4  C   UNL     1       2.010   2.143  19.508  0.00  0.00    +0.000 C 
ATOM      5  C   UNL     1       1.665   3.538  19.972  0.00  0.00    +0.000 C 
ATOM      6  O   UNL     1       0.841   3.722  20.868  0.00  0.00    +0.000 OA
ATOM      7  C   UNL     1       2.318   4.698  19.273  0.00  0.00    +0.000 A 
ATOM      8  C   UNL     1       1.874   6.038  19.564  0.00  0.00    +0.000 A 
ATOM      9  C   UNL     1       2.442   7.118  18.999  0.00  0.00    +0.000 A 
ATOM     10  C   UNL     1       3.569   6.919  18.049  0.00  0.00    +0.000 A 
ATOM     11  O   UNL     1       4.100   7.919  17.558  0.00  0.00    +0.000 OA
ATOM     12  N   UNL     1       3.917   5.588  17.737  0.00  0.00    +0.000 N 
ATOM     13  C   UNL     1       3.299   4.485  18.374  0.00  0.00    +0.000 A 
ATOM     14  C   UNL     1       3.830   3.091  18.088  0.00  0.00    +0.000 C 
ENDROOT
BRANCH  12  15
ATOM     15  C   UNL     1       4.911   5.433  16.722  0.00  0.00    +0.000 A 
ATOM     16  C   UNL     1       6.212   5.903  16.939  0.00  0.00    +0.000 A 
ATOM     17  C   UNL     1       7.175   5.808  15.934  0.00  0.00    +0.000 A 
ATOM     18  C   UNL     1       6.833   5.255  14.702  0.00  0.00    +0.000 A 
ATOM     19 CL   UNL     1       8.011   5.166  13.452  0.00  0.00    +0.000 Cl
ATOM     20  C   UNL     1       5.540   4.787  14.470  0.00  0.00    +0.000 A 
ATOM     21  C   UNL     1       4.578   4.874  15.480  0.00  0.00    +0.000 A 
ENDBRANCH  12  15
BRANCH   9  22
ATOM     22  C   UNL     1       1.852   8.452  19.319  0.00  0.00    +0.000 C 
ATOM     23  O   UNL     1       1.477   8.667  20.472  0.00  0.00    +0.000 OA
ATOM     24  N   UNL     1       1.722   9.333  18.264  0.00  0.00    +0.000 N 
ATOM     25  H   UNL     1       1.895   8.972  17.323  0.00  0.00    +0.000 HD
BRANCH  24  26
ATOM     26  C   UNL     1       1.123  10.618  18.333  0.00  0.00    +0.000 A 
ATOM     27  C   UNL     1       1.862  11.760  18.662  0.00  0.00    +0.000 A 
ATOM     28  C   UNL     1       1.238  12.988  18.870  0.00  0.00    +0.000 A 
ATOM     29  C   UNL     1      -0.138  13.110  18.718  0.00  0.00    +0.000 A 
ATOM     30  C   UNL     1      -0.885  12.002  18.310  0.00  0.00    +0.000 A 
ATOM     31  C   UNL     1      -0.258  10.768  18.107  0.00  0.00    +0.000 A 
ATOM     32 CL   UNL     1      -1.242   9.433  17.613  0.00  0.00    +0.000 Cl
ENDBRANCH  24  26
ENDBRANCH   9  22
TORSDOF 3
ENDMDL
MODEL 5
REMARK VINA RESULT:      -7.3      1.335      1.747
REMARK  Name = 
REMARK  5 active torsions:
REMARK  status: ('A' for Active; 'I' for Inactive)
REMARK    1  A    between atoms: C_1  and  C_2
REMARK    2  A    between atoms: C_2  and  C_3
REMARK    3  A    between atoms: C_9  and  C_10
REMARK    4  A    between atoms: N_12  and  C_13
REMARK    5  A    between atoms: N_22  and  C_23
REMARK                            x       y       z     vdW  Elec       q    Type
REMARK                         _______ _______ _______ _____ _____    ______ ____
ROOT
ATOM      1  C   UNL     1       3.854   0.840  18.684  0.00  0.00    +0.000 C 
ATOM      2  C   UNL     1       3.536   2.299  19.059  0.00  0.00    +0.000 C 
ATOM      3  C   UNL     1       4.354   2.657  20.320  0.00  0.00    +0.000 C 
ATOM      4  C   UNL     1       2.034   2.445  19.326  0.00  0.00    +0.000 C 
ATOM      5  C   UNL     1       1.682   3.885  19.616  0.00  0.00    +0.000 C 
ATOM      6  O   UNL     1       0.828   4.173  20.453  0.00  0.00    +0.000 OA
ATOM      7  C   UNL     1       2.369   4.956  18.815  0.00  0.00    +0.000 A 
ATOM      8  C   UNL     1       1.925   6.322  18.935  0.00  0.00    +0.000 A 
ATOM      9  C   UNL     1       2.522   7.329  18.273  0.00  0.00    +0.000 A 
ATOM     10  C   UNL     1       3.681   7.020  17.394  0.00  0.00    +0.000 A 
ATOM     11  O   UNL     1       4.237   7.956  16.813  0.00  0.00    +0.000 OA
ATOM     12  N   UNL     1       4.030   5.660  17.249  0.00  0.00    +0.000 N 
ATOM     13  C   UNL     1       3.382   4.639  17.982  0.00  0.00    +0.000 A 
ATOM     14  C   UNL     1       3.912   3.219  17.876  0.00  0.00    +0.000 C 
ENDROOT
BRANCH  12  15
ATOM     15  C   UNL     1       5.060   5.388  16.295  0.00  0.00    +0.000 A 
ATOM     16  C   UNL     1       6.387   5.732  16.581  0.00  0.00    +0.000 A 
ATOM     17  C   UNL     1       7.390   5.522  15.635  0.00  0.00    +0.000 A 
ATOM     18  C   UNL     1       7.065   4.981  14.393  0.00  0.00    +0.000 A 
ATOM     19 CL   UNL     1       8.297   4.752  13.215  0.00  0.00    +0.000 Cl
ATOM     20  C   UNL     1       5.748   4.638  14.093  0.00  0.00    +0.000 A 
ATOM     21  C   UNL     1       4.743   4.840  15.044  0.00  0.00    +0.000 A 
ENDBRANCH  12  15
BRANCH   9  22
ATOM     22  C   UNL     1       1.930   8.692  18.417  0.00  0.00    +0.000 C 
ATOM     23  O   UNL     1       2.293   9.576  17.641  0.00  0.00    +0.000 OA
ATOM     24  N   UNL     1       1.046   8.868  19.464  0.00  0.00    +0.000 N 
ATOM     25  H   UNL     1       0.969   8.112  20.149  0.00  0.00    +0.000 HD
BRANCH  24  26
ATOM     26  C   UNL     1       0.429  10.095  19.824  0.00  0.00    +0.000 A 
ATOM     27  C   UNL     1       0.836  10.823  20.948  0.00  0.00    +0.000 A 
ATOM     28  C   UNL     1       0.131  11.946  21.374  0.00  0.00    +0.000 A 
ATOM     29  C   UNL     1      -0.979  12.387  20.664  0.00  0.00    +0.000 A 
ATOM     30  C   UNL     1      -1.354  11.724  19.493  0.00  0.00    +0.000 A 
ATOM     31  C   UNL     1      -0.648  10.593  19.069  0.00  0.00    +0.000 A 
ATOM     32 CL   UNL     1      -1.171   9.810  17.618  0.00  0.00    +0.000 Cl
ENDBRANCH  24  26
ENDBRANCH   9  22
TORSDOF 3
ENDMDL
MODEL 6
REMARK VINA RESULT:      -7.2      1.662      2.072
REMARK  Name = 
REMARK  5 active torsions:
REMARK  status: ('A' for Active; 'I' for Inactive)
REMARK    1  A    between atoms: C_1  and  C_2
REMARK    2  A    between atoms: C_2  and  C_3
REMARK    3  A    between atoms: C_9  and  C_10
REMARK    4  A    between atoms: N_12  and  C_13
REMARK    5  A    between atoms: N_22  and  C_23
REMARK                            x       y       z     vdW  Elec       q    Type
REMARK                         _______ _______ _______ _____ _____    ______ ____
ROOT
ATOM      1  C   UNL     1       4.036   0.685  18.734  0.00  0.00    +0.000 C 
ATOM      2  C   UNL     1       3.659   2.114  19.163  0.00  0.00    +0.000 C 
ATOM      3  C   UNL     1       4.476   2.464  20.427  0.00  0.00    +0.000 C 
ATOM      4  C   UNL     1       2.156   2.186  19.450  0.00  0.00    +0.000 C 
ATOM      5  C   UNL     1       1.745   3.598  19.793  0.00  0.00    +0.000 C 
ATOM      6  O   UNL     1       0.889   3.820  20.649  0.00  0.00    +0.000 OA
ATOM      7  C   UNL     1       2.376   4.725  19.022  0.00  0.00    +0.000 A 
ATOM      8  C   UNL     1       1.875   6.065  19.194  0.00  0.00    +0.000 A 
ATOM      9  C   UNL     1       2.420   7.119  18.561  0.00  0.00    +0.000 A 
ATOM     10  C   UNL     1       3.581   6.891  17.660  0.00  0.00    +0.000 A 
ATOM     11  O   UNL     1       4.090   7.869  17.106  0.00  0.00    +0.000 OA
ATOM     12  N   UNL     1       3.987   5.553  17.465  0.00  0.00    +0.000 N 
ATOM     13  C   UNL     1       3.391   4.481  18.169  0.00  0.00    +0.000 A 
ATOM     14  C   UNL     1       3.981   3.090  18.008  0.00  0.00    +0.000 C 
ENDROOT
BRANCH  12  15
ATOM     15  C   UNL     1       5.016   5.359  16.492  0.00  0.00    +0.000 A 
ATOM     16  C   UNL     1       6.330   5.748  16.777  0.00  0.00    +0.000 A 
ATOM     17  C   UNL     1       7.331   5.614  15.813  0.00  0.00    +0.000 A 
ATOM     18  C   UNL     1       7.015   5.105  14.556  0.00  0.00    +0.000 A 
ATOM     19 CL   UNL     1       8.242   4.970  13.358  0.00  0.00    +0.000 Cl
ATOM     20  C   UNL     1       5.709   4.718  14.257  0.00  0.00    +0.000 A 
ATOM     21  C   UNL     1       4.708   4.843  15.225  0.00  0.00    +0.000 A 
ENDBRANCH  12  15
BRANCH   9  22
ATOM     22  C   UNL     1       1.772   8.450  18.759  0.00  0.00    +0.000 C 
ATOM     23  O   UNL     1       1.637   9.188  17.784  0.00  0.00    +0.000 OA
ATOM     24  N   UNL     1       1.419   8.772  20.055  0.00  0.00    +0.000 N 
ATOM     25  H   UNL     1       1.752   8.157  20.801  0.00  0.00    +0.000 HD
BRANCH  24  26
ATOM     26  C   UNL     1       0.861  10.008  20.473  0.00  0.00    +0.000 A 
ATOM     27  C   UNL     1       1.219  11.220  19.872  0.00  0.00    +0.000 A 
ATOM     28  C   UNL     1       0.778  12.439  20.385  0.00  0.00    +0.000 A 
ATOM     29  C   UNL     1      -0.061  12.470  21.492  0.00  0.00    +0.000 A 
ATOM     30  C   UNL     1      -0.497  11.269  22.058  0.00  0.00    +0.000 A 
ATOM     31  C   UNL     1      -0.049  10.047  21.545  0.00  0.00    +0.000 A 
ATOM     32 CL   UNL     1      -0.617   8.597  22.300  0.00  0.00    +0.000 Cl
ENDBRANCH  24  26
ENDBRANCH   9  22
TORSDOF 3
ENDMDL
MODEL 7
REMARK VINA RESULT:      -7.2      2.862      8.578
REMARK  Name = 
REMARK  5 active torsions:
REMARK  status: ('A' for Active; 'I' for Inactive)
REMARK    1  A    between atoms: C_1  and  C_2
REMARK    2  A    between atoms: C_2  and  C_3
REMARK    3  A    between atoms: C_9  and  C_10
REMARK    4  A    between atoms: N_12  and  C_13
REMARK    5  A    between atoms: N_22  and  C_23
REMARK                            x       y       z     vdW  Elec       q    Type
REMARK                         _______ _______ _______ _____ _____    ______ ____
ROOT
ATOM      1  C   UNL     1      -1.517  13.110  23.474  0.00  0.00    +0.000 C 
ATOM      2  C   UNL     1      -1.219  12.052  22.397  0.00  0.00    +0.000 C 
ATOM      3  C   UNL     1      -2.467  11.924  21.495  0.00  0.00    +0.000 C 
ATOM      4  C   UNL     1      -0.894  10.713  23.068  0.00  0.00    +0.000 C 
ATOM      5  C   UNL     1      -0.517   9.677  22.036  0.00  0.00    +0.000 C 
ATOM      6  O   UNL     1      -0.858   8.502  22.163  0.00  0.00    +0.000 OA
ATOM      7  C   UNL     1       0.330  10.113  20.873  0.00  0.00    +0.000 A 
ATOM      8  C   UNL     1       0.860   9.119  19.973  0.00  0.00    +0.000 A 
ATOM      9  C   UNL     1       1.593   9.449  18.895  0.00  0.00    +0.000 A 
ATOM     10  C   UNL     1       1.859  10.886  18.623  0.00  0.00    +0.000 A 
ATOM     11  O   UNL     1       2.511  11.178  17.616  0.00  0.00    +0.000 OA
ATOM     12  N   UNL     1       1.386  11.817  19.572  0.00  0.00    +0.000 N 
ATOM     13  C   UNL     1       0.603  11.420  20.681  0.00  0.00    +0.000 A 
ATOM     14  C   UNL     1       0.013  12.497  21.577  0.00  0.00    +0.000 C 
ENDROOT
BRANCH  12  15
ATOM     15  C   UNL     1       1.774  13.174  19.350  0.00  0.00    +0.000 A 
ATOM     16  C   UNL     1       2.984  13.650  19.868  0.00  0.00    +0.000 A 
ATOM     17  C   UNL     1       3.346  14.987  19.705  0.00  0.00    +0.000 A 
ATOM     18  C   UNL     1       2.489  15.857  19.034  0.00  0.00    +0.000 A 
ATOM     19 CL   UNL     1       2.920  17.513  18.860  0.00  0.00    +0.000 Cl
ATOM     20  C   UNL     1       1.278  15.398  18.517  0.00  0.00    +0.000 A 
ATOM     21  C   UNL     1       0.920  14.056  18.672  0.00  0.00    +0.000 A 
ENDBRANCH  12  15
BRANCH   9  22
ATOM     22  C   UNL     1       2.150   8.332  18.076  0.00  0.00    +0.000 C 
ATOM     23  O   UNL     1       2.340   8.522  16.874  0.00  0.00    +0.000 OA
ATOM     24  N   UNL     1       2.361   7.135  18.734  0.00  0.00    +0.000 N 
ATOM     25  H   UNL     1       1.990   7.048  19.683  0.00  0.00    +0.000 HD
BRANCH  24  26
ATOM     26  C   UNL     1       2.812   5.932  18.131  0.00  0.00    +0.000 A 
ATOM     27  C   UNL     1       1.969   4.826  17.972  0.00  0.00    +0.000 A 
ATOM     28  C   UNL     1       2.460   3.605  17.514  0.00  0.00    +0.000 A 
ATOM     29  C   UNL     1       3.800   3.473  17.172  0.00  0.00    +0.000 A 
ATOM     30  C   UNL     1       4.641   4.586  17.245  0.00  0.00    +0.000 A 
ATOM     31  C   UNL     1       4.148   5.810  17.709  0.00  0.00    +0.000 A 
ATOM     32 CL   UNL     1       5.245   7.146  17.787  0.00  0.00    +0.000 Cl
ENDBRANCH  24  26
ENDBRANCH   9  22
TORSDOF 3
ENDMDL
MODEL 8
REMARK VINA RESULT:      -7.2      3.161      9.927
REMARK  Name = 
REMARK  5 active torsions:
REMARK  status: ('A' for Active; 'I' for Inactive)
REMARK    1  A    between atoms: C_1  and  C_2
REMARK    2  A    between atoms: C_2  and  C_3
REMARK    3  A    between atoms: C_9  and  C_10
REMARK    4  A    between atoms: N_12  and  C_13
REMARK    5  A    between atoms: N_22  and  C_23
REMARK                            x       y       z     vdW  Elec       q    Type
REMARK                         _______ _______ _______ _____ _____    ______ ____
ROOT
ATOM      1  C   UNL     1       1.102  16.620  20.193  0.00  0.00    +0.000 C 
ATOM      2  C   UNL     1       1.588  15.167  20.047  0.00  0.00    +0.000 C 
ATOM      3  C   UNL     1       2.643  14.903  21.145  0.00  0.00    +0.000 C 
ATOM      4  C   UNL     1       2.192  14.964  18.654  0.00  0.00    +0.000 C 
ATOM      5  C   UNL     1       2.602  13.523  18.455  0.00  0.00    +0.000 C 
ATOM      6  O   UNL     1       3.620  13.235  17.827  0.00  0.00    +0.000 OA
ATOM      7  C   UNL     1       1.702  12.450  19.002  0.00  0.00    +0.000 A 
ATOM      8  C   UNL     1       1.965  11.072  18.672  0.00  0.00    +0.000 A 
ATOM      9  C   UNL     1       1.219  10.065  19.160  0.00  0.00    +0.000 A 
ATOM     10  C   UNL     1       0.091  10.388  20.074  0.00  0.00    +0.000 A 
ATOM     11  O   UNL     1      -0.569   9.453  20.537  0.00  0.00    +0.000 OA
ATOM     12  N   UNL     1      -0.174  11.754  20.307  0.00  0.00    +0.000 N 
ATOM     13  C   UNL     1       0.652  12.775  19.784  0.00  0.00    +0.000 A 
ATOM     14  C   UNL     1       0.382  14.212  20.198  0.00  0.00    +0.000 C 
ENDROOT
BRANCH  12  15
ATOM     15  C   UNL     1      -1.344  12.030  21.080  0.00  0.00    +0.000 A 
ATOM     16  C   UNL     1      -2.533  12.402  20.442  0.00  0.00    +0.000 A 
ATOM     17  C   UNL     1      -3.665  12.728  21.190  0.00  0.00    +0.000 A 
ATOM     18  C   UNL     1      -3.605  12.696  22.581  0.00  0.00    +0.000 A 
ATOM     19 CL   UNL     1      -4.990  13.129  23.504  0.00  0.00    +0.000 Cl
ATOM     20  C   UNL     1      -2.426  12.332  23.231  0.00  0.00    +0.000 A 
ATOM     21  C   UNL     1      -1.295  11.996  22.481  0.00  0.00    +0.000 A 
ENDBRANCH  12  15
BRANCH   9  22
ATOM     22  C   UNL     1       1.539   8.684  18.691  0.00  0.00    +0.000 C 
ATOM     23  O   UNL     1       1.195   8.354  17.556  0.00  0.00    +0.000 OA
ATOM     24  N   UNL     1       2.159   7.855  19.606  0.00  0.00    +0.000 N 
ATOM     25  H   UNL     1       2.223   8.184  20.573  0.00  0.00    +0.000 HD
BRANCH  24  26
ATOM     26  C   UNL     1       2.483   6.490  19.393  0.00  0.00    +0.000 A 
ATOM     27  C   UNL     1       1.833   5.461  20.084  0.00  0.00    +0.000 A 
ATOM     28  C   UNL     1       2.258   4.138  19.975  0.00  0.00    +0.000 A 
ATOM     29  C   UNL     1       3.323   3.810  19.146  0.00  0.00    +0.000 A 
ATOM     30  C   UNL     1       3.935   4.810  18.385  0.00  0.00    +0.000 A 
ATOM     31  C   UNL     1       3.510   6.138  18.499  0.00  0.00    +0.000 A 
ATOM     32 CL   UNL     1       4.317   7.329  17.537  0.00  0.00    +0.000 Cl
ENDBRANCH  24  26
ENDBRANCH   9  22
TORSDOF 3
ENDMDL
MODEL 9
REMARK VINA RESULT:      -7.0      4.741     11.863
REMARK  Name = 
REMARK  5 active torsions:
REMARK  status: ('A' for Active; 'I' for Inactive)
REMARK    1  A    between atoms: C_1  and  C_2
REMARK    2  A    between atoms: C_2  and  C_3
REMARK    3  A    between atoms: C_9  and  C_10
REMARK    4  A    between atoms: N_12  and  C_13
REMARK    5  A    between atoms: N_22  and  C_23
REMARK                            x       y       z     vdW  Elec       q    Type
REMARK                         _______ _______ _______ _____ _____    ______ ____
ROOT
ATOM      1  C   UNL     1      -3.844  18.581  20.555  0.00  0.00    +0.000 C 
ATOM      2  C   UNL     1      -2.662  17.598  20.607  0.00  0.00    +0.000 C 
ATOM      3  C   UNL     1      -1.738  18.022  21.769  0.00  0.00    +0.000 C 
ATOM      4  C   UNL     1      -1.908  17.630  19.273  0.00  0.00    +0.000 C 
ATOM      5  C   UNL     1      -0.792  16.612  19.267  0.00  0.00    +0.000 C 
ATOM      6  O   UNL     1       0.283  16.853  18.720  0.00  0.00    +0.000 OA
ATOM      7  C   UNL     1      -1.050  15.275  19.905  0.00  0.00    +0.000 A 
ATOM      8  C   UNL     1      -0.078  14.221  19.755  0.00  0.00    +0.000 A 
ATOM      9  C   UNL     1      -0.235  13.017  20.332  0.00  0.00    +0.000 A 
ATOM     10  C   UNL     1      -1.449  12.769  21.155  0.00  0.00    +0.000 A 
ATOM     11  O   UNL     1      -1.568  11.669  21.701  0.00  0.00    +0.000 OA
ATOM     12  N   UNL     1      -2.408  13.803  21.209  0.00  0.00    +0.000 N 
ATOM     13  C   UNL     1      -2.187  15.060  20.599  0.00  0.00    +0.000 A 
ATOM     14  C   UNL     1      -3.204  16.166  20.825  0.00  0.00    +0.000 C 
ENDROOT
BRANCH  12  15
ATOM     15  C   UNL     1      -3.619  13.483  21.896  0.00  0.00    +0.000 A 
ATOM     16  C   UNL     1      -4.727  13.014  21.179  0.00  0.00    +0.000 A 
ATOM     17  C   UNL     1      -5.932  12.752  21.833  0.00  0.00    +0.000 A 
ATOM     18  C   UNL     1      -6.035  12.973  23.204  0.00  0.00    +0.000 A 
ATOM     19 CL   UNL     1      -7.530  12.680  24.004  0.00  0.00    +0.000 Cl
ATOM     20  C   UNL     1      -4.942  13.445  23.930  0.00  0.00    +0.000 A 
ATOM     21  C   UNL     1      -3.732  13.699  23.277  0.00  0.00    +0.000 A 
ENDBRANCH  12  15
BRANCH   9  22
ATOM     22  C   UNL     1       0.801  11.979  20.048  0.00  0.00    +0.000 C 
ATOM     23  O   UNL     1       1.987  12.304  20.101  0.00  0.00    +0.000 OA
ATOM     24  N   UNL     1       0.334  10.730  19.688  0.00  0.00    +0.000 N 
ATOM     25  H   UNL     1      -0.667  10.637  19.498  0.00  0.00    +0.000 HD
BRANCH  24  26
ATOM     26  C   UNL     1       1.142   9.627  19.308  0.00  0.00    +0.000 A 
ATOM     27  C   UNL     1       1.637   9.490  18.006  0.00  0.00    +0.000 A 
ATOM     28  C   UNL     1       2.304   8.334  17.606  0.00  0.00    +0.000 A 
ATOM     29  C   UNL     1       2.522   7.302  18.510  0.00  0.00    +0.000 A 
ATOM     30  C   UNL     1       2.108   7.451  19.836  0.00  0.00    +0.000 A 
ATOM     31  C   UNL     1       1.433   8.611  20.235  0.00  0.00    +0.000 A 
ATOM     32 CL   UNL     1       0.938   8.728  21.889  0.00  0.00    +0.000 Cl
ENDBRANCH  24  26
ENDBRANCH   9  22
TORSDOF 3
ENDMDL
