MODEL 1
REMARK VINA RESULT:      -6.7      0.000      0.000
REMARK  Name = 
REMARK  3 active torsions:
REMARK  status: ('A' for Active; 'I' for Inactive)
REMARK    1  A    between atoms: N_2  and  C_10
REMARK    2  A    between atoms: C_3  and  C_4
REMARK    3  A    between atoms: C_10  and  C_11
REMARK                            x       y       z     vdW  Elec       q    Type
REMARK                         _______ _______ _______ _____ _____    ______ ____
ROOT
ATOM      1  O   UNL     1       6.336   4.148  18.608  0.00  0.00    +0.000 OA
ATOM      2  N   UNL     1       5.300   4.843  18.326  0.00  0.00    +0.000 N 
ATOM      3  C   UNL     1       5.031   5.185  17.083  0.00  0.00    +0.000 C 
ENDROOT
BRANCH   3   4
ATOM      4  C   UNL     1       5.786   4.913  15.896  0.00  0.00    +0.000 A 
ATOM      5  C   UNL     1       7.053   5.269  15.473  0.00  0.00    +0.000 A 
ATOM      6  C   UNL     1       7.210   4.748  14.165  0.00  0.00    +0.000 A 
ATOM      7  C   UNL     1       6.036   4.094  13.873  0.00  0.00    +0.000 A 
ATOM      8 BR   UNL     1       5.671   3.218  12.267  0.00  0.00    +0.000 Br
ATOM      9  O   UNL     1       5.168   4.189  14.916  0.00  0.00    +0.000 OA
ENDBRANCH   3   4
BRANCH   2  10
ATOM     10  C   UNL     1       4.449   5.305  19.455  0.00  0.00    +0.000 C 
BRANCH  10  11
ATOM     11  C   UNL     1       3.239   4.443  19.700  0.00  0.00    +0.000 A 
ATOM     12  C   UNL     1       2.056   5.001  20.207  0.00  0.00    +0.000 A 
ATOM     13  C   UNL     1       0.932   4.202  20.428  0.00  0.00    +0.000 A 
ATOM     14  C   UNL     1       0.976   2.841  20.137  0.00  0.00    +0.000 A 
ATOM     15  C   UNL     1       2.136   2.280  19.608  0.00  0.00    +0.000 A 
ATOM     16  C   UNL     1       3.262   3.077  19.386  0.00  0.00    +0.000 A 
ENDBRANCH  10  11
ENDBRANCH   2  10
TORSDOF 3
ENDMDL
MODEL 2
REMARK VINA RESULT:      -6.6      1.481      1.585
REMARK  Name = 
REMARK  3 active torsions:
REMARK  status: ('A' for Active; 'I' for Inactive)
REMARK    1  A    between atoms: N_2  and  C_10
REMARK    2  A    between atoms: C_3  and  C_4
REMARK    3  A    between atoms: C_10  and  C_11
REMARK                            x       y       z     vdW  Elec       q    Type
REMARK                         _______ _______ _______ _____ _____    ______ ____
ROOT
ATOM      1  O   UNL     1       3.852   7.221  16.911  0.00  0.00    +0.000 OA
ATOM      2  N   UNL     1       3.969   6.298  17.790  0.00  0.00    +0.000 N 
ATOM      3  C   UNL     1       4.808   5.298  17.615  0.00  0.00    +0.000 C 
ENDROOT
BRANCH   3   4
ATOM      4  C   UNL     1       5.661   5.029  16.496  0.00  0.00    +0.000 A 
ATOM      5  C   UNL     1       6.981   5.325  16.215  0.00  0.00    +0.000 A 
ATOM      6  C   UNL     1       7.239   4.850  14.906  0.00  0.00    +0.000 A 
ATOM      7  C   UNL     1       6.065   4.280  14.470  0.00  0.00    +0.000 A 
ATOM      8 BR   UNL     1       5.814   3.494  12.798  0.00  0.00    +0.000 Br
ATOM      9  O   UNL     1       5.104   4.384  15.428  0.00  0.00    +0.000 OA
ENDBRANCH   3   4
BRANCH   2  10
ATOM     10  C   UNL     1       3.079   6.360  18.980  0.00  0.00    +0.000 C 
BRANCH  10  11
ATOM     11  C   UNL     1       2.283   5.103  19.215  0.00  0.00    +0.000 A 
ATOM     12  C   UNL     1       1.950   4.702  20.517  0.00  0.00    +0.000 A 
ATOM     13  C   UNL     1       1.207   3.541  20.733  0.00  0.00    +0.000 A 
ATOM     14  C   UNL     1       0.781   2.773  19.652  0.00  0.00    +0.000 A 
ATOM     15  C   UNL     1       1.082   3.176  18.353  0.00  0.00    +0.000 A 
ATOM     16  C   UNL     1       1.826   4.337  18.133  0.00  0.00    +0.000 A 
ENDBRANCH  10  11
ENDBRANCH   2  10
TORSDOF 3
ENDMDL
MODEL 3
REMARK VINA RESULT:      -6.5      1.603      1.822
REMARK  Name = 
REMARK  3 active torsions:
REMARK  status: ('A' for Active; 'I' for Inactive)
REMARK    1  A    between atoms: N_2  and  C_10
REMARK    2  A    between atoms: C_3  and  C_4
REMARK    3  A    between atoms: C_10  and  C_11
REMARK                            x       y       z     vdW  Elec       q    Type
REMARK                         _______ _______ _______ _____ _____    ______ ____
ROOT
ATOM      1  O   UNL     1       4.222   7.067  17.550  0.00  0.00    +0.000 OA
ATOM      2  N   UNL     1       3.563   5.988  17.751  0.00  0.00    +0.000 N 
ATOM      3  C   UNL     1       3.975   4.840  17.257  0.00  0.00    +0.000 C 
ENDROOT
BRANCH   3   4
ATOM      4  C   UNL     1       5.118   4.577  16.434  0.00  0.00    +0.000 A 
ATOM      5  C   UNL     1       6.481   4.622  16.658  0.00  0.00    +0.000 A 
ATOM      6  C   UNL     1       7.110   4.319  15.426  0.00  0.00    +0.000 A 
ATOM      7  C   UNL     1       6.095   4.095  14.526  0.00  0.00    +0.000 A 
ATOM      8 BR   UNL     1       6.336   3.661  12.728  0.00  0.00    +0.000 Br
ATOM      9  O   UNL     1       4.885   4.248  15.128  0.00  0.00    +0.000 OA
ENDBRANCH   3   4
BRANCH   2  10
ATOM     10  C   UNL     1       2.285   6.091  18.505  0.00  0.00    +0.000 C 
BRANCH  10  11
ATOM     11  C   UNL     1       1.987   4.892  19.367  0.00  0.00    +0.000 A 
ATOM     12  C   UNL     1       1.279   3.798  18.847  0.00  0.00    +0.000 A 
ATOM     13  C   UNL     1       1.008   2.684  19.644  0.00  0.00    +0.000 A 
ATOM     14  C   UNL     1       1.449   2.647  20.964  0.00  0.00    +0.000 A 
ATOM     15  C   UNL     1       2.177   3.716  21.483  0.00  0.00    +0.000 A 
ATOM     16  C   UNL     1       2.449   4.831  20.689  0.00  0.00    +0.000 A 
ENDBRANCH  10  11
ENDBRANCH   2  10
TORSDOF 3
ENDMDL
MODEL 4
REMARK VINA RESULT:      -6.5      1.102      1.300
REMARK  Name = 
REMARK  3 active torsions:
REMARK  status: ('A' for Active; 'I' for Inactive)
REMARK    1  A    between atoms: N_2  and  C_10
REMARK    2  A    between atoms: C_3  and  C_4
REMARK    3  A    between atoms: C_10  and  C_11
REMARK                            x       y       z     vdW  Elec       q    Type
REMARK                         _______ _______ _______ _____ _____    ______ ____
ROOT
ATOM      1  O   UNL     1       4.380   3.656  17.732  0.00  0.00    +0.000 OA
ATOM      2  N   UNL     1       4.131   4.900  17.567  0.00  0.00    +0.000 N 
ATOM      3  C   UNL     1       4.675   5.576  16.577  0.00  0.00    +0.000 C 
ENDROOT
BRANCH   3   4
ATOM      4  C   UNL     1       5.604   5.120  15.587  0.00  0.00    +0.000 A 
ATOM      5  C   UNL     1       6.963   5.295  15.407  0.00  0.00    +0.000 A 
ATOM      6  C   UNL     1       7.303   4.649  14.193  0.00  0.00    +0.000 A 
ATOM      7  C   UNL     1       6.135   4.108  13.710  0.00  0.00    +0.000 A 
ATOM      8 BR   UNL     1       5.979   3.143  12.121  0.00  0.00    +0.000 Br
ATOM      9  O   UNL     1       5.101   4.388  14.548  0.00  0.00    +0.000 OA
ENDBRANCH   3   4
BRANCH   2  10
ATOM     10  C   UNL     1       3.259   5.568  18.571  0.00  0.00    +0.000 C 
BRANCH  10  11
ATOM     11  C   UNL     1       2.486   4.611  19.441  0.00  0.00    +0.000 A 
ATOM     12  C   UNL     1       1.462   3.822  18.899  0.00  0.00    +0.000 A 
ATOM     13  C   UNL     1       0.751   2.931  19.704  0.00  0.00    +0.000 A 
ATOM     14  C   UNL     1       1.061   2.812  21.057  0.00  0.00    +0.000 A 
ATOM     15  C   UNL     1       2.095   3.571  21.601  0.00  0.00    +0.000 A 
ATOM     16  C   UNL     1       2.808   4.463  20.798  0.00  0.00    +0.000 A 
ENDBRANCH  10  11
ENDBRANCH   2  10
TORSDOF 3
ENDMDL
MODEL 5
REMARK VINA RESULT:      -6.3      1.775      2.574
REMARK  Name = 
REMARK  3 active torsions:
REMARK  status: ('A' for Active; 'I' for Inactive)
REMARK    1  A    between atoms: N_2  and  C_10
REMARK    2  A    between atoms: C_3  and  C_4
REMARK    3  A    between atoms: C_10  and  C_11
REMARK                            x       y       z     vdW  Elec       q    Type
REMARK                         _______ _______ _______ _____ _____    ______ ____
ROOT
ATOM      1  O   UNL     1       5.230   6.840  15.306  0.00  0.00    +0.000 OA
ATOM      2  N   UNL     1       5.891   6.073  16.088  0.00  0.00    +0.000 N 
ATOM      3  C   UNL     1       6.630   5.093  15.612  0.00  0.00    +0.000 C 
ENDROOT
BRANCH   3   4
ATOM      4  C   UNL     1       6.809   4.688  14.249  0.00  0.00    +0.000 A 
ATOM      5  C   UNL     1       7.607   5.146  13.219  0.00  0.00    +0.000 A 
ATOM      6  C   UNL     1       7.286   4.373  12.076  0.00  0.00    +0.000 A 
ATOM      7  C   UNL     1       6.321   3.480  12.480  0.00  0.00    +0.000 A 
ATOM      8 BR   UNL     1       5.512   2.209  11.381  0.00  0.00    +0.000 Br
ATOM      9  O   UNL     1       6.027   3.663  13.795  0.00  0.00    +0.000 OA
ENDBRANCH   3   4
BRANCH   2  10
ATOM     10  C   UNL     1       5.741   6.285  17.553  0.00  0.00    +0.000 C 
BRANCH  10  11
ATOM     11  C   UNL     1       4.631   5.481  18.177  0.00  0.00    +0.000 A 
ATOM     12  C   UNL     1       4.920   4.361  18.969  0.00  0.00    +0.000 A 
ATOM     13  C   UNL     1       3.891   3.619  19.552  0.00  0.00    +0.000 A 
ATOM     14  C   UNL     1       2.564   3.994  19.358  0.00  0.00    +0.000 A 
ATOM     15  C   UNL     1       2.265   5.121  18.595  0.00  0.00    +0.000 A 
ATOM     16  C   UNL     1       3.292   5.864  18.011  0.00  0.00    +0.000 A 
ENDBRANCH  10  11
ENDBRANCH   2  10
TORSDOF 3
ENDMDL
MODEL 6
REMARK VINA RESULT:      -6.3      1.083      1.571
REMARK  Name = 
REMARK  3 active torsions:
REMARK  status: ('A' for Active; 'I' for Inactive)
REMARK    1  A    between atoms: N_2  and  C_10
REMARK    2  A    between atoms: C_3  and  C_4
REMARK    3  A    between atoms: C_10  and  C_11
REMARK                            x       y       z     vdW  Elec       q    Type
REMARK                         _______ _______ _______ _____ _____    ______ ____
ROOT
ATOM      1  O   UNL     1       3.932   4.415  16.974  0.00  0.00    +0.000 OA
ATOM      2  N   UNL     1       5.007   4.274  17.653  0.00  0.00    +0.000 N 
ATOM      3  C   UNL     1       6.185   4.272  17.066  0.00  0.00    +0.000 C 
ENDROOT
BRANCH   3   4
ATOM      4  C   UNL     1       6.489   4.378  15.670  0.00  0.00    +0.000 A 
ATOM      5  C   UNL     1       7.325   5.200  14.939  0.00  0.00    +0.000 A 
ATOM      6  C   UNL     1       7.141   4.865  13.575  0.00  0.00    +0.000 A 
ATOM      7  C   UNL     1       6.215   3.848  13.555  0.00  0.00    +0.000 A 
ATOM      8 BR   UNL     1       5.578   3.012  12.014  0.00  0.00    +0.000 Br
ATOM      9  O   UNL     1       5.815   3.546  14.819  0.00  0.00    +0.000 OA
ENDBRANCH   3   4
BRANCH   2  10
ATOM     10  C   UNL     1       4.874   4.048  19.118  0.00  0.00    +0.000 C 
BRANCH  10  11
ATOM     11  C   UNL     1       3.457   3.817  19.574  0.00  0.00    +0.000 A 
ATOM     12  C   UNL     1       2.863   2.553  19.443  0.00  0.00    +0.000 A 
ATOM     13  C   UNL     1       1.552   2.338  19.872  0.00  0.00    +0.000 A 
ATOM     14  C   UNL     1       0.824   3.379  20.443  0.00  0.00    +0.000 A 
ATOM     15  C   UNL     1       1.413   4.631  20.603  0.00  0.00    +0.000 A 
ATOM     16  C   UNL     1       2.724   4.850  20.175  0.00  0.00    +0.000 A 
ENDBRANCH  10  11
ENDBRANCH   2  10
TORSDOF 3
ENDMDL
MODEL 7
REMARK VINA RESULT:      -6.3      1.780      2.297
REMARK  Name = 
REMARK  3 active torsions:
REMARK  status: ('A' for Active; 'I' for Inactive)
REMARK    1  A    between atoms: N_2  and  C_10
REMARK    2  A    between atoms: C_3  and  C_4
REMARK    3  A    between atoms: C_10  and  C_11
REMARK                            x       y       z     vdW  Elec       q    Type
REMARK                         _______ _______ _______ _____ _____    ______ ____
ROOT
ATOM      1  O   UNL     1       5.186   6.833  15.252  0.00  0.00    +0.000 OA
ATOM      2  N   UNL     1       5.480   5.883  16.058  0.00  0.00    +0.000 N 
ATOM      3  C   UNL     1       5.868   4.708  15.609  0.00  0.00    +0.000 C 
ENDROOT
BRANCH   3   4
ATOM      4  C   UNL     1       5.995   4.265  14.253  0.00  0.00    +0.000 A 
ATOM      5  C   UNL     1       7.070   4.121  13.397  0.00  0.00    +0.000 A 
ATOM      6  C   UNL     1       6.548   3.701  12.149  0.00  0.00    +0.000 A 
ATOM      7  C   UNL     1       5.187   3.602  12.320  0.00  0.00    +0.000 A 
ATOM      8 BR   UNL     1       3.976   3.094  10.995  0.00  0.00    +0.000 Br
ATOM      9  O   UNL     1       4.843   3.941  13.592  0.00  0.00    +0.000 OA
ENDBRANCH   3   4
BRANCH   2  10
ATOM     10  C   UNL     1       5.307   6.135  17.514  0.00  0.00    +0.000 C 
BRANCH  10  11
ATOM     11  C   UNL     1       4.270   5.258  18.166  0.00  0.00    +0.000 A 
ATOM     12  C   UNL     1       2.912   5.399  17.844  0.00  0.00    +0.000 A 
ATOM     13  C   UNL     1       1.952   4.582  18.444  0.00  0.00    +0.000 A 
ATOM     14  C   UNL     1       2.339   3.610  19.363  0.00  0.00    +0.000 A 
ATOM     15  C   UNL     1       3.688   3.442  19.670  0.00  0.00    +0.000 A 
ATOM     16  C   UNL     1       4.650   4.258  19.072  0.00  0.00    +0.000 A 
ENDBRANCH  10  11
ENDBRANCH   2  10
TORSDOF 3
ENDMDL
MODEL 8
REMARK VINA RESULT:      -6.2      4.423      6.458
REMARK  Name = 
REMARK  3 active torsions:
REMARK  status: ('A' for Active; 'I' for Inactive)
REMARK    1  A    between atoms: N_2  and  C_10
REMARK    2  A    between atoms: C_3  and  C_4
REMARK    3  A    between atoms: C_10  and  C_11
REMARK                            x       y       z     vdW  Elec       q    Type
REMARK                         _______ _______ _______ _____ _____    ______ ____
ROOT
ATOM      1  O   UNL     1       1.720   5.037  17.931  0.00  0.00    +0.000 OA
ATOM      2  N   UNL     1       2.819   5.294  18.534  0.00  0.00    +0.000 N 
ATOM      3  C   UNL     1       3.086   6.506  18.973  0.00  0.00    +0.000 C 
ENDROOT
BRANCH   3   4
ATOM      4  C   UNL     1       2.298   7.696  18.849  0.00  0.00    +0.000 A 
ATOM      5  C   UNL     1       2.020   8.546  17.796  0.00  0.00    +0.000 A 
ATOM      6  C   UNL     1       1.225   9.598  18.316  0.00  0.00    +0.000 A 
ATOM      7  C   UNL     1       1.055   9.321  19.652  0.00  0.00    +0.000 A 
ATOM      8 BR   UNL     1       0.093  10.378  20.850  0.00  0.00    +0.000 Br
ATOM      9  O   UNL     1       1.700   8.170  19.983  0.00  0.00    +0.000 OA
ENDBRANCH   3   4
BRANCH   2  10
ATOM     10  C   UNL     1       3.809   4.191  18.663  0.00  0.00    +0.000 C 
BRANCH  10  11
ATOM     11  C   UNL     1       4.958   4.284  17.693  0.00  0.00    +0.000 A 
ATOM     12  C   UNL     1       6.249   4.593  18.144  0.00  0.00    +0.000 A 
ATOM     13  C   UNL     1       7.314   4.674  17.245  0.00  0.00    +0.000 A 
ATOM     14  C   UNL     1       7.103   4.437  15.889  0.00  0.00    +0.000 A 
ATOM     15  C   UNL     1       5.830   4.103  15.433  0.00  0.00    +0.000 A 
ATOM     16  C   UNL     1       4.762   4.022  16.330  0.00  0.00    +0.000 A 
ENDBRANCH  10  11
ENDBRANCH   2  10
TORSDOF 3
ENDMDL
MODEL 9
REMARK VINA RESULT:      -6.2      1.546      1.684
REMARK  Name = 
REMARK  3 active torsions:
REMARK  status: ('A' for Active; 'I' for Inactive)
REMARK    1  A    between atoms: N_2  and  C_10
REMARK    2  A    between atoms: C_3  and  C_4
REMARK    3  A    between atoms: C_10  and  C_11
REMARK                            x       y       z     vdW  Elec       q    Type
REMARK                         _______ _______ _______ _____ _____    ______ ____
ROOT
ATOM      1  O   UNL     1       3.890   4.798  17.068  0.00  0.00    +0.000 OA
ATOM      2  N   UNL     1       4.991   4.649  17.702  0.00  0.00    +0.000 N 
ATOM      3  C   UNL     1       6.130   4.503  17.058  0.00  0.00    +0.000 C 
ENDROOT
BRANCH   3   4
ATOM      4  C   UNL     1       6.359   4.445  15.645  0.00  0.00    +0.000 A 
ATOM      5  C   UNL     1       5.859   3.648  14.634  0.00  0.00    +0.000 A 
ATOM      6  C   UNL     1       6.524   4.030  13.443  0.00  0.00    +0.000 A 
ATOM      7  C   UNL     1       7.381   5.047  13.795  0.00  0.00    +0.000 A 
ATOM      8 BR   UNL     1       8.527   5.935  12.622  0.00  0.00    +0.000 Br
ATOM      9  O   UNL     1       7.287   5.305  15.128  0.00  0.00    +0.000 OA
ENDBRANCH   3   4
BRANCH   2  10
ATOM     10  C   UNL     1       4.929   4.582  19.187  0.00  0.00    +0.000 C 
BRANCH  10  11
ATOM     11  C   UNL     1       3.582   4.175  19.724  0.00  0.00    +0.000 A 
ATOM     12  C   UNL     1       2.666   5.143  20.159  0.00  0.00    +0.000 A 
ATOM     13  C   UNL     1       1.415   4.765  20.651  0.00  0.00    +0.000 A 
ATOM     14  C   UNL     1       1.063   3.419  20.705  0.00  0.00    +0.000 A 
ATOM     15  C   UNL     1       1.955   2.450  20.250  0.00  0.00    +0.000 A 
ATOM     16  C   UNL     1       3.207   2.824  19.758  0.00  0.00    +0.000 A 
ENDBRANCH  10  11
ENDBRANCH   2  10
TORSDOF 3
ENDMDL
