MODEL 1
REMARK VINA RESULT:      -8.9      0.000      0.000
REMARK  Name = 
REMARK  9 active torsions:
REMARK  status: ('A' for Active; 'I' for Inactive)
REMARK    1  A    between atoms: C_4  and  C_5
REMARK    2  A    between atoms: C_5  and  C_6
REMARK    3  A    between atoms: C_6  and  N_7
REMARK    4  A    between atoms: N_7  and  C_8
REMARK    5  A    between atoms: C_8  and  C_9
REMARK    6  A    between atoms: C_13  and  C_14
REMARK    7  A    between atoms: C_14  and  O_15
REMARK    8  A    between atoms: O_15  and  C_16
REMARK    9  A    between atoms: C_19  and  C_20
REMARK                            x       y       z     vdW  Elec       q    Type
REMARK                         _______ _______ _______ _____ _____    ______ ____
ROOT
ATOM      1  O   UNL     1       0.143   9.668  17.590  0.00  0.00    +0.000 OA
ENDROOT
BRANCH   1   2
ATOM      2  C   UNL     1      -0.899  10.314  18.164  0.00  0.00    +0.000 A 
ATOM      3  N   UNL     1      -0.843  10.876  19.332  0.00  0.00    +0.000 NA
ATOM      4  N   UNL     1      -1.979  11.563  19.675  0.00  0.00    +0.000 N 
ATOM      5  C   UNL     1      -2.313  12.166  20.871  0.00  0.00    +0.000 A 
ATOM      6  N   UNL     1      -3.514  12.716  20.745  0.00  0.00    +0.000 NA
ATOM      7  N   UNL     1      -3.971  12.494  19.474  0.00  0.00    +0.000 NA
ATOM      8  C   UNL     1      -3.050  11.814  18.841  0.00  0.00    +0.000 A 
ATOM      9  C   UNL     1      -3.062  11.253  17.514  0.00  0.00    +0.000 A 
ATOM     10  C   UNL     1      -4.076  11.520  16.591  0.00  0.00    +0.000 A 
ATOM     11  C   UNL     1      -4.123  10.798  15.398  0.00  0.00    +0.000 A 
ATOM     12  C   UNL     1      -3.177   9.804  15.144  0.00  0.00    +0.000 A 
ATOM     13  C   UNL     1      -2.120   9.586  16.036  0.00  0.00    +0.000 A 
ATOM     14  C   UNL     1      -2.043  10.348  17.204  0.00  0.00    +0.000 A 
BRANCH   5  15
ATOM     15  C   UNL     1      -1.436  12.279  22.090  0.00  0.00    +0.000 C 
ATOM     16  C   UNL     1      -1.032  13.748  22.347  0.00  0.00    +0.000 C 
ATOM     17  C   UNL     1      -2.192  14.609  22.855  0.00  0.00    +0.000 C 
ATOM     18  C   UNL     1      -2.901  13.999  24.061  0.00  0.00    +0.000 C 
ATOM     19  C   UNL     1      -3.220  12.517  23.897  0.00  0.00    +0.000 C 
ATOM     20  C   UNL     1      -2.032  11.710  23.382  0.00  0.00    +0.000 C 
ENDBRANCH   5  15
ENDBRANCH   1   2
BRANCH   1  21
ATOM     21  C   UNL     1       1.445   9.813  18.187  0.00  0.00    +0.000 C 
BRANCH  21  26
ATOM     22  C   UNL     1       3.504   6.732  18.106  0.00  0.00    +0.000 A 
ATOM     23  C   UNL     1       3.238   6.127  19.331  0.00  0.00    +0.000 A 
ATOM     24  C   UNL     1       2.347   6.743  20.202  0.00  0.00    +0.000 A 
ATOM     25  C   UNL     1       1.744   7.936  19.829  0.00  0.00    +0.000 A 
ATOM     26  C   UNL     1       2.043   8.483  18.584  0.00  0.00    +0.000 A 
ATOM     27  N   UNL     1       2.928   7.903  17.730  0.00  0.00    +0.000 NA
BRANCH  22  28
ATOM     28  C   UNL     1       4.440   6.067  17.115  0.00  0.00    +0.000 C 
BRANCH  28  29
ATOM     29  N   UNL     1       4.824   4.689  17.468  0.00  0.00    +0.000 NA
ATOM     30  H   UNL     1       5.743   4.506  17.067  0.00  0.00    +0.000 HD
BRANCH  29  31
ATOM     31  C   UNL     1       3.870   3.712  16.916  0.00  0.00    +0.000 C 
BRANCH  31  32
ATOM     32  C   UNL     1       3.791   2.473  17.822  0.00  0.00    +0.000 C 
BRANCH  32  36
ATOM     33  C   UNL     1       1.200   3.028  21.233  0.00  0.00    +0.000 A 
ATOM     34  C   UNL     1       0.687   3.126  19.941  0.00  0.00    +0.000 A 
ATOM     35  C   UNL     1       1.526   2.951  18.840  0.00  0.00    +0.000 A 
ATOM     36  C   UNL     1       2.889   2.675  19.019  0.00  0.00    +0.000 A 
ATOM     37  C   UNL     1       3.388   2.565  20.323  0.00  0.00    +0.000 A 
ATOM     38  C   UNL     1       2.551   2.748  21.422  0.00  0.00    +0.000 A 
ENDBRANCH  32  36
ENDBRANCH  31  32
ENDBRANCH  29  31
ENDBRANCH  28  29
ENDBRANCH  22  28
ENDBRANCH  21  26
ENDBRANCH   1  21
TORSDOF 9
ENDMDL
MODEL 2
REMARK VINA RESULT:      -8.8      1.032      1.213
REMARK  Name = 
REMARK  9 active torsions:
REMARK  status: ('A' for Active; 'I' for Inactive)
REMARK    1  A    between atoms: C_4  and  C_5
REMARK    2  A    between atoms: C_5  and  C_6
REMARK    3  A    between atoms: C_6  and  N_7
REMARK    4  A    between atoms: N_7  and  C_8
REMARK    5  A    between atoms: C_8  and  C_9
REMARK    6  A    between atoms: C_13  and  C_14
REMARK    7  A    between atoms: C_14  and  O_15
REMARK    8  A    between atoms: O_15  and  C_16
REMARK    9  A    between atoms: C_19  and  C_20
REMARK                            x       y       z     vdW  Elec       q    Type
REMARK                         _______ _______ _______ _____ _____    ______ ____
ROOT
ATOM      1  O   UNL     1       0.016  10.767  18.642  0.00  0.00    +0.000 OA
ENDROOT
BRANCH   1   2
ATOM      2  C   UNL     1      -1.219  11.159  19.034  0.00  0.00    +0.000 A 
ATOM      3  N   UNL     1      -1.462  11.757  20.158  0.00  0.00    +0.000 NA
ATOM      4  N   UNL     1      -2.765  12.158  20.306  0.00  0.00    +0.000 N 
ATOM      5  C   UNL     1      -3.396  12.702  21.407  0.00  0.00    +0.000 A 
ATOM      6  N   UNL     1      -4.664  12.939  21.091  0.00  0.00    +0.000 NA
ATOM      7  N   UNL     1      -4.872  12.570  19.790  0.00  0.00    +0.000 NA
ATOM      8  C   UNL     1      -3.737  12.112  19.327  0.00  0.00    +0.000 A 
ATOM      9  C   UNL     1      -3.430  11.520  18.050  0.00  0.00    +0.000 A 
ATOM     10  C   UNL     1      -4.338  11.500  16.989  0.00  0.00    +0.000 A 
ATOM     11  C   UNL     1      -4.045  10.749  15.851  0.00  0.00    +0.000 A 
ATOM     12  C   UNL     1      -2.864  10.007  15.787  0.00  0.00    +0.000 A 
ATOM     13  C   UNL     1      -1.922  10.083  16.820  0.00  0.00    +0.000 A 
ATOM     14  C   UNL     1      -2.192  10.881  17.934  0.00  0.00    +0.000 A 
BRANCH   5  15
ATOM     15  C   UNL     1      -2.751  13.067  22.718  0.00  0.00    +0.000 C 
ATOM     16  C   UNL     1      -1.930  14.369  22.587  0.00  0.00    +0.000 C 
ATOM     17  C   UNL     1      -2.805  15.618  22.441  0.00  0.00    +0.000 C 
ATOM     18  C   UNL     1      -3.869  15.728  23.529  0.00  0.00    +0.000 C 
ATOM     19  C   UNL     1      -4.632  14.429  23.771  0.00  0.00    +0.000 C 
ATOM     20  C   UNL     1      -3.711  13.220  23.902  0.00  0.00    +0.000 C 
ENDBRANCH   5  15
ENDBRANCH   1   2
BRANCH   1  21
ATOM     21  C   UNL     1       1.009  10.534  19.657  0.00  0.00    +0.000 C 
BRANCH  21  26
ATOM     22  C   UNL     1       2.528   7.251  18.848  0.00  0.00    +0.000 A 
ATOM     23  C   UNL     1       2.223   6.466  19.956  0.00  0.00    +0.000 A 
ATOM     24  C   UNL     1       1.486   7.027  20.992  0.00  0.00    +0.000 A 
ATOM     25  C   UNL     1       1.071   8.348  20.894  0.00  0.00    +0.000 A 
ATOM     26  C   UNL     1       1.399   9.076  19.753  0.00  0.00    +0.000 A 
ATOM     27  N   UNL     1       2.136   8.547  18.741  0.00  0.00    +0.000 NA
BRANCH  22  28
ATOM     28  C   UNL     1       3.297   6.658  17.682  0.00  0.00    +0.000 C 
BRANCH  28  29
ATOM     29  N   UNL     1       4.180   5.535  18.041  0.00  0.00    +0.000 NA
ATOM     30  H   UNL     1       5.143   5.861  17.984  0.00  0.00    +0.000 HD
BRANCH  29  31
ATOM     31  C   UNL     1       4.013   4.406  17.108  0.00  0.00    +0.000 C 
BRANCH  31  32
ATOM     32  C   UNL     1       4.051   3.073  17.871  0.00  0.00    +0.000 C 
BRANCH  32  36
ATOM     33  C   UNL     1       1.162   2.869  21.075  0.00  0.00    +0.000 A 
ATOM     34  C   UNL     1       0.739   3.072  19.763  0.00  0.00    +0.000 A 
ATOM     35  C   UNL     1       1.674   3.142  18.729  0.00  0.00    +0.000 A 
ATOM     36  C   UNL     1       3.043   3.010  18.997  0.00  0.00    +0.000 A 
ATOM     37  C   UNL     1       3.454   2.792  20.318  0.00  0.00    +0.000 A 
ATOM     38  C   UNL     1       2.520   2.730  21.351  0.00  0.00    +0.000 A 
ENDBRANCH  32  36
ENDBRANCH  31  32
ENDBRANCH  29  31
ENDBRANCH  28  29
ENDBRANCH  22  28
ENDBRANCH  21  26
ENDBRANCH   1  21
TORSDOF 9
ENDMDL
MODEL 3
REMARK VINA RESULT:      -8.6      2.025      3.334
REMARK  Name = 
REMARK  9 active torsions:
REMARK  status: ('A' for Active; 'I' for Inactive)
REMARK    1  A    between atoms: C_4  and  C_5
REMARK    2  A    between atoms: C_5  and  C_6
REMARK    3  A    between atoms: C_6  and  N_7
REMARK    4  A    between atoms: N_7  and  C_8
REMARK    5  A    between atoms: C_8  and  C_9
REMARK    6  A    between atoms: C_13  and  C_14
REMARK    7  A    between atoms: C_14  and  O_15
REMARK    8  A    between atoms: O_15  and  C_16
REMARK    9  A    between atoms: C_19  and  C_20
REMARK                            x       y       z     vdW  Elec       q    Type
REMARK                         _______ _______ _______ _____ _____    ______ ____
ROOT
ATOM      1  O   UNL     1      -0.390  11.363  19.418  0.00  0.00    +0.000 OA
ENDROOT
BRANCH   1   2
ATOM      2  C   UNL     1      -1.715  11.605  19.547  0.00  0.00    +0.000 A 
ATOM      3  N   UNL     1      -2.237  12.251  20.543  0.00  0.00    +0.000 NA
ATOM      4  N   UNL     1      -3.584  12.473  20.420  0.00  0.00    +0.000 N 
ATOM      5  C   UNL     1      -4.472  13.008  21.331  0.00  0.00    +0.000 A 
ATOM      6  N   UNL     1      -5.679  13.037  20.778  0.00  0.00    +0.000 NA
ATOM      7  N   UNL     1      -5.593  12.538  19.506  0.00  0.00    +0.000 NA
ATOM      8  C   UNL     1      -4.343  12.211  19.297  0.00  0.00    +0.000 A 
ATOM      9  C   UNL     1      -3.732  11.569  18.162  0.00  0.00    +0.000 A 
ATOM     10  C   UNL     1      -4.417  11.336  16.967  0.00  0.00    +0.000 A 
ATOM     11  C   UNL     1      -3.825  10.544  15.982  0.00  0.00    +0.000 A 
ATOM     12  C   UNL     1      -2.570   9.975  16.202  0.00  0.00    +0.000 A 
ATOM     13  C   UNL     1      -1.854  10.267  17.369  0.00  0.00    +0.000 A 
ATOM     14  C   UNL     1      -2.424  11.105  18.330  0.00  0.00    +0.000 A 
BRANCH   5  15
ATOM     15  C   UNL     1      -4.134  13.565  22.689  0.00  0.00    +0.000 C 
ATOM     16  C   UNL     1      -4.413  15.083  22.751  0.00  0.00    +0.000 C 
ATOM     17  C   UNL     1      -5.908  15.417  22.765  0.00  0.00    +0.000 C 
ATOM     18  C   UNL     1      -6.676  14.657  23.843  0.00  0.00    +0.000 C 
ATOM     19  C   UNL     1      -6.347  13.169  23.893  0.00  0.00    +0.000 C 
ATOM     20  C   UNL     1      -4.846  12.896  23.869  0.00  0.00    +0.000 C 
ENDBRANCH   5  15
ENDBRANCH   1   2
BRANCH   1  21
ATOM     21  C   UNL     1       0.212  10.395  20.298  0.00  0.00    +0.000 C 
BRANCH  21  26
ATOM     22  C   UNL     1       2.103   7.321  19.454  0.00  0.00    +0.000 A 
ATOM     23  C   UNL     1       2.600   7.581  18.181  0.00  0.00    +0.000 A 
ATOM     24  C   UNL     1       2.317   8.805  17.588  0.00  0.00    +0.000 A 
ATOM     25  C   UNL     1       1.554   9.736  18.280  0.00  0.00    +0.000 A 
ATOM     26  C   UNL     1       1.097   9.419  19.556  0.00  0.00    +0.000 A 
ATOM     27  N   UNL     1       1.349   8.218  20.140  0.00  0.00    +0.000 NA
BRANCH  22  28
ATOM     28  C   UNL     1       2.426   6.010  20.146  0.00  0.00    +0.000 C 
BRANCH  28  29
ATOM     29  N   UNL     1       3.827   5.575  20.006  0.00  0.00    +0.000 NA
ATOM     30  H   UNL     1       4.294   6.220  19.370  0.00  0.00    +0.000 HD
BRANCH  29  31
ATOM     31  C   UNL     1       3.910   4.218  19.439  0.00  0.00    +0.000 C 
BRANCH  31  32
ATOM     32  C   UNL     1       3.608   4.249  17.932  0.00  0.00    +0.000 C 
BRANCH  32  36
ATOM     33  C   UNL     1       7.149   4.744  15.510  0.00  0.00    +0.000 A 
ATOM     34  C   UNL     1       5.890   4.733  14.914  0.00  0.00    +0.000 A 
ATOM     35  C   UNL     1       4.746   4.569  15.697  0.00  0.00    +0.000 A 
ATOM     36  C   UNL     1       4.851   4.413  17.086  0.00  0.00    +0.000 A 
ATOM     37  C   UNL     1       6.122   4.440  17.674  0.00  0.00    +0.000 A 
ATOM     38  C   UNL     1       7.264   4.597  16.890  0.00  0.00    +0.000 A 
ENDBRANCH  32  36
ENDBRANCH  31  32
ENDBRANCH  29  31
ENDBRANCH  28  29
ENDBRANCH  22  28
ENDBRANCH  21  26
ENDBRANCH   1  21
TORSDOF 9
ENDMDL
MODEL 4
REMARK VINA RESULT:      -8.6      2.293      4.225
REMARK  Name = 
REMARK  9 active torsions:
REMARK  status: ('A' for Active; 'I' for Inactive)
REMARK    1  A    between atoms: C_4  and  C_5
REMARK    2  A    between atoms: C_5  and  C_6
REMARK    3  A    between atoms: C_6  and  N_7
REMARK    4  A    between atoms: N_7  and  C_8
REMARK    5  A    between atoms: C_8  and  C_9
REMARK    6  A    between atoms: C_13  and  C_14
REMARK    7  A    between atoms: C_14  and  O_15
REMARK    8  A    between atoms: O_15  and  C_16
REMARK    9  A    between atoms: C_19  and  C_20
REMARK                            x       y       z     vdW  Elec       q    Type
REMARK                         _______ _______ _______ _____ _____    ______ ____
ROOT
ATOM      1  O   UNL     1      -0.779  13.069  19.854  0.00  0.00    +0.000 OA
ENDROOT
BRANCH   1   2
ATOM      2  C   UNL     1      -2.109  12.815  19.833  0.00  0.00    +0.000 A 
ATOM      3  N   UNL     1      -2.977  13.460  20.549  0.00  0.00    +0.000 NA
ATOM      4  N   UNL     1      -4.278  13.111  20.294  0.00  0.00    +0.000 N 
ATOM      5  C   UNL     1      -5.433  13.495  20.945  0.00  0.00    +0.000 A 
ATOM      6  N   UNL     1      -6.467  12.910  20.352  0.00  0.00    +0.000 NA
ATOM      7  N   UNL     1      -6.007  12.154  19.307  0.00  0.00    +0.000 NA
ATOM      8  C   UNL     1      -4.705  12.283  19.275  0.00  0.00    +0.000 A 
ATOM      9  C   UNL     1      -3.732  11.637  18.432  0.00  0.00    +0.000 A 
ATOM     10  C   UNL     1      -4.088  10.844  17.339  0.00  0.00    +0.000 A 
ATOM     11  C   UNL     1      -3.106  10.100  16.684  0.00  0.00    +0.000 A 
ATOM     12  C   UNL     1      -1.785  10.134  17.134  0.00  0.00    +0.000 A 
ATOM     13  C   UNL     1      -1.416  10.984  18.184  0.00  0.00    +0.000 A 
ATOM     14  C   UNL     1      -2.391  11.770  18.802  0.00  0.00    +0.000 A 
BRANCH   5  15
ATOM     15  C   UNL     1      -5.536  14.487  22.074  0.00  0.00    +0.000 C 
ATOM     16  C   UNL     1      -6.999  14.934  22.286  0.00  0.00    +0.000 C 
ATOM     17  C   UNL     1      -7.877  13.840  22.902  0.00  0.00    +0.000 C 
ATOM     18  C   UNL     1      -7.279  13.244  24.173  0.00  0.00    +0.000 C 
ATOM     19  C   UNL     1      -5.801  12.889  24.044  0.00  0.00    +0.000 C 
ATOM     20  C   UNL     1      -4.977  14.011  23.419  0.00  0.00    +0.000 C 
ENDBRANCH   5  15
ENDBRANCH   1   2
BRANCH   1  21
ATOM     21  C   UNL     1      -0.073  12.893  21.096  0.00  0.00    +0.000 C 
BRANCH  21  26
ATOM     22  C   UNL     1       0.816   9.296  21.194  0.00  0.00    +0.000 A 
ATOM     23  C   UNL     1       0.186   8.834  22.347  0.00  0.00    +0.000 A 
ATOM     24  C   UNL     1      -0.561   9.726  23.105  0.00  0.00    +0.000 A 
ATOM     25  C   UNL     1      -0.666  11.048  22.694  0.00  0.00    +0.000 A 
ATOM     26  C   UNL     1      -0.022  11.444  21.525  0.00  0.00    +0.000 A 
ATOM     27  N   UNL     1       0.729  10.587  20.784  0.00  0.00    +0.000 NA
BRANCH  22  28
ATOM     28  C   UNL     1       1.606   8.340  20.322  0.00  0.00    +0.000 C 
BRANCH  28  29
ATOM     29  N   UNL     1       1.722   6.974  20.863  0.00  0.00    +0.000 NA
ATOM     30  H   UNL     1       2.171   7.034  21.776  0.00  0.00    +0.000 HD
BRANCH  29  31
ATOM     31  C   UNL     1       2.550   6.123  19.990  0.00  0.00    +0.000 C 
BRANCH  31  32
ATOM     32  C   UNL     1       2.406   6.562  18.525  0.00  0.00    +0.000 C 
BRANCH  32  36
ATOM     33  C   UNL     1       5.559   5.020  16.008  0.00  0.00    +0.000 A 
ATOM     34  C   UNL     1       5.450   6.391  16.232  0.00  0.00    +0.000 A 
ATOM     35  C   UNL     1       4.428   6.888  17.042  0.00  0.00    +0.000 A 
ATOM     36  C   UNL     1       3.503   6.019  17.637  0.00  0.00    +0.000 A 
ATOM     37  C   UNL     1       3.633   4.642  17.414  0.00  0.00    +0.000 A 
ATOM     38  C   UNL     1       4.649   4.147  16.599  0.00  0.00    +0.000 A 
ENDBRANCH  32  36
ENDBRANCH  31  32
ENDBRANCH  29  31
ENDBRANCH  28  29
ENDBRANCH  22  28
ENDBRANCH  21  26
ENDBRANCH   1  21
TORSDOF 9
ENDMDL
MODEL 5
REMARK VINA RESULT:      -8.5      1.791      3.173
REMARK  Name = 
REMARK  9 active torsions:
REMARK  status: ('A' for Active; 'I' for Inactive)
REMARK    1  A    between atoms: C_4  and  C_5
REMARK    2  A    between atoms: C_5  and  C_6
REMARK    3  A    between atoms: C_6  and  N_7
REMARK    4  A    between atoms: N_7  and  C_8
REMARK    5  A    between atoms: C_8  and  C_9
REMARK    6  A    between atoms: C_13  and  C_14
REMARK    7  A    between atoms: C_14  and  O_15
REMARK    8  A    between atoms: O_15  and  C_16
REMARK    9  A    between atoms: C_19  and  C_20
REMARK                            x       y       z     vdW  Elec       q    Type
REMARK                         _______ _______ _______ _____ _____    ______ ____
ROOT
ATOM      1  O   UNL     1      -0.597  12.439  18.896  0.00  0.00    +0.000 OA
ENDROOT
BRANCH   1   2
ATOM      2  C   UNL     1      -1.920  12.371  19.173  0.00  0.00    +0.000 A 
ATOM      3  N   UNL     1      -2.485  13.010  20.150  0.00  0.00    +0.000 NA
ATOM      4  N   UNL     1      -3.850  12.881  20.184  0.00  0.00    +0.000 N 
ATOM      5  C   UNL     1      -4.748  13.313  21.139  0.00  0.00    +0.000 A 
ATOM      6  N   UNL     1      -5.971  12.970  20.754  0.00  0.00    +0.000 NA
ATOM      7  N   UNL     1      -5.890  12.328  19.548  0.00  0.00    +0.000 NA
ATOM      8  C   UNL     1      -4.626  12.284  19.211  0.00  0.00    +0.000 A 
ATOM      9  C   UNL     1      -3.989  11.650  18.086  0.00  0.00    +0.000 A 
ATOM     10  C   UNL     1      -4.709  11.088  17.029  0.00  0.00    +0.000 A 
ATOM     11  C   UNL     1      -4.038  10.328  16.071  0.00  0.00    +0.000 A 
ATOM     12  C   UNL     1      -2.663  10.116  16.184  0.00  0.00    +0.000 A 
ATOM     13  C   UNL     1      -1.931  10.738  17.203  0.00  0.00    +0.000 A 
ATOM     14  C   UNL     1      -2.596  11.544  18.128  0.00  0.00    +0.000 A 
BRANCH   5  15
ATOM     15  C   UNL     1      -4.427  14.126  22.366  0.00  0.00    +0.000 C 
ATOM     16  C   UNL     1      -5.630  14.163  23.335  0.00  0.00    +0.000 C 
ATOM     17  C   UNL     1      -5.874  12.825  24.040  0.00  0.00    +0.000 C 
ATOM     18  C   UNL     1      -4.622  12.272  24.715  0.00  0.00    +0.000 C 
ATOM     19  C   UNL     1      -3.380  12.319  23.831  0.00  0.00    +0.000 C 
ATOM     20  C   UNL     1      -3.191  13.671  23.150  0.00  0.00    +0.000 C 
ENDBRANCH   5  15
ENDBRANCH   1   2
BRANCH   1  21
ATOM     21  C   UNL     1       0.329  12.447  19.998  0.00  0.00    +0.000 C 
BRANCH  21  26
ATOM     22  C   UNL     1       1.093   8.896  20.737  0.00  0.00    +0.000 A 
ATOM     23  C   UNL     1       0.601   8.716  22.027  0.00  0.00    +0.000 A 
ATOM     24  C   UNL     1      -0.010   9.788  22.666  0.00  0.00    +0.000 A 
ATOM     25  C   UNL     1      -0.119  11.003  22.004  0.00  0.00    +0.000 A 
ATOM     26  C   UNL     1       0.383  11.114  20.710  0.00  0.00    +0.000 A 
ATOM     27  N   UNL     1       1.001  10.080  20.080  0.00  0.00    +0.000 NA
BRANCH  22  28
ATOM     28  C   UNL     1       1.730   7.736  19.996  0.00  0.00    +0.000 C 
BRANCH  28  29
ATOM     29  N   UNL     1       2.057   8.018  18.587  0.00  0.00    +0.000 NA
ATOM     30  H   UNL     1       1.213   7.877  18.034  0.00  0.00    +0.000 HD
BRANCH  29  31
ATOM     31  C   UNL     1       3.101   7.106  18.089  0.00  0.00    +0.000 C 
BRANCH  31  32
ATOM     32  C   UNL     1       3.530   6.130  19.196  0.00  0.00    +0.000 C 
BRANCH  32  36
ATOM     33  C   UNL     1       3.091   1.983  18.073  0.00  0.00    +0.000 A 
ATOM     34  C   UNL     1       4.007   2.348  19.057  0.00  0.00    +0.000 A 
ATOM     35  C   UNL     1       4.151   3.689  19.416  0.00  0.00    +0.000 A 
ATOM     36  C   UNL     1       3.380   4.680  18.794  0.00  0.00    +0.000 A 
ATOM     37  C   UNL     1       2.453   4.298  17.816  0.00  0.00    +0.000 A 
ATOM     38  C   UNL     1       2.315   2.959  17.452  0.00  0.00    +0.000 A 
ENDBRANCH  32  36
ENDBRANCH  31  32
ENDBRANCH  29  31
ENDBRANCH  28  29
ENDBRANCH  22  28
ENDBRANCH  21  26
ENDBRANCH   1  21
TORSDOF 9
ENDMDL
MODEL 6
REMARK VINA RESULT:      -8.5      1.874      3.313
REMARK  Name = 
REMARK  9 active torsions:
REMARK  status: ('A' for Active; 'I' for Inactive)
REMARK    1  A    between atoms: C_4  and  C_5
REMARK    2  A    between atoms: C_5  and  C_6
REMARK    3  A    between atoms: C_6  and  N_7
REMARK    4  A    between atoms: N_7  and  C_8
REMARK    5  A    between atoms: C_8  and  C_9
REMARK    6  A    between atoms: C_13  and  C_14
REMARK    7  A    between atoms: C_14  and  O_15
REMARK    8  A    between atoms: O_15  and  C_16
REMARK    9  A    between atoms: C_19  and  C_20
REMARK                            x       y       z     vdW  Elec       q    Type
REMARK                         _______ _______ _______ _____ _____    ______ ____
ROOT
ATOM      1  O   UNL     1      -0.135  10.999  18.972  0.00  0.00    +0.000 OA
ENDROOT
BRANCH   1   2
ATOM      2  C   UNL     1      -1.428  11.324  19.206  0.00  0.00    +0.000 A 
ATOM      3  N   UNL     1      -1.832  11.962  20.260  0.00  0.00    +0.000 NA
ATOM      4  N   UNL     1      -3.166  12.279  20.243  0.00  0.00    +0.000 N 
ATOM      5  C   UNL     1      -3.948  12.835  21.235  0.00  0.00    +0.000 A 
ATOM      6  N   UNL     1      -5.186  12.965  20.773  0.00  0.00    +0.000 NA
ATOM      7  N   UNL     1      -5.225  12.513  19.482  0.00  0.00    +0.000 NA
ATOM      8  C   UNL     1      -4.019  12.113  19.171  0.00  0.00    +0.000 A 
ATOM      9  C   UNL     1      -3.535  11.477  17.972  0.00  0.00    +0.000 A 
ATOM     10  C   UNL     1      -4.318  11.337  16.824  0.00  0.00    +0.000 A 
ATOM     11  C   UNL     1      -3.853  10.548  15.770  0.00  0.00    +0.000 A 
ATOM     12  C   UNL     1      -2.628   9.889  15.878  0.00  0.00    +0.000 A 
ATOM     13  C   UNL     1      -1.813  10.086  16.999  0.00  0.00    +0.000 A 
ATOM     14  C   UNL     1      -2.254  10.920  18.028  0.00  0.00    +0.000 A 
BRANCH   5  15
ATOM     15  C   UNL     1      -3.477  13.313  22.584  0.00  0.00    +0.000 C 
ATOM     16  C   UNL     1      -3.482  14.856  22.656  0.00  0.00    +0.000 C 
ATOM     17  C   UNL     1      -4.894  15.448  22.717  0.00  0.00    +0.000 C 
ATOM     18  C   UNL     1      -5.751  14.828  23.816  0.00  0.00    +0.000 C 
ATOM     19  C   UNL     1      -5.688  13.305  23.854  0.00  0.00    +0.000 C 
ATOM     20  C   UNL     1      -4.260  12.771  23.783  0.00  0.00    +0.000 C 
ENDBRANCH   5  15
ENDBRANCH   1   2
BRANCH   1  21
ATOM     21  C   UNL     1       0.557  10.212  19.959  0.00  0.00    +0.000 C 
BRANCH  21  26
ATOM     22  C   UNL     1       2.249   6.954  19.449  0.00  0.00    +0.000 A 
ATOM     23  C   UNL     1       2.802   7.067  18.176  0.00  0.00    +0.000 A 
ATOM     24  C   UNL     1       2.624   8.251  17.472  0.00  0.00    +0.000 A 
ATOM     25  C   UNL     1       1.909   9.289  18.054  0.00  0.00    +0.000 A 
ATOM     26  C   UNL     1       1.392   9.117  19.335  0.00  0.00    +0.000 A 
ATOM     27  N   UNL     1       1.540   7.957  20.028  0.00  0.00    +0.000 NA
BRANCH  22  28
ATOM     28  C   UNL     1       2.458   5.690  20.262  0.00  0.00    +0.000 C 
BRANCH  28  29
ATOM     29  N   UNL     1       2.869   4.517  19.470  0.00  0.00    +0.000 NA
ATOM     30  H   UNL     1       2.230   3.753  19.686  0.00  0.00    +0.000 HD
BRANCH  29  31
ATOM     31  C   UNL     1       4.237   4.093  19.815  0.00  0.00    +0.000 C 
BRANCH  31  32
ATOM     32  C   UNL     1       5.078   3.914  18.541  0.00  0.00    +0.000 C 
BRANCH  32  36
ATOM     33  C   UNL     1       7.650   7.283  17.715  0.00  0.00    +0.000 A 
ATOM     34  C   UNL     1       7.901   6.464  18.814  0.00  0.00    +0.000 A 
ATOM     35  C   UNL     1       7.067   5.378  19.082  0.00  0.00    +0.000 A 
ATOM     36  C   UNL     1       5.971   5.100  18.254  0.00  0.00    +0.000 A 
ATOM     37  C   UNL     1       5.738   5.923  17.145  0.00  0.00    +0.000 A 
ATOM     38  C   UNL     1       6.568   7.012  16.881  0.00  0.00    +0.000 A 
ENDBRANCH  32  36
ENDBRANCH  31  32
ENDBRANCH  29  31
ENDBRANCH  28  29
ENDBRANCH  22  28
ENDBRANCH  21  26
ENDBRANCH   1  21
TORSDOF 9
ENDMDL
MODEL 7
REMARK VINA RESULT:      -8.5      2.288      3.471
REMARK  Name = 
REMARK  9 active torsions:
REMARK  status: ('A' for Active; 'I' for Inactive)
REMARK    1  A    between atoms: C_4  and  C_5
REMARK    2  A    between atoms: C_5  and  C_6
REMARK    3  A    between atoms: C_6  and  N_7
REMARK    4  A    between atoms: N_7  and  C_8
REMARK    5  A    between atoms: C_8  and  C_9
REMARK    6  A    between atoms: C_13  and  C_14
REMARK    7  A    between atoms: C_14  and  O_15
REMARK    8  A    between atoms: O_15  and  C_16
REMARK    9  A    between atoms: C_19  and  C_20
REMARK                            x       y       z     vdW  Elec       q    Type
REMARK                         _______ _______ _______ _____ _____    ______ ____
ROOT
ATOM      1  O   UNL     1      -1.116  13.176  20.106  0.00  0.00    +0.000 OA
ENDROOT
BRANCH   1   2
ATOM      2  C   UNL     1      -2.404  12.778  20.220  0.00  0.00    +0.000 A 
ATOM      3  N   UNL     1      -3.155  13.045  21.243  0.00  0.00    +0.000 NA
ATOM      4  N   UNL     1      -4.456  12.636  21.103  0.00  0.00    +0.000 N 
ATOM      5  C   UNL     1      -5.482  12.643  22.026  0.00  0.00    +0.000 A 
ATOM      6  N   UNL     1      -6.573  12.155  21.448  0.00  0.00    +0.000 NA
ATOM      7  N   UNL     1      -6.280  11.837  20.149  0.00  0.00    +0.000 NA
ATOM      8  C   UNL     1      -5.020  12.132  19.949  0.00  0.00    +0.000 A 
ATOM      9  C   UNL     1      -4.193  11.917  18.790  0.00  0.00    +0.000 A 
ATOM     10  C   UNL     1      -4.706  11.477  17.567  0.00  0.00    +0.000 A 
ATOM     11  C   UNL     1      -3.826  11.112  16.548  0.00  0.00    +0.000 A 
ATOM     12  C   UNL     1      -2.448  11.165  16.760  0.00  0.00    +0.000 A 
ATOM     13  C   UNL     1      -1.935  11.673  17.959  0.00  0.00    +0.000 A 
ATOM     14  C   UNL     1      -2.816  12.091  18.958  0.00  0.00    +0.000 A 
BRANCH   5  15
ATOM     15  C   UNL     1      -5.424  13.201  23.424  0.00  0.00    +0.000 C 
ATOM     16  C   UNL     1      -5.318  14.742  23.401  0.00  0.00    +0.000 C 
ATOM     17  C   UNL     1      -6.619  15.425  22.968  0.00  0.00    +0.000 C 
ATOM     18  C   UNL     1      -7.832  14.953  23.765  0.00  0.00    +0.000 C 
ATOM     19  C   UNL     1      -7.916  13.438  23.910  0.00  0.00    +0.000 C 
ATOM     20  C   UNL     1      -6.592  12.811  24.336  0.00  0.00    +0.000 C 
ENDBRANCH   5  15
ENDBRANCH   1   2
BRANCH   1  21
ATOM     21  C   UNL     1      -0.206  12.846  21.172  0.00  0.00    +0.000 C 
BRANCH  21  26
ATOM     22  C   UNL     1       0.978   9.443  20.303  0.00  0.00    +0.000 A 
ATOM     23  C   UNL     1       0.667   8.689  21.431  0.00  0.00    +0.000 A 
ATOM     24  C   UNL     1       0.040   9.313  22.501  0.00  0.00    +0.000 A 
ATOM     25  C   UNL     1      -0.265  10.665  22.418  0.00  0.00    +0.000 A 
ATOM     26  C   UNL     1       0.061  11.360  21.256  0.00  0.00    +0.000 A 
ATOM     27  N   UNL     1       0.694  10.767  20.209  0.00  0.00    +0.000 NA
BRANCH  22  28
ATOM     28  C   UNL     1       1.628   8.784  19.101  0.00  0.00    +0.000 C 
BRANCH  28  29
ATOM     29  N   UNL     1       2.129   7.421  19.349  0.00  0.00    +0.000 NA
ATOM     30  H   UNL     1       2.878   7.482  20.037  0.00  0.00    +0.000 HD
BRANCH  29  31
ATOM     31  C   UNL     1       2.673   6.820  18.118  0.00  0.00    +0.000 C 
BRANCH  31  32
ATOM     32  C   UNL     1       3.410   5.511  18.443  0.00  0.00    +0.000 C 
BRANCH  32  36
ATOM     33  C   UNL     1       1.106   2.832  20.925  0.00  0.00    +0.000 A 
ATOM     34  C   UNL     1       0.799   2.970  19.573  0.00  0.00    +0.000 A 
ATOM     35  C   UNL     1       1.542   3.840  18.773  0.00  0.00    +0.000 A 
ATOM     36  C   UNL     1       2.600   4.581  19.317  0.00  0.00    +0.000 A 
ATOM     37  C   UNL     1       2.906   4.422  20.674  0.00  0.00    +0.000 A 
ATOM     38  C   UNL     1       2.159   3.559  21.475  0.00  0.00    +0.000 A 
ENDBRANCH  32  36
ENDBRANCH  31  32
ENDBRANCH  29  31
ENDBRANCH  28  29
ENDBRANCH  22  28
ENDBRANCH  21  26
ENDBRANCH   1  21
TORSDOF 9
ENDMDL
MODEL 8
REMARK VINA RESULT:      -8.4      4.785      8.478
REMARK  Name = 
REMARK  9 active torsions:
REMARK  status: ('A' for Active; 'I' for Inactive)
REMARK    1  A    between atoms: C_4  and  C_5
REMARK    2  A    between atoms: C_5  and  C_6
REMARK    3  A    between atoms: C_6  and  N_7
REMARK    4  A    between atoms: N_7  and  C_8
REMARK    5  A    between atoms: C_8  and  C_9
REMARK    6  A    between atoms: C_13  and  C_14
REMARK    7  A    between atoms: C_14  and  O_15
REMARK    8  A    between atoms: O_15  and  C_16
REMARK    9  A    between atoms: C_19  and  C_20
REMARK                            x       y       z     vdW  Elec       q    Type
REMARK                         _______ _______ _______ _____ _____    ______ ____
ROOT
ATOM      1  O   UNL     1       4.078   5.234  17.097  0.00  0.00    +0.000 OA
ENDROOT
BRANCH   1   2
ATOM      2  C   UNL     1       3.432   5.790  18.148  0.00  0.00    +0.000 A 
ATOM      3  N   UNL     1       2.946   6.993  18.140  0.00  0.00    +0.000 NA
ATOM      4  N   UNL     1       2.241   7.316  19.271  0.00  0.00    +0.000 N 
ATOM      5  C   UNL     1       1.702   8.528  19.653  0.00  0.00    +0.000 A 
ATOM      6  N   UNL     1       1.102   8.372  20.826  0.00  0.00    +0.000 NA
ATOM      7  N   UNL     1       1.228   7.066  21.217  0.00  0.00    +0.000 NA
ATOM      8  C   UNL     1       1.901   6.442  20.284  0.00  0.00    +0.000 A 
ATOM      9  C   UNL     1       2.377   5.084  20.239  0.00  0.00    +0.000 A 
ATOM     10  C   UNL     1       2.017   4.125  21.189  0.00  0.00    +0.000 A 
ATOM     11  C   UNL     1       2.661   2.887  21.191  0.00  0.00    +0.000 A 
ATOM     12  C   UNL     1       3.671   2.623  20.265  0.00  0.00    +0.000 A 
ATOM     13  C   UNL     1       3.982   3.556  19.269  0.00  0.00    +0.000 A 
ATOM     14  C   UNL     1       3.297   4.772  19.233  0.00  0.00    +0.000 A 
BRANCH   5  15
ATOM     15  C   UNL     1       1.697   9.799  18.844  0.00  0.00    +0.000 C 
ATOM     16  C   UNL     1       0.796   9.656  17.596  0.00  0.00    +0.000 C 
ATOM     17  C   UNL     1      -0.697   9.629  17.935  0.00  0.00    +0.000 C 
ATOM     18  C   UNL     1      -1.129  10.800  18.813  0.00  0.00    +0.000 C 
ATOM     19  C   UNL     1      -0.203  11.049  19.998  0.00  0.00    +0.000 C 
ATOM     20  C   UNL     1       1.271  11.059  19.604  0.00  0.00    +0.000 C 
ENDBRANCH   5  15
ENDBRANCH   1   2
BRANCH   1  21
ATOM     21  C   UNL     1       5.004   6.051  16.358  0.00  0.00    +0.000 C 
BRANCH  21  26
ATOM     22  C   UNL     1       7.687   8.093  17.900  0.00  0.00    +0.000 A 
ATOM     23  C   UNL     1       8.320   7.204  18.764  0.00  0.00    +0.000 A 
ATOM     24  C   UNL     1       7.860   5.894  18.833  0.00  0.00    +0.000 A 
ATOM     25  C   UNL     1       6.791   5.506  18.038  0.00  0.00    +0.000 A 
ATOM     26  C   UNL     1       6.210   6.440  17.184  0.00  0.00    +0.000 A 
ATOM     27  N   UNL     1       6.635   7.729  17.122  0.00  0.00    +0.000 NA
BRANCH  22  28
ATOM     28  C   UNL     1       8.188   9.518  17.771  0.00  0.00    +0.000 C 
BRANCH  28  29
ATOM     29  N   UNL     1       8.986   9.991  18.917  0.00  0.00    +0.000 NA
ATOM     30  H   UNL     1       8.395  10.600  19.481  0.00  0.00    +0.000 HD
BRANCH  29  31
ATOM     31  C   UNL     1      10.159  10.761  18.468  0.00  0.00    +0.000 C 
BRANCH  31  32
ATOM     32  C   UNL     1       9.740  12.183  18.062  0.00  0.00    +0.000 C 
BRANCH  32  36
ATOM     33  C   UNL     1       8.876  14.709  21.457  0.00  0.00    +0.000 A 
ATOM     34  C   UNL     1       8.036  14.718  20.346  0.00  0.00    +0.000 A 
ATOM     35  C   UNL     1       8.318  13.905  19.247  0.00  0.00    +0.000 A 
ATOM     36  C   UNL     1       9.446  13.072  19.249  0.00  0.00    +0.000 A 
ATOM     37  C   UNL     1      10.275  13.062  20.377  0.00  0.00    +0.000 A 
ATOM     38  C   UNL     1       9.996  13.880  21.471  0.00  0.00    +0.000 A 
ENDBRANCH  32  36
ENDBRANCH  31  32
ENDBRANCH  29  31
ENDBRANCH  28  29
ENDBRANCH  22  28
ENDBRANCH  21  26
ENDBRANCH   1  21
TORSDOF 9
ENDMDL
MODEL 9
REMARK VINA RESULT:      -8.4      1.629      4.249
REMARK  Name = 
REMARK  9 active torsions:
REMARK  status: ('A' for Active; 'I' for Inactive)
REMARK    1  A    between atoms: C_4  and  C_5
REMARK    2  A    between atoms: C_5  and  C_6
REMARK    3  A    between atoms: C_6  and  N_7
REMARK    4  A    between atoms: N_7  and  C_8
REMARK    5  A    between atoms: C_8  and  C_9
REMARK    6  A    between atoms: C_13  and  C_14
REMARK    7  A    between atoms: C_14  and  O_15
REMARK    8  A    between atoms: O_15  and  C_16
REMARK    9  A    between atoms: C_19  and  C_20
REMARK                            x       y       z     vdW  Elec       q    Type
REMARK                         _______ _______ _______ _____ _____    ______ ____
ROOT
ATOM      1  O   UNL     1       2.051  10.691  18.549  0.00  0.00    +0.000 OA
ENDROOT
BRANCH   1   2
ATOM      2  C   UNL     1       0.899  11.328  18.865  0.00  0.00    +0.000 A 
ATOM      3  N   UNL     1      -0.280  10.827  18.664  0.00  0.00    +0.000 NA
ATOM      4  N   UNL     1      -1.304  11.596  19.154  0.00  0.00    +0.000 N 
ATOM      5  C   UNL     1      -2.667  11.438  19.011  0.00  0.00    +0.000 A 
ATOM      6  N   UNL     1      -3.277  12.422  19.660  0.00  0.00    +0.000 NA
ATOM      7  N   UNL     1      -2.330  13.222  20.241  0.00  0.00    +0.000 NA
ATOM      8  C   UNL     1      -1.159  12.721  19.942  0.00  0.00    +0.000 A 
ATOM      9  C   UNL     1       0.161  13.221  20.228  0.00  0.00    +0.000 A 
ATOM     10  C   UNL     1       0.390  14.310  21.073  0.00  0.00    +0.000 A 
ATOM     11  C   UNL     1       1.672  14.854  21.156  0.00  0.00    +0.000 A 
ATOM     12  C   UNL     1       2.708  14.327  20.384  0.00  0.00    +0.000 A 
ATOM     13  C   UNL     1       2.495  13.192  19.593  0.00  0.00    +0.000 A 
ATOM     14  C   UNL     1       1.225  12.613  19.554  0.00  0.00    +0.000 A 
BRANCH   5  15
ATOM     15  C   UNL     1      -3.367  10.293  18.327  0.00  0.00    +0.000 C 
ATOM     16  C   UNL     1      -4.792  10.698  17.888  0.00  0.00    +0.000 C 
ATOM     17  C   UNL     1      -4.801  11.673  16.706  0.00  0.00    +0.000 C 
ATOM     18  C   UNL     1      -3.964  11.185  15.527  0.00  0.00    +0.000 C 
ATOM     19  C   UNL     1      -2.586  10.669  15.928  0.00  0.00    +0.000 C 
ATOM     20  C   UNL     1      -2.637   9.709  17.113  0.00  0.00    +0.000 C 
ENDBRANCH   5  15
ENDBRANCH   1   2
BRANCH   1  21
ATOM     21  C   UNL     1       1.987   9.594  17.619  0.00  0.00    +0.000 C 
BRANCH  21  26
ATOM     22  C   UNL     1       3.756   6.391  18.210  0.00  0.00    +0.000 A 
ATOM     23  C   UNL     1       3.252   5.959  19.434  0.00  0.00    +0.000 A 
ATOM     24  C   UNL     1       2.296   6.736  20.076  0.00  0.00    +0.000 A 
ATOM     25  C   UNL     1       1.865   7.914  19.482  0.00  0.00    +0.000 A 
ATOM     26  C   UNL     1       2.399   8.283  18.250  0.00  0.00    +0.000 A 
ATOM     27  N   UNL     1       3.350   7.544  17.620  0.00  0.00    +0.000 NA
BRANCH  22  28
ATOM     28  C   UNL     1       4.771   5.547  17.463  0.00  0.00    +0.000 C 
BRANCH  28  29
ATOM     29  N   UNL     1       4.879   4.157  17.940  0.00  0.00    +0.000 NA
ATOM     30  H   UNL     1       5.865   3.902  17.946  0.00  0.00    +0.000 HD
BRANCH  29  31
ATOM     31  C   UNL     1       4.161   3.230  17.048  0.00  0.00    +0.000 C 
BRANCH  31  32
ATOM     32  C   UNL     1       3.645   2.018  17.840  0.00  0.00    +0.000 C 
BRANCH  32  36
ATOM     33  C   UNL     1       1.241   3.160  21.241  0.00  0.00    +0.000 A 
ATOM     34  C   UNL     1       2.558   2.744  21.424  0.00  0.00    +0.000 A 
ATOM     35  C   UNL     1       3.333   2.371  20.324  0.00  0.00    +0.000 A 
ATOM     36  C   UNL     1       2.797   2.410  19.029  0.00  0.00    +0.000 A 
ATOM     37  C   UNL     1       1.477   2.844  18.859  0.00  0.00    +0.000 A 
ATOM     38  C   UNL     1       0.701   3.209  19.958  0.00  0.00    +0.000 A 
ENDBRANCH  32  36
ENDBRANCH  31  32
ENDBRANCH  29  31
ENDBRANCH  28  29
ENDBRANCH  22  28
ENDBRANCH  21  26
ENDBRANCH   1  21
TORSDOF 9
ENDMDL
