MODEL 1
REMARK VINA RESULT:      -9.2      0.000      0.000
REMARK  Name = 
REMARK  5 active torsions:
REMARK  status: ('A' for Active; 'I' for Inactive)
REMARK    1  A    between atoms: C_1  and  N_2
REMARK    2  A    between atoms: C_9  and  O_10
REMARK    3  A    between atoms: O_10  and  C_11
REMARK    4  A    between atoms: C_11  and  C_12
REMARK    5  A    between atoms: C_16  and  N_17
REMARK                            x       y       z     vdW  Elec       q    Type
REMARK                         _______ _______ _______ _____ _____    ______ ____
ROOT
ATOM      1  C   UNL     1       7.927   7.759  17.879  0.00  0.00    +0.000 A 
ATOM      2  C   UNL     1       8.289   7.134  19.066  0.00  0.00    +0.000 A 
ATOM      3  N   UNL     1       8.128   5.811  19.272  0.00  0.00    +0.000 NA
ATOM      4  C   UNL     1       7.565   5.121  18.248  0.00  0.00    +0.000 A 
ATOM      5  C   UNL     1       7.173   5.718  17.054  0.00  0.00    +0.000 A 
ATOM      6  N   UNL     1       7.362   7.056  16.853  0.00  0.00    +0.000 NA
ENDROOT
BRANCH   5   7
ATOM      7  N   UNL     1       6.546   4.957  16.017  0.00  0.00    +0.000 N 
ATOM      8  C   UNL     1       5.456   4.123  16.211  0.00  0.00    +0.000 A 
ATOM      9  C   UNL     1       5.117   3.529  15.013  0.00  0.00    +0.000 A 
ATOM     10  C   UNL     1       6.034   3.993  14.036  0.00  0.00    +0.000 A 
ATOM     11  C   UNL     1       6.256   3.757  12.669  0.00  0.00    +0.000 A 
ATOM     12  N   UNL     1       5.492   2.898  11.897  0.00  0.00    +0.000 N 
ATOM     13  N   UNL     1       7.267   4.395  12.050  0.00  0.00    +0.000 NA
ATOM     14  C   UNL     1       8.035   5.221  12.774  0.00  0.00    +0.000 A 
ATOM     15  N   UNL     1       7.920   5.520  14.074  0.00  0.00    +0.000 NA
ATOM     16  C   UNL     1       6.898   4.877  14.673  0.00  0.00    +0.000 A 
ATOM     17  H   UNL     1       4.537   2.770  12.197  0.00  0.00    +0.000 HD
ATOM     18  H   UNL     1       5.639   3.078  10.909  0.00  0.00    +0.000 HD
ENDBRANCH   5   7
BRANCH   1  19
ATOM     19  C   UNL     1       8.037   9.258  17.736  0.00  0.00    +0.000 C 
BRANCH  19  20
ATOM     20  O   UNL     1       9.010   9.802  18.638  0.00  0.00    +0.000 OA
BRANCH  20  29
ATOM     21  C   UNL     1       6.574  16.569  18.835  0.00  0.00    +0.000 C 
ATOM     22  N   UNL     1       7.880  16.841  18.263  0.00  0.00    +0.000 N 
ATOM     23  C   UNL     1       8.701  15.716  18.061  0.00  0.00    +0.000 A 
ATOM     24  C   UNL     1       9.974  15.952  17.556  0.00  0.00    +0.000 A 
ATOM     25  C   UNL     1      10.843  14.885  17.368  0.00  0.00    +0.000 A 
ATOM     26  C   UNL     1      10.422  13.595  17.684  0.00  0.00    +0.000 A 
ATOM     27  C   UNL     1      11.277  12.497  17.514  0.00  0.00    +0.000 A 
ATOM     28  C   UNL     1      10.844  11.211  17.826  0.00  0.00    +0.000 A 
ATOM     29  C   UNL     1       9.552  11.015  18.304  0.00  0.00    +0.000 A 
ATOM     30  C   UNL     1       8.709  12.124  18.477  0.00  0.00    +0.000 A 
ATOM     31  C   UNL     1       9.117  13.424  18.183  0.00  0.00    +0.000 A 
ATOM     32  N   UNL     1       8.281  14.471  18.375  0.00  0.00    +0.000 NA
ATOM     33  H   UNL     1       7.819  17.365  17.395  0.00  0.00    +0.000 HD
ENDBRANCH  20  29
ENDBRANCH  19  20
ENDBRANCH   1  19
TORSDOF 4
ENDMDL
MODEL 2
REMARK VINA RESULT:      -9.2      6.669      8.122
REMARK  Name = 
REMARK  5 active torsions:
REMARK  status: ('A' for Active; 'I' for Inactive)
REMARK    1  A    between atoms: C_1  and  N_2
REMARK    2  A    between atoms: C_9  and  O_10
REMARK    3  A    between atoms: O_10  and  C_11
REMARK    4  A    between atoms: C_11  and  C_12
REMARK    5  A    between atoms: C_16  and  N_17
REMARK                            x       y       z     vdW  Elec       q    Type
REMARK                         _______ _______ _______ _____ _____    ______ ____
ROOT
ATOM      1  C   UNL     1       2.207   5.247  20.657  0.00  0.00    +0.000 A 
ATOM      2  C   UNL     1       2.161   4.049  21.358  0.00  0.00    +0.000 A 
ATOM      3  N   UNL     1       2.840   2.950  20.971  0.00  0.00    +0.000 NA
ATOM      4  C   UNL     1       3.563   3.079  19.829  0.00  0.00    +0.000 A 
ATOM      5  C   UNL     1       3.617   4.257  19.092  0.00  0.00    +0.000 A 
ATOM      6  N   UNL     1       2.939   5.368  19.510  0.00  0.00    +0.000 NA
ENDROOT
BRANCH   5   7
ATOM      7  N   UNL     1       4.360   4.335  17.872  0.00  0.00    +0.000 N 
ATOM      8  C   UNL     1       4.084   3.582  16.741  0.00  0.00    +0.000 A 
ATOM      9  C   UNL     1       5.001   3.886  15.756  0.00  0.00    +0.000 A 
ATOM     10  C   UNL     1       5.893   4.850  16.290  0.00  0.00    +0.000 A 
ATOM     11  C   UNL     1       7.034   5.529  15.835  0.00  0.00    +0.000 A 
ATOM     12  N   UNL     1       7.582   5.364  14.573  0.00  0.00    +0.000 N 
ATOM     13  N   UNL     1       7.650   6.400  16.655  0.00  0.00    +0.000 NA
ATOM     14  C   UNL     1       7.153   6.569  17.889  0.00  0.00    +0.000 A 
ATOM     15  N   UNL     1       6.081   5.979  18.429  0.00  0.00    +0.000 NA
ATOM     16  C   UNL     1       5.474   5.118  17.590  0.00  0.00    +0.000 A 
ATOM     17  H   UNL     1       6.937   5.089  13.847  0.00  0.00    +0.000 HD
ATOM     18  H   UNL     1       8.215   6.127  14.355  0.00  0.00    +0.000 HD
ENDBRANCH   5   7
BRANCH   1  19
ATOM     19  C   UNL     1       1.350   6.417  21.078  0.00  0.00    +0.000 C 
BRANCH  19  20
ATOM     20  O   UNL     1       1.871   7.656  20.580  0.00  0.00    +0.000 OA
BRANCH  20  29
ATOM     21  C   UNL     1      -2.648  10.989  16.081  0.00  0.00    +0.000 C 
ATOM     22  N   UNL     1      -2.797  11.882  17.215  0.00  0.00    +0.000 N 
ATOM     23  C   UNL     1      -2.037  11.551  18.352  0.00  0.00    +0.000 A 
ATOM     24  C   UNL     1      -2.193  12.364  19.469  0.00  0.00    +0.000 A 
ATOM     25  C   UNL     1      -1.497  12.067  20.633  0.00  0.00    +0.000 A 
ATOM     26  C   UNL     1      -0.649  10.963  20.661  0.00  0.00    +0.000 A 
ATOM     27  C   UNL     1       0.062  10.630  21.822  0.00  0.00    +0.000 A 
ATOM     28  C   UNL     1       0.913   9.529  21.838  0.00  0.00    +0.000 A 
ATOM     29  C   UNL     1       1.062   8.756  20.690  0.00  0.00    +0.000 A 
ATOM     30  C   UNL     1       0.338   9.095  19.536  0.00  0.00    +0.000 A 
ATOM     31  C   UNL     1      -0.529  10.185  19.493  0.00  0.00    +0.000 A 
ATOM     32  N   UNL     1      -1.220  10.475  18.367  0.00  0.00    +0.000 NA
ATOM     33  H   UNL     1      -2.616  12.851  16.969  0.00  0.00    +0.000 HD
ENDBRANCH  20  29
ENDBRANCH  19  20
ENDBRANCH   1  19
TORSDOF 4
ENDMDL
MODEL 3
REMARK VINA RESULT:      -9.1      1.350      1.759
REMARK  Name = 
REMARK  5 active torsions:
REMARK  status: ('A' for Active; 'I' for Inactive)
REMARK    1  A    between atoms: C_1  and  N_2
REMARK    2  A    between atoms: C_9  and  O_10
REMARK    3  A    between atoms: O_10  and  C_11
REMARK    4  A    between atoms: C_11  and  C_12
REMARK    5  A    between atoms: C_16  and  N_17
REMARK                            x       y       z     vdW  Elec       q    Type
REMARK                         _______ _______ _______ _____ _____    ______ ____
ROOT
ATOM      1  C   UNL     1       7.814   7.658  17.907  0.00  0.00    +0.000 A 
ATOM      2  C   UNL     1       8.241   7.005  19.056  0.00  0.00    +0.000 A 
ATOM      3  N   UNL     1       8.158   5.668  19.210  0.00  0.00    +0.000 NA
ATOM      4  C   UNL     1       7.606   4.991  18.171  0.00  0.00    +0.000 A 
ATOM      5  C   UNL     1       7.151   5.614  17.013  0.00  0.00    +0.000 A 
ATOM      6  N   UNL     1       7.261   6.969  16.866  0.00  0.00    +0.000 NA
ENDROOT
BRANCH   5   7
ATOM      7  N   UNL     1       6.538   4.865  15.960  0.00  0.00    +0.000 N 
ATOM      8  C   UNL     1       5.466   4.002  16.136  0.00  0.00    +0.000 A 
ATOM      9  C   UNL     1       5.138   3.429  14.926  0.00  0.00    +0.000 A 
ATOM     10  C   UNL     1       6.043   3.935  13.958  0.00  0.00    +0.000 A 
ATOM     11  C   UNL     1       6.267   3.735  12.586  0.00  0.00    +0.000 A 
ATOM     12  N   UNL     1       5.520   2.877  11.795  0.00  0.00    +0.000 N 
ATOM     13  N   UNL     1       7.263   4.408  11.980  0.00  0.00    +0.000 NA
ATOM     14  C   UNL     1       8.014   5.235  12.722  0.00  0.00    +0.000 A 
ATOM     15  N   UNL     1       7.895   5.501  14.028  0.00  0.00    +0.000 NA
ATOM     16  C   UNL     1       6.889   4.823  14.615  0.00  0.00    +0.000 A 
ATOM     17  H   UNL     1       4.569   2.722  12.094  0.00  0.00    +0.000 HD
ATOM     18  H   UNL     1       5.661   3.084  10.812  0.00  0.00    +0.000 HD
ENDBRANCH   5   7
BRANCH   1  19
ATOM     19  C   UNL     1       7.838   9.166  17.827  0.00  0.00    +0.000 C 
BRANCH  19  20
ATOM     20  O   UNL     1       9.180   9.671  17.839  0.00  0.00    +0.000 OA
BRANCH  20  29
ATOM     21  C   UNL     1      10.659  16.661  16.993  0.00  0.00    +0.000 C 
ATOM     22  N   UNL     1      10.767  16.606  18.439  0.00  0.00    +0.000 N 
ATOM     23  C   UNL     1      10.533  15.344  19.017  0.00  0.00    +0.000 A 
ATOM     24  C   UNL     1      10.586  15.271  20.404  0.00  0.00    +0.000 A 
ATOM     25  C   UNL     1      10.330  14.061  21.035  0.00  0.00    +0.000 A 
ATOM     26  C   UNL     1      10.029  12.938  20.267  0.00  0.00    +0.000 A 
ATOM     27  C   UNL     1       9.756  11.704  20.872  0.00  0.00    +0.000 A 
ATOM     28  C   UNL     1       9.463  10.586  20.095  0.00  0.00    +0.000 A 
ATOM     29  C   UNL     1       9.447  10.696  18.708  0.00  0.00    +0.000 A 
ATOM     30  C   UNL     1       9.714  11.940  18.114  0.00  0.00    +0.000 A 
ATOM     31  C   UNL     1       9.999  13.078  18.866  0.00  0.00    +0.000 A 
ATOM     32  N   UNL     1      10.239  14.264  18.260  0.00  0.00    +0.000 NA
ATOM     33  H   UNL     1      11.658  16.961  18.773  0.00  0.00    +0.000 HD
ENDBRANCH  20  29
ENDBRANCH  19  20
ENDBRANCH   1  19
TORSDOF 4
ENDMDL
MODEL 4
REMARK VINA RESULT:      -8.8      6.511      7.865
REMARK  Name = 
REMARK  5 active torsions:
REMARK  status: ('A' for Active; 'I' for Inactive)
REMARK    1  A    between atoms: C_1  and  N_2
REMARK    2  A    between atoms: C_9  and  O_10
REMARK    3  A    between atoms: O_10  and  C_11
REMARK    4  A    between atoms: C_11  and  C_12
REMARK    5  A    between atoms: C_16  and  N_17
REMARK                            x       y       z     vdW  Elec       q    Type
REMARK                         _______ _______ _______ _____ _____    ______ ____
ROOT
ATOM      1  C   UNL     1       2.247   5.280  20.536  0.00  0.00    +0.000 A 
ATOM      2  C   UNL     1       2.157   4.099  21.262  0.00  0.00    +0.000 A 
ATOM      3  N   UNL     1       2.820   2.978  20.915  0.00  0.00    +0.000 NA
ATOM      4  C   UNL     1       3.573   3.065  19.789  0.00  0.00    +0.000 A 
ATOM      5  C   UNL     1       3.671   4.225  19.028  0.00  0.00    +0.000 A 
ATOM      6  N   UNL     1       3.008   5.360  19.405  0.00  0.00    +0.000 NA
ENDROOT
BRANCH   5   7
ATOM      7  N   UNL     1       4.445   4.260  17.825  0.00  0.00    +0.000 N 
ATOM      8  C   UNL     1       4.273   3.388  16.761  0.00  0.00    +0.000 A 
ATOM      9  C   UNL     1       5.192   3.683  15.776  0.00  0.00    +0.000 A 
ATOM     10  C   UNL     1       5.980   4.766  16.243  0.00  0.00    +0.000 A 
ATOM     11  C   UNL     1       7.073   5.501  15.756  0.00  0.00    +0.000 A 
ATOM     12  N   UNL     1       7.675   5.273  14.528  0.00  0.00    +0.000 N 
ATOM     13  N   UNL     1       7.584   6.492  16.508  0.00  0.00    +0.000 NA
ATOM     14  C   UNL     1       7.034   6.726  17.709  0.00  0.00    +0.000 A 
ATOM     15  N   UNL     1       5.999   6.093  18.273  0.00  0.00    +0.000 NA
ATOM     16  C   UNL     1       5.497   5.110  17.501  0.00  0.00    +0.000 A 
ATOM     17  H   UNL     1       7.080   4.879  13.815  0.00  0.00    +0.000 HD
ATOM     18  H   UNL     1       8.246   6.067  14.258  0.00  0.00    +0.000 HD
ENDBRANCH   5   7
BRANCH   1  19
ATOM     19  C   UNL     1       1.406   6.478  20.911  0.00  0.00    +0.000 C 
BRANCH  19  20
ATOM     20  O   UNL     1       2.085   7.707  20.622  0.00  0.00    +0.000 OA
BRANCH  20  29
ATOM     21  C   UNL     1      -2.692  12.576  22.909  0.00  0.00    +0.000 C 
ATOM     22  N   UNL     1      -2.738  12.897  21.494  0.00  0.00    +0.000 N 
ATOM     23  C   UNL     1      -1.899  12.126  20.670  0.00  0.00    +0.000 A 
ATOM     24  C   UNL     1      -1.889  12.441  19.316  0.00  0.00    +0.000 A 
ATOM     25  C   UNL     1      -1.055  11.739  18.456  0.00  0.00    +0.000 A 
ATOM     26  C   UNL     1      -0.245  10.725  18.964  0.00  0.00    +0.000 A 
ATOM     27  C   UNL     1       0.614  10.002  18.126  0.00  0.00    +0.000 A 
ATOM     28  C   UNL     1       1.415   8.986  18.642  0.00  0.00    +0.000 A 
ATOM     29  C   UNL     1       1.355   8.684  19.999  0.00  0.00    +0.000 A 
ATOM     30  C   UNL     1       0.496   9.421  20.830  0.00  0.00    +0.000 A 
ATOM     31  C   UNL     1      -0.309  10.450  20.344  0.00  0.00    +0.000 A 
ATOM     32  N   UNL     1      -1.116  11.148  21.176  0.00  0.00    +0.000 NA
ATOM     33  H   UNL     1      -3.683  12.868  21.123  0.00  0.00    +0.000 HD
ENDBRANCH  20  29
ENDBRANCH  19  20
ENDBRANCH   1  19
TORSDOF 4
ENDMDL
MODEL 5
REMARK VINA RESULT:      -8.8      6.521      7.925
REMARK  Name = 
REMARK  5 active torsions:
REMARK  status: ('A' for Active; 'I' for Inactive)
REMARK    1  A    between atoms: C_1  and  N_2
REMARK    2  A    between atoms: C_9  and  O_10
REMARK    3  A    between atoms: O_10  and  C_11
REMARK    4  A    between atoms: C_11  and  C_12
REMARK    5  A    between atoms: C_16  and  N_17
REMARK                            x       y       z     vdW  Elec       q    Type
REMARK                         _______ _______ _______ _____ _____    ______ ____
ROOT
ATOM      1  C   UNL     1       2.655   5.390  20.145  0.00  0.00    +0.000 A 
ATOM      2  C   UNL     1       2.540   4.079  20.589  0.00  0.00    +0.000 A 
ATOM      3  N   UNL     1       3.395   3.105  20.220  0.00  0.00    +0.000 NA
ATOM      4  C   UNL     1       4.376   3.480  19.360  0.00  0.00    +0.000 A 
ATOM      5  C   UNL     1       4.510   4.779  18.880  0.00  0.00    +0.000 A 
ATOM      6  N   UNL     1       3.646   5.759  19.280  0.00  0.00    +0.000 NA
ENDROOT
BRANCH   5   7
ATOM      7  N   UNL     1       5.536   5.120  17.942  0.00  0.00    +0.000 N 
ATOM      8  C   UNL     1       6.593   5.974  18.217  0.00  0.00    +0.000 A 
ATOM      9  C   UNL     1       7.382   6.100  17.093  0.00  0.00    +0.000 A 
ATOM     10  C   UNL     1       6.793   5.313  16.071  0.00  0.00    +0.000 A 
ATOM     11  C   UNL     1       7.069   5.042  14.721  0.00  0.00    +0.000 A 
ATOM     12  N   UNL     1       8.147   5.571  14.029  0.00  0.00    +0.000 N 
ATOM     13  N   UNL     1       6.252   4.220  14.037  0.00  0.00    +0.000 NA
ATOM     14  C   UNL     1       5.191   3.704  14.675  0.00  0.00    +0.000 A 
ATOM     15  N   UNL     1       4.830   3.892  15.949  0.00  0.00    +0.000 NA
ATOM     16  C   UNL     1       5.664   4.712  16.618  0.00  0.00    +0.000 A 
ATOM     17  H   UNL     1       8.955   5.803  14.588  0.00  0.00    +0.000 HD
ATOM     18  H   UNL     1       8.316   5.048  13.177  0.00  0.00    +0.000 HD
ENDBRANCH   5   7
BRANCH   1  19
ATOM     19  C   UNL     1       1.613   6.420  20.510  0.00  0.00    +0.000 C 
BRANCH  19  20
ATOM     20  O   UNL     1       2.115   7.754  20.355  0.00  0.00    +0.000 OA
BRANCH  20  29
ATOM     21  C   UNL     1      -2.644  11.065  16.095  0.00  0.00    +0.000 C 
ATOM     22  N   UNL     1      -2.863  11.854  17.293  0.00  0.00    +0.000 N 
ATOM     23  C   UNL     1      -2.081  11.495  18.406  0.00  0.00    +0.000 A 
ATOM     24  C   UNL     1      -2.301  12.205  19.581  0.00  0.00    +0.000 A 
ATOM     25  C   UNL     1      -1.585  11.874  20.724  0.00  0.00    +0.000 A 
ATOM     26  C   UNL     1      -0.653  10.840  20.673  0.00  0.00    +0.000 A 
ATOM     27  C   UNL     1       0.080  10.475  21.810  0.00  0.00    +0.000 A 
ATOM     28  C   UNL     1       1.014   9.444  21.747  0.00  0.00    +0.000 A 
ATOM     29  C   UNL     1       1.223   8.776  20.544  0.00  0.00    +0.000 A 
ATOM     30  C   UNL     1       0.476   9.146  19.414  0.00  0.00    +0.000 A 
ATOM     31  C   UNL     1      -0.473  10.166  19.449  0.00  0.00    +0.000 A 
ATOM     32  N   UNL     1      -1.183  10.488  18.344  0.00  0.00    +0.000 NA
ATOM     33  H   UNL     1      -2.758  12.850  17.123  0.00  0.00    +0.000 HD
ENDBRANCH  20  29
ENDBRANCH  19  20
ENDBRANCH   1  19
TORSDOF 4
ENDMDL
MODEL 6
REMARK VINA RESULT:      -8.8      1.771      1.809
REMARK  Name = 
REMARK  5 active torsions:
REMARK  status: ('A' for Active; 'I' for Inactive)
REMARK    1  A    between atoms: C_1  and  N_2
REMARK    2  A    between atoms: C_9  and  O_10
REMARK    3  A    between atoms: O_10  and  C_11
REMARK    4  A    between atoms: C_11  and  C_12
REMARK    5  A    between atoms: C_16  and  N_17
REMARK                            x       y       z     vdW  Elec       q    Type
REMARK                         _______ _______ _______ _____ _____    ______ ____
ROOT
ATOM      1  C   UNL     1       7.993   7.484  18.013  0.00  0.00    +0.000 A 
ATOM      2  C   UNL     1       8.268   6.793  19.186  0.00  0.00    +0.000 A 
ATOM      3  N   UNL     1       8.017   5.477  19.334  0.00  0.00    +0.000 NA
ATOM      4  C   UNL     1       7.451   4.864  18.263  0.00  0.00    +0.000 A 
ATOM      5  C   UNL     1       7.145   5.528  17.080  0.00  0.00    +0.000 A 
ATOM      6  N   UNL     1       7.425   6.858  16.940  0.00  0.00    +0.000 NA
ENDROOT
BRANCH   5   7
ATOM      7  N   UNL     1       6.511   4.849  15.992  0.00  0.00    +0.000 N 
ATOM      8  C   UNL     1       5.388   4.047  16.119  0.00  0.00    +0.000 A 
ATOM      9  C   UNL     1       5.052   3.533  14.884  0.00  0.00    +0.000 A 
ATOM     10  C   UNL     1       6.005   4.014  13.951  0.00  0.00    +0.000 A 
ATOM     11  C   UNL     1       6.246   3.844  12.578  0.00  0.00    +0.000 A 
ATOM     12  N   UNL     1       5.467   3.057  11.746  0.00  0.00    +0.000 N 
ATOM     13  N   UNL     1       7.292   4.476  12.014  0.00  0.00    +0.000 NA
ATOM     14  C   UNL     1       8.075   5.232  12.797  0.00  0.00    +0.000 A 
ATOM     15  N   UNL     1       7.944   5.464  14.108  0.00  0.00    +0.000 NA
ATOM     16  C   UNL     1       6.888   4.829  14.653  0.00  0.00    +0.000 A 
ATOM     17  H   UNL     1       4.502   2.950  12.021  0.00  0.00    +0.000 HD
ATOM     18  H   UNL     1       5.641   3.286  10.773  0.00  0.00    +0.000 HD
ENDBRANCH   5   7
BRANCH   1  19
ATOM     19  C   UNL     1       8.203   8.978  17.934  0.00  0.00    +0.000 C 
BRANCH  19  20
ATOM     20  O   UNL     1       8.918   9.469  19.076  0.00  0.00    +0.000 OA
BRANCH  20  29
ATOM     21  C   UNL     1       9.407  15.194  23.405  0.00  0.00    +0.000 C 
ATOM     22  N   UNL     1      10.109  15.746  22.262  0.00  0.00    +0.000 N 
ATOM     23  C   UNL     1      10.232  14.887  21.153  0.00  0.00    +0.000 A 
ATOM     24  C   UNL     1      10.939  15.373  20.060  0.00  0.00    +0.000 A 
ATOM     25  C   UNL     1      11.124  14.560  18.949  0.00  0.00    +0.000 A 
ATOM     26  C   UNL     1      10.592  13.272  18.947  0.00  0.00    +0.000 A 
ATOM     27  C   UNL     1      10.768  12.423  17.846  0.00  0.00    +0.000 A 
ATOM     28  C   UNL     1      10.227  11.140  17.851  0.00  0.00    +0.000 A 
ATOM     29  C   UNL     1       9.503  10.702  18.955  0.00  0.00    +0.000 A 
ATOM     30  C   UNL     1       9.341  11.559  20.055  0.00  0.00    +0.000 A 
ATOM     31  C   UNL     1       9.880  12.845  20.083  0.00  0.00    +0.000 A 
ATOM     32  N   UNL     1       9.714  13.639  21.166  0.00  0.00    +0.000 NA
ATOM     33  H   UNL     1       9.711  16.628  21.953  0.00  0.00    +0.000 HD
ENDBRANCH  20  29
ENDBRANCH  19  20
ENDBRANCH   1  19
TORSDOF 4
ENDMDL
MODEL 7
REMARK VINA RESULT:      -8.7      8.606     12.053
REMARK  Name = 
REMARK  5 active torsions:
REMARK  status: ('A' for Active; 'I' for Inactive)
REMARK    1  A    between atoms: C_1  and  N_2
REMARK    2  A    between atoms: C_9  and  O_10
REMARK    3  A    between atoms: O_10  and  C_11
REMARK    4  A    between atoms: C_11  and  C_12
REMARK    5  A    between atoms: C_16  and  N_17
REMARK                            x       y       z     vdW  Elec       q    Type
REMARK                         _______ _______ _______ _____ _____    ______ ____
ROOT
ATOM      1  C   UNL     1       0.853  10.223  18.769  0.00  0.00    +0.000 A 
ATOM      2  C   UNL     1       1.518  11.424  18.976  0.00  0.00    +0.000 A 
ATOM      3  N   UNL     1       0.921  12.624  18.832  0.00  0.00    +0.000 NA
ATOM      4  C   UNL     1      -0.381  12.589  18.448  0.00  0.00    +0.000 A 
ATOM      5  C   UNL     1      -1.073  11.405  18.214  0.00  0.00    +0.000 A 
ATOM      6  N   UNL     1      -0.458  10.197  18.384  0.00  0.00    +0.000 NA
ENDROOT
BRANCH   5   7
ATOM      7  N   UNL     1      -2.433  11.417  17.771  0.00  0.00    +0.000 N 
ATOM      8  C   UNL     1      -2.846  11.026  16.506  0.00  0.00    +0.000 A 
ATOM      9  C   UNL     1      -4.213  11.180  16.404  0.00  0.00    +0.000 A 
ATOM     10  C   UNL     1      -4.674  11.702  17.640  0.00  0.00    +0.000 A 
ATOM     11  C   UNL     1      -5.912  12.105  18.164  0.00  0.00    +0.000 A 
ATOM     12  N   UNL     1      -7.106  12.050  17.463  0.00  0.00    +0.000 N 
ATOM     13  N   UNL     1      -5.969  12.576  19.424  0.00  0.00    +0.000 NA
ATOM     14  C   UNL     1      -4.827  12.657  20.123  0.00  0.00    +0.000 A 
ATOM     15  N   UNL     1      -3.597  12.307  19.728  0.00  0.00    +0.000 NA
ATOM     16  C   UNL     1      -3.564  11.831  18.468  0.00  0.00    +0.000 A 
ATOM     17  H   UNL     1      -7.162  11.340  16.748  0.00  0.00    +0.000 HD
ATOM     18  H   UNL     1      -7.896  12.122  18.096  0.00  0.00    +0.000 HD
ENDBRANCH   5   7
BRANCH   1  19
ATOM     19  C   UNL     1       1.595   8.910  18.848  0.00  0.00    +0.000 C 
BRANCH  19  20
ATOM     20  O   UNL     1       2.688   8.868  17.921  0.00  0.00    +0.000 OA
BRANCH  20  29
ATOM     21  C   UNL     1       0.520   2.104  19.064  0.00  0.00    +0.000 C 
ATOM     22  N   UNL     1       1.821   1.805  18.494  0.00  0.00    +0.000 N 
ATOM     23  C   UNL     1       2.590   2.922  18.120  0.00  0.00    +0.000 A 
ATOM     24  C   UNL     1       3.823   2.665  17.531  0.00  0.00    +0.000 A 
ATOM     25  C   UNL     1       4.613   3.726  17.108  0.00  0.00    +0.000 A 
ATOM     26  C   UNL     1       4.160   5.031  17.287  0.00  0.00    +0.000 A 
ATOM     27  C   UNL     1       4.928   6.124  16.864  0.00  0.00    +0.000 A 
ATOM     28  C   UNL     1       4.470   7.425  17.054  0.00  0.00    +0.000 A 
ATOM     29  C   UNL     1       3.242   7.640  17.673  0.00  0.00    +0.000 A 
ATOM     30  C   UNL     1       2.478   6.536  18.084  0.00  0.00    +0.000 A 
ATOM     31  C   UNL     1       2.906   5.223  17.898  0.00  0.00    +0.000 A 
ATOM     32  N   UNL     1       2.137   4.183  18.296  0.00  0.00    +0.000 NA
ATOM     33  H   UNL     1       2.378   1.208  19.098  0.00  0.00    +0.000 HD
ENDBRANCH  20  29
ENDBRANCH  19  20
ENDBRANCH   1  19
TORSDOF 4
ENDMDL
MODEL 8
REMARK VINA RESULT:      -8.7      8.328      9.569
REMARK  Name = 
REMARK  5 active torsions:
REMARK  status: ('A' for Active; 'I' for Inactive)
REMARK    1  A    between atoms: C_1  and  N_2
REMARK    2  A    between atoms: C_9  and  O_10
REMARK    3  A    between atoms: O_10  and  C_11
REMARK    4  A    between atoms: C_11  and  C_12
REMARK    5  A    between atoms: C_16  and  N_17
REMARK                            x       y       z     vdW  Elec       q    Type
REMARK                         _______ _______ _______ _____ _____    ______ ____
ROOT
ATOM      1  C   UNL     1       1.611   8.820  19.083  0.00  0.00    +0.000 A 
ATOM      2  C   UNL     1       1.252   8.528  20.393  0.00  0.00    +0.000 A 
ATOM      3  N   UNL     1       1.523   7.344  20.977  0.00  0.00    +0.000 NA
ATOM      4  C   UNL     1       2.157   6.435  20.193  0.00  0.00    +0.000 A 
ATOM      5  C   UNL     1       2.515   6.686  18.873  0.00  0.00    +0.000 A 
ATOM      6  N   UNL     1       2.250   7.900  18.302  0.00  0.00    +0.000 NA
ENDROOT
BRANCH   5   7
ATOM      7  N   UNL     1       3.145   5.683  18.072  0.00  0.00    +0.000 N 
ATOM      8  C   UNL     1       2.589   4.444  17.791  0.00  0.00    +0.000 A 
ATOM      9  C   UNL     1       3.465   3.716  17.014  0.00  0.00    +0.000 A 
ATOM     10  C   UNL     1       4.618   4.516  16.811  0.00  0.00    +0.000 A 
ATOM     11  C   UNL     1       5.852   4.360  16.160  0.00  0.00    +0.000 A 
ATOM     12  N   UNL     1       6.229   3.215  15.477  0.00  0.00    +0.000 N 
ATOM     13  N   UNL     1       6.740   5.371  16.186  0.00  0.00    +0.000 NA
ATOM     14  C   UNL     1       6.411   6.487  16.853  0.00  0.00    +0.000 A 
ATOM     15  N   UNL     1       5.273   6.746  17.507  0.00  0.00    +0.000 NA
ATOM     16  C   UNL     1       4.395   5.725  17.463  0.00  0.00    +0.000 A 
ATOM     17  H   UNL     1       5.475   2.668  15.089  0.00  0.00    +0.000 HD
ATOM     18  H   UNL     1       7.015   3.405  14.866  0.00  0.00    +0.000 HD
ENDBRANCH   5   7
BRANCH   1  19
ATOM     19  C   UNL     1       1.196  10.125  18.445  0.00  0.00    +0.000 C 
BRANCH  19  20
ATOM     20  O   UNL     1       0.156  10.768  19.194  0.00  0.00    +0.000 OA
BRANCH  20  29
ATOM     21  C   UNL     1      -5.978  14.164  20.810  0.00  0.00    +0.000 C 
ATOM     22  N   UNL     1      -6.449  13.442  19.642  0.00  0.00    +0.000 N 
ATOM     23  C   UNL     1      -5.494  12.625  19.009  0.00  0.00    +0.000 A 
ATOM     24  C   UNL     1      -5.904  11.956  17.861  0.00  0.00    +0.000 A 
ATOM     25  C   UNL     1      -4.998  11.163  17.171  0.00  0.00    +0.000 A 
ATOM     26  C   UNL     1      -3.692  11.046  17.643  0.00  0.00    +0.000 A 
ATOM     27  C   UNL     1      -2.749  10.260  16.966  0.00  0.00    +0.000 A 
ATOM     28  C   UNL     1      -1.449  10.144  17.450  0.00  0.00    +0.000 A 
ATOM     29  C   UNL     1      -1.085  10.809  18.617  0.00  0.00    +0.000 A 
ATOM     30  C   UNL     1      -2.037  11.600  19.282  0.00  0.00    +0.000 A 
ATOM     31  C   UNL     1      -3.343  11.743  18.816  0.00  0.00    +0.000 A 
ATOM     32  N   UNL     1      -4.230  12.524  19.475  0.00  0.00    +0.000 NA
ATOM     33  H   UNL     1      -7.277  12.888  19.840  0.00  0.00    +0.000 HD
ENDBRANCH  20  29
ENDBRANCH  19  20
ENDBRANCH   1  19
TORSDOF 4
ENDMDL
MODEL 9
REMARK VINA RESULT:      -8.7      6.172      7.653
REMARK  Name = 
REMARK  5 active torsions:
REMARK  status: ('A' for Active; 'I' for Inactive)
REMARK    1  A    between atoms: C_1  and  N_2
REMARK    2  A    between atoms: C_9  and  O_10
REMARK    3  A    between atoms: O_10  and  C_11
REMARK    4  A    between atoms: C_11  and  C_12
REMARK    5  A    between atoms: C_16  and  N_17
REMARK                            x       y       z     vdW  Elec       q    Type
REMARK                         _______ _______ _______ _____ _____    ______ ____
ROOT
ATOM      1  C   UNL     1       2.062   5.137  20.560  0.00  0.00    +0.000 A 
ATOM      2  C   UNL     1       2.154   3.994  21.344  0.00  0.00    +0.000 A 
ATOM      3  N   UNL     1       2.970   2.965  21.042  0.00  0.00    +0.000 NA
ATOM      4  C   UNL     1       3.690   3.103  19.899  0.00  0.00    +0.000 A 
ATOM      5  C   UNL     1       3.610   4.224  19.081  0.00  0.00    +0.000 A 
ATOM      6  N   UNL     1       2.792   5.268  19.412  0.00  0.00    +0.000 NA
ENDROOT
BRANCH   5   7
ATOM      7  N   UNL     1       4.358   4.309  17.864  0.00  0.00    +0.000 N 
ATOM      8  C   UNL     1       4.098   3.550  16.733  0.00  0.00    +0.000 A 
ATOM      9  C   UNL     1       5.015   3.864  15.752  0.00  0.00    +0.000 A 
ATOM     10  C   UNL     1       5.892   4.840  16.289  0.00  0.00    +0.000 A 
ATOM     11  C   UNL     1       7.027   5.533  15.837  0.00  0.00    +0.000 A 
ATOM     12  N   UNL     1       7.583   5.372  14.578  0.00  0.00    +0.000 N 
ATOM     13  N   UNL     1       7.628   6.413  16.659  0.00  0.00    +0.000 NA
ATOM     14  C   UNL     1       7.123   6.579  17.890  0.00  0.00    +0.000 A 
ATOM     15  N   UNL     1       6.055   5.976  18.426  0.00  0.00    +0.000 NA
ATOM     16  C   UNL     1       5.464   5.105  17.585  0.00  0.00    +0.000 A 
ATOM     17  H   UNL     1       6.945   5.087  13.850  0.00  0.00    +0.000 HD
ATOM     18  H   UNL     1       8.207   6.142  14.362  0.00  0.00    +0.000 HD
ENDBRANCH   5   7
BRANCH   1  19
ATOM     19  C   UNL     1       1.060   6.217  20.890  0.00  0.00    +0.000 C 
BRANCH  19  20
ATOM     20  O   UNL     1       1.604   7.525  20.664  0.00  0.00    +0.000 OA
BRANCH  20  29
ATOM     21  C   UNL     1       1.112  14.525  19.078  0.00  0.00    +0.000 C 
ATOM     22  N   UNL     1       0.278  14.529  20.266  0.00  0.00    +0.000 N 
ATOM     23  C   UNL     1       0.118  13.282  20.898  0.00  0.00    +0.000 A 
ATOM     24  C   UNL     1      -0.711  13.246  22.013  0.00  0.00    +0.000 A 
ATOM     25  C   UNL     1      -0.937  12.038  22.659  0.00  0.00    +0.000 A 
ATOM     26  C   UNL     1      -0.324  10.881  22.183  0.00  0.00    +0.000 A 
ATOM     27  C   UNL     1      -0.537   9.644  22.806  0.00  0.00    +0.000 A 
ATOM     28  C   UNL     1       0.086   8.495  22.326  0.00  0.00    +0.000 A 
ATOM     29  C   UNL     1       0.931   8.579  21.223  0.00  0.00    +0.000 A 
ATOM     30  C   UNL     1       1.129   9.823  20.603  0.00  0.00    +0.000 A 
ATOM     31  C   UNL     1       0.511  10.988  21.054  0.00  0.00    +0.000 A 
ATOM     32  N   UNL     1       0.716  12.167  20.423  0.00  0.00    +0.000 NA
ATOM     33  H   UNL     1       0.589  15.209  20.953  0.00  0.00    +0.000 HD
ENDBRANCH  20  29
ENDBRANCH  19  20
ENDBRANCH   1  19
TORSDOF 4
ENDMDL
