MODEL 1
REMARK VINA RESULT:      -8.8      0.000      0.000
REMARK  Name = 
REMARK  8 active torsions:
REMARK  status: ('A' for Active; 'I' for Inactive)
REMARK    1  A    between atoms: C_1  and  C_2
REMARK    2  A    between atoms: C_2  and  C_3
REMARK    3  A    between atoms: C_5  and  C_6
REMARK    4  A    between atoms: C_9  and  N_10
REMARK    5  A    between atoms: C_11  and  O_12
REMARK    6  A    between atoms: O_12  and  C_13
REMARK    7  A    between atoms: C_18  and  C_19
REMARK    8  A    between atoms: N_22  and  C_23
REMARK                            x       y       z     vdW  Elec       q    Type
REMARK                         _______ _______ _______ _____ _____    ______ ____
ROOT
ATOM      1  C   UNL     1       1.730   4.699  20.253  0.00  0.00    +0.000 A 
ATOM      2  N   UNL     1       2.692   4.572  19.325  0.00  0.00    +0.000 NA
ATOM      3  C   UNL     1       3.280   5.705  18.891  0.00  0.00    +0.000 A 
ATOM      4  C   UNL     1       2.884   6.945  19.359  0.00  0.00    +0.000 A 
ATOM      5  C   UNL     1       1.900   6.992  20.325  0.00  0.00    +0.000 A 
ATOM      6  N   UNL     1       1.320   5.864  20.775  0.00  0.00    +0.000 NA
ENDROOT
BRANCH   3   7
ATOM      7  C   UNL     1       4.368   5.528  17.914  0.00  0.00    +0.000 A 
ATOM      8  C   UNL     1       4.472   4.384  17.127  0.00  0.00    +0.000 A 
ATOM      9  N   UNL     1       5.451   4.149  16.215  0.00  0.00    +0.000 NA
ATOM     10  C   UNL     1       6.384   5.102  16.039  0.00  0.00    +0.000 A 
ATOM     11  C   UNL     1       6.374   6.300  16.755  0.00  0.00    +0.000 A 
ATOM     12  C   UNL     1       5.374   6.478  17.718  0.00  0.00    +0.000 A 
BRANCH  10  13
ATOM     13  N   UNL     1       7.341   4.783  15.073  0.00  0.00    +0.000 N 
ATOM     14  H   UNL     1       8.108   5.436  15.244  0.00  0.00    +0.000 HD
ATOM     15  H   UNL     1       7.678   3.837  15.242  0.00  0.00    +0.000 HD
ENDBRANCH  10  13
BRANCH  11  16
ATOM     16  O   UNL     1       7.244   7.347  16.685  0.00  0.00    +0.000 OA
BRANCH  16  17
ATOM     17  C   UNL     1       7.674   7.936  17.898  0.00  0.00    +0.000 C 
ATOM     18  F   UNL     1       8.438   7.061  18.604  0.00  0.00    +0.000 F 
ATOM     19  F   UNL     1       8.504   8.959  17.561  0.00  0.00    +0.000 F 
ENDBRANCH  16  17
ENDBRANCH  11  16
ENDBRANCH   3   7
BRANCH   5  20
ATOM     20  C   UNL     1       1.494   8.299  20.945  0.00  0.00    +0.000 C 
ATOM     21  C   UNL     1       0.033   8.557  21.242  0.00  0.00    +0.000 C 
ATOM     22  C   UNL     1      -0.399   9.533  22.281  0.00  0.00    +0.000 C 
ATOM     23  N   UNL     1       0.283  10.780  21.925  0.00  0.00    +0.000 NA
ATOM     24  C   UNL     1       0.709  10.752  20.517  0.00  0.00    +0.000 C 
ATOM     25  C   UNL     1       0.690   9.299  20.151  0.00  0.00    +0.000 C 
BRANCH  23  26
ATOM     26  C   UNL     1      -0.327  12.043  22.364  0.00  0.00    +0.000 C 
ATOM     27  C   UNL     1      -1.805  11.944  22.725  0.00  0.00    +0.000 C 
ATOM     28  C   UNL     1      -2.541  12.379  21.472  0.00  0.00    +0.000 C 
ATOM     29  O   UNL     1      -1.633  13.147  20.674  0.00  0.00    +0.000 OA
ATOM     30  C   UNL     1      -0.368  13.194  21.348  0.00  0.00    +0.000 C 
ENDBRANCH  23  26
ENDBRANCH   5  20
BRANCH   1  32
ATOM     31  C   UNL     1       2.160   2.657  21.603  0.00  0.00    +0.000 C 
ATOM     32  C   UNL     1       1.122   3.449  20.823  0.00  0.00    +0.000 C 
ENDBRANCH   1  32
TORSDOF 7
ENDMDL
MODEL 2
REMARK VINA RESULT:      -8.3      0.903      1.215
REMARK  Name = 
REMARK  8 active torsions:
REMARK  status: ('A' for Active; 'I' for Inactive)
REMARK    1  A    between atoms: C_1  and  C_2
REMARK    2  A    between atoms: C_2  and  C_3
REMARK    3  A    between atoms: C_5  and  C_6
REMARK    4  A    between atoms: C_9  and  N_10
REMARK    5  A    between atoms: C_11  and  O_12
REMARK    6  A    between atoms: O_12  and  C_13
REMARK    7  A    between atoms: C_18  and  C_19
REMARK    8  A    between atoms: N_22  and  C_23
REMARK                            x       y       z     vdW  Elec       q    Type
REMARK                         _______ _______ _______ _____ _____    ______ ____
ROOT
ATOM      1  C   UNL     1       2.253   5.137  20.451  0.00  0.00    +0.000 A 
ATOM      2  N   UNL     1       3.163   4.958  19.481  0.00  0.00    +0.000 NA
ATOM      3  C   UNL     1       3.491   6.037  18.739  0.00  0.00    +0.000 A 
ATOM      4  C   UNL     1       2.889   7.264  18.952  0.00  0.00    +0.000 A 
ATOM      5  C   UNL     1       1.976   7.372  19.980  0.00  0.00    +0.000 A 
ATOM      6  N   UNL     1       1.656   6.304  20.734  0.00  0.00    +0.000 NA
ENDROOT
BRANCH   3   7
ATOM      7  C   UNL     1       4.532   5.822  17.720  0.00  0.00    +0.000 A 
ATOM      8  C   UNL     1       4.403   4.850  16.731  0.00  0.00    +0.000 A 
ATOM      9  N   UNL     1       5.324   4.589  15.766  0.00  0.00    +0.000 NA
ATOM     10  C   UNL     1       6.439   5.341  15.747  0.00  0.00    +0.000 A 
ATOM     11  C   UNL     1       6.671   6.359  16.674  0.00  0.00    +0.000 A 
ATOM     12  C   UNL     1       5.718   6.559  17.679  0.00  0.00    +0.000 A 
BRANCH  10  13
ATOM     13  N   UNL     1       7.322   5.015  14.714  0.00  0.00    +0.000 N 
ATOM     14  H   UNL     1       6.800   5.210  13.859  0.00  0.00    +0.000 HD
ATOM     15  H   UNL     1       8.123   5.644  14.755  0.00  0.00    +0.000 HD
ENDBRANCH  10  13
BRANCH  11  16
ATOM     16  O   UNL     1       7.744   7.194  16.778  0.00  0.00    +0.000 OA
BRANCH  16  17
ATOM     17  C   UNL     1       7.843   8.008  17.932  0.00  0.00    +0.000 C 
ATOM     18  F   UNL     1       8.705   7.455  18.827  0.00  0.00    +0.000 F 
ATOM     19  F   UNL     1       8.421   9.173  17.537  0.00  0.00    +0.000 F 
ENDBRANCH  16  17
ENDBRANCH  11  16
ENDBRANCH   3   7
BRANCH   5  20
ATOM     20  C   UNL     1       1.360   8.698  20.325  0.00  0.00    +0.000 C 
ATOM     21  C   UNL     1       0.225   8.751  21.325  0.00  0.00    +0.000 C 
ATOM     22  C   UNL     1      -0.086   9.986  22.099  0.00  0.00    +0.000 C 
ATOM     23  N   UNL     1      -0.241  11.031  21.084  0.00  0.00    +0.000 NA
ATOM     24  C   UNL     1      -0.508  10.435  19.766  0.00  0.00    +0.000 C 
ATOM     25  C   UNL     1      -0.053   9.013  19.901  0.00  0.00    +0.000 C 
BRANCH  23  26
ATOM     26  C   UNL     1      -1.079  12.192  21.420  0.00  0.00    +0.000 C 
ATOM     27  C   UNL     1      -0.556  13.525  20.898  0.00  0.00    +0.000 C 
ATOM     28  C   UNL     1       0.206  14.126  22.064  0.00  0.00    +0.000 C 
ATOM     29  O   UNL     1      -0.260  13.498  23.263  0.00  0.00    +0.000 OA
ATOM     30  C   UNL     1      -1.252  12.526  22.909  0.00  0.00    +0.000 C 
ENDBRANCH  23  26
ENDBRANCH   5  20
BRANCH   1  32
ATOM     31  C   UNL     1       1.230   2.876  20.578  0.00  0.00    +0.000 C 
ATOM     32  C   UNL     1       1.937   3.977  21.352  0.00  0.00    +0.000 C 
ENDBRANCH   1  32
TORSDOF 7
ENDMDL
MODEL 3
REMARK VINA RESULT:      -8.1      2.826      3.534
REMARK  Name = 
REMARK  8 active torsions:
REMARK  status: ('A' for Active; 'I' for Inactive)
REMARK    1  A    between atoms: C_1  and  C_2
REMARK    2  A    between atoms: C_2  and  C_3
REMARK    3  A    between atoms: C_5  and  C_6
REMARK    4  A    between atoms: C_9  and  N_10
REMARK    5  A    between atoms: C_11  and  O_12
REMARK    6  A    between atoms: O_12  and  C_13
REMARK    7  A    between atoms: C_18  and  C_19
REMARK    8  A    between atoms: N_22  and  C_23
REMARK                            x       y       z     vdW  Elec       q    Type
REMARK                         _______ _______ _______ _____ _____    ______ ____
ROOT
ATOM      1  C   UNL     1       3.389   3.850  19.541  0.00  0.00    +0.000 A 
ATOM      2  N   UNL     1       4.278   3.885  18.537  0.00  0.00    +0.000 NA
ATOM      3  C   UNL     1       4.269   4.979  17.747  0.00  0.00    +0.000 A 
ATOM      4  C   UNL     1       3.361   6.002  17.947  0.00  0.00    +0.000 A 
ATOM      5  C   UNL     1       2.490   5.900  19.012  0.00  0.00    +0.000 A 
ATOM      6  N   UNL     1       2.504   4.819  19.814  0.00  0.00    +0.000 NA
ENDROOT
BRANCH   3   7
ATOM      7  C   UNL     1       5.292   5.012  16.688  0.00  0.00    +0.000 A 
ATOM      8  C   UNL     1       6.320   5.953  16.687  0.00  0.00    +0.000 A 
ATOM      9  N   UNL     1       7.291   6.050  15.741  0.00  0.00    +0.000 NA
ATOM     10  C   UNL     1       7.275   5.156  14.736  0.00  0.00    +0.000 A 
ATOM     11  C   UNL     1       6.308   4.154  14.640  0.00  0.00    +0.000 A 
ATOM     12  C   UNL     1       5.300   4.122  15.610  0.00  0.00    +0.000 A 
BRANCH  10  13
ATOM     13  N   UNL     1       8.316   5.319  13.819  0.00  0.00    +0.000 N 
ATOM     14  H   UNL     1       8.956   4.549  14.015  0.00  0.00    +0.000 HD
ATOM     15  H   UNL     1       7.947   5.202  12.876  0.00  0.00    +0.000 HD
ENDBRANCH  10  13
BRANCH  11  16
ATOM     16  O   UNL     1       6.167   3.187  13.689  0.00  0.00    +0.000 OA
BRANCH  16  17
ATOM     17  C   UNL     1       6.042   3.597  12.339  0.00  0.00    +0.000 C 
ATOM     18  F   UNL     1       7.030   3.046  11.585  0.00  0.00    +0.000 F 
ATOM     19  F   UNL     1       4.883   3.058  11.876  0.00  0.00    +0.000 F 
ENDBRANCH  16  17
ENDBRANCH  11  16
ENDBRANCH   3   7
BRANCH   5  20
ATOM     20  C   UNL     1       1.546   7.021  19.342  0.00  0.00    +0.000 C 
ATOM     21  C   UNL     1       1.984   8.452  19.112  0.00  0.00    +0.000 C 
ATOM     22  C   UNL     1       1.001   9.553  18.910  0.00  0.00    +0.000 C 
ATOM     23  N   UNL     1       0.103   9.466  20.064  0.00  0.00    +0.000 NA
ATOM     24  C   UNL     1       0.739   8.715  21.158  0.00  0.00    +0.000 C 
ATOM     25  C   UNL     1       1.843   7.952  20.492  0.00  0.00    +0.000 C 
BRANCH  23  26
ATOM     26  C   UNL     1      -0.599  10.690  20.479  0.00  0.00    +0.000 C 
ATOM     27  C   UNL     1      -0.267  11.925  19.649  0.00  0.00    +0.000 C 
ATOM     28  C   UNL     1       0.811  12.644  20.438  0.00  0.00    +0.000 C 
ATOM     29  O   UNL     1       0.735  12.194  21.795  0.00  0.00    +0.000 OA
ATOM     30  C   UNL     1      -0.312  11.221  21.891  0.00  0.00    +0.000 C 
ENDBRANCH  23  26
ENDBRANCH   5  20
BRANCH   1  32
ATOM     31  C   UNL     1       2.351   2.817  21.549  0.00  0.00    +0.000 C 
ATOM     32  C   UNL     1       3.437   2.688  20.493  0.00  0.00    +0.000 C 
ENDBRANCH   1  32
TORSDOF 7
ENDMDL
MODEL 4
REMARK VINA RESULT:      -8.1      1.105      1.218
REMARK  Name = 
REMARK  8 active torsions:
REMARK  status: ('A' for Active; 'I' for Inactive)
REMARK    1  A    between atoms: C_1  and  C_2
REMARK    2  A    between atoms: C_2  and  C_3
REMARK    3  A    between atoms: C_5  and  C_6
REMARK    4  A    between atoms: C_9  and  N_10
REMARK    5  A    between atoms: C_11  and  O_12
REMARK    6  A    between atoms: O_12  and  C_13
REMARK    7  A    between atoms: C_18  and  C_19
REMARK    8  A    between atoms: N_22  and  C_23
REMARK                            x       y       z     vdW  Elec       q    Type
REMARK                         _______ _______ _______ _____ _____    ______ ____
ROOT
ATOM      1  C   UNL     1       1.554   4.826  20.323  0.00  0.00    +0.000 A 
ATOM      2  N   UNL     1       2.572   4.734  19.453  0.00  0.00    +0.000 NA
ATOM      3  C   UNL     1       3.189   5.883  19.106  0.00  0.00    +0.000 A 
ATOM      4  C   UNL     1       2.769   7.102  19.603  0.00  0.00    +0.000 A 
ATOM      5  C   UNL     1       1.726   7.113  20.507  0.00  0.00    +0.000 A 
ATOM      6  N   UNL     1       1.116   5.969  20.870  0.00  0.00    +0.000 NA
ENDROOT
BRANCH   3   7
ATOM      7  C   UNL     1       4.337   5.743  18.193  0.00  0.00    +0.000 A 
ATOM      8  C   UNL     1       4.215   5.951  16.822  0.00  0.00    +0.000 A 
ATOM      9  N   UNL     1       5.224   5.832  15.920  0.00  0.00    +0.000 NA
ATOM     10  C   UNL     1       6.444   5.509  16.386  0.00  0.00    +0.000 A 
ATOM     11  C   UNL     1       6.694   5.296  17.743  0.00  0.00    +0.000 A 
ATOM     12  C   UNL     1       5.614   5.382  18.629  0.00  0.00    +0.000 A 
BRANCH  10  13
ATOM     13  N   UNL     1       7.423   5.423  15.394  0.00  0.00    +0.000 N 
ATOM     14  H   UNL     1       7.744   6.384  15.264  0.00  0.00    +0.000 HD
ATOM     15  H   UNL     1       8.201   4.867  15.745  0.00  0.00    +0.000 HD
ENDBRANCH  10  13
BRANCH  11  16
ATOM     16  O   UNL     1       7.866   4.966  18.356  0.00  0.00    +0.000 OA
BRANCH  16  17
ATOM     17  C   UNL     1       8.205   5.646  19.551  0.00  0.00    +0.000 C 
ATOM     18  F   UNL     1       9.220   5.003  20.188  0.00  0.00    +0.000 F 
ATOM     19  F   UNL     1       8.710   6.853  19.182  0.00  0.00    +0.000 F 
ENDBRANCH  16  17
ENDBRANCH  11  16
ENDBRANCH   3   7
BRANCH   5  20
ATOM     20  C   UNL     1       1.286   8.394  21.158  0.00  0.00    +0.000 C 
ATOM     21  C   UNL     1      -0.170   8.572  21.533  0.00  0.00    +0.000 C 
ATOM     22  C   UNL     1      -0.597   9.519  22.601  0.00  0.00    +0.000 C 
ATOM     23  N   UNL     1       0.000  10.802  22.220  0.00  0.00    +0.000 NA
ATOM     24  C   UNL     1       0.352  10.804  20.792  0.00  0.00    +0.000 C 
ATOM     25  C   UNL     1       0.389   9.354  20.416  0.00  0.00    +0.000 C 
BRANCH  23  26
ATOM     26  C   UNL     1      -0.652  12.029  22.700  0.00  0.00    +0.000 C 
ATOM     27  C   UNL     1      -2.168  11.936  22.826  0.00  0.00    +0.000 C 
ATOM     28  C   UNL     1      -2.702  12.525  21.534  0.00  0.00    +0.000 C 
ATOM     29  O   UNL     1      -1.674  13.345  20.968  0.00  0.00    +0.000 OA
ATOM     30  C   UNL     1      -0.524  13.283  21.822  0.00  0.00    +0.000 C 
ENDBRANCH  23  26
ENDBRANCH   5  20
BRANCH   1  32
ATOM     31  C   UNL     1       1.888   2.732  21.620  0.00  0.00    +0.000 C 
ATOM     32  C   UNL     1       0.908   3.555  20.798  0.00  0.00    +0.000 C 
ENDBRANCH   1  32
TORSDOF 7
ENDMDL
MODEL 5
REMARK VINA RESULT:      -8.1      0.786      1.125
REMARK  Name = 
REMARK  8 active torsions:
REMARK  status: ('A' for Active; 'I' for Inactive)
REMARK    1  A    between atoms: C_1  and  C_2
REMARK    2  A    between atoms: C_2  and  C_3
REMARK    3  A    between atoms: C_5  and  C_6
REMARK    4  A    between atoms: C_9  and  N_10
REMARK    5  A    between atoms: C_11  and  O_12
REMARK    6  A    between atoms: O_12  and  C_13
REMARK    7  A    between atoms: C_18  and  C_19
REMARK    8  A    between atoms: N_22  and  C_23
REMARK                            x       y       z     vdW  Elec       q    Type
REMARK                         _______ _______ _______ _____ _____    ______ ____
ROOT
ATOM      1  C   UNL     1       2.470   4.820  20.602  0.00  0.00    +0.000 A 
ATOM      2  N   UNL     1       3.369   4.703  19.612  0.00  0.00    +0.000 NA
ATOM      3  C   UNL     1       3.522   5.764  18.793  0.00  0.00    +0.000 A 
ATOM      4  C   UNL     1       2.761   6.908  18.950  0.00  0.00    +0.000 A 
ATOM      5  C   UNL     1       1.870   6.958  20.002  0.00  0.00    +0.000 A 
ATOM      6  N   UNL     1       1.724   5.910  20.833  0.00  0.00    +0.000 NA
ENDROOT
BRANCH   3   7
ATOM      7  C   UNL     1       4.554   5.625  17.752  0.00  0.00    +0.000 A 
ATOM      8  C   UNL     1       4.451   4.679  16.735  0.00  0.00    +0.000 A 
ATOM      9  N   UNL     1       5.366   4.488  15.748  0.00  0.00    +0.000 NA
ATOM     10  C   UNL     1       6.448   5.289  15.736  0.00  0.00    +0.000 A 
ATOM     11  C   UNL     1       6.651   6.287  16.690  0.00  0.00    +0.000 A 
ATOM     12  C   UNL     1       5.706   6.415  17.715  0.00  0.00    +0.000 A 
BRANCH  10  13
ATOM     13  N   UNL     1       7.326   5.034  14.680  0.00  0.00    +0.000 N 
ATOM     14  H   UNL     1       7.761   5.936  14.483  0.00  0.00    +0.000 HD
ATOM     15  H   UNL     1       8.048   4.390  15.000  0.00  0.00    +0.000 HD
ENDBRANCH  10  13
BRANCH  11  16
ATOM     16  O   UNL     1       7.687   7.166  16.803  0.00  0.00    +0.000 OA
BRANCH  16  17
ATOM     17  C   UNL     1       7.791   7.921  17.996  0.00  0.00    +0.000 C 
ATOM     18  F   UNL     1       8.653   7.324  18.860  0.00  0.00    +0.000 F 
ATOM     19  F   UNL     1       8.371   9.104  17.657  0.00  0.00    +0.000 F 
ENDBRANCH  16  17
ENDBRANCH  11  16
ENDBRANCH   3   7
BRANCH   5  20
ATOM     20  C   UNL     1       1.085   8.208  20.285  0.00  0.00    +0.000 C 
ATOM     21  C   UNL     1       1.710   9.557  19.999  0.00  0.00    +0.000 C 
ATOM     22  C   UNL     1       0.882  10.771  19.751  0.00  0.00    +0.000 C 
ATOM     23  N   UNL     1      -0.015  10.851  20.906  0.00  0.00    +0.000 NA
ATOM     24  C   UNL     1       0.518  10.066  22.030  0.00  0.00    +0.000 C 
ATOM     25  C   UNL     1       1.508   9.135  21.398  0.00  0.00    +0.000 C 
BRANCH  23  26
ATOM     26  C   UNL     1      -0.545  12.173  21.270  0.00  0.00    +0.000 C 
ATOM     27  C   UNL     1      -0.984  12.304  22.724  0.00  0.00    +0.000 C 
ATOM     28  C   UNL     1      -2.480  12.051  22.702  0.00  0.00    +0.000 C 
ATOM     29  O   UNL     1      -2.944  12.282  21.368  0.00  0.00    +0.000 OA
ATOM     30  C   UNL     1      -1.820  12.641  20.554  0.00  0.00    +0.000 C 
ENDBRANCH  23  26
ENDBRANCH   5  20
BRANCH   1  32
ATOM     31  C   UNL     1       1.334   2.665  21.095  0.00  0.00    +0.000 C 
ATOM     32  C   UNL     1       2.344   3.691  21.585  0.00  0.00    +0.000 C 
ENDBRANCH   1  32
TORSDOF 7
ENDMDL
MODEL 6
REMARK VINA RESULT:      -7.7      1.190      1.649
REMARK  Name = 
REMARK  8 active torsions:
REMARK  status: ('A' for Active; 'I' for Inactive)
REMARK    1  A    between atoms: C_1  and  C_2
REMARK    2  A    between atoms: C_2  and  C_3
REMARK    3  A    between atoms: C_5  and  C_6
REMARK    4  A    between atoms: C_9  and  N_10
REMARK    5  A    between atoms: C_11  and  O_12
REMARK    6  A    between atoms: O_12  and  C_13
REMARK    7  A    between atoms: C_18  and  C_19
REMARK    8  A    between atoms: N_22  and  C_23
REMARK                            x       y       z     vdW  Elec       q    Type
REMARK                         _______ _______ _______ _____ _____    ______ ____
ROOT
ATOM      1  C   UNL     1       2.591   3.889  19.738  0.00  0.00    +0.000 A 
ATOM      2  N   UNL     1       3.568   3.938  18.820  0.00  0.00    +0.000 NA
ATOM      3  C   UNL     1       3.728   5.101  18.155  0.00  0.00    +0.000 A 
ATOM      4  C   UNL     1       2.898   6.182  18.388  0.00  0.00    +0.000 A 
ATOM      5  C   UNL     1       1.927   6.059  19.361  0.00  0.00    +0.000 A 
ATOM      6  N   UNL     1       1.772   4.908  20.040  0.00  0.00    +0.000 NA
ENDROOT
BRANCH   3   7
ATOM      7  C   UNL     1       4.843   5.141  17.194  0.00  0.00    +0.000 A 
ATOM      8  C   UNL     1       4.908   4.275  16.106  0.00  0.00    +0.000 A 
ATOM      9  N   UNL     1       5.909   4.248  15.186  0.00  0.00    +0.000 NA
ATOM     10  C   UNL     1       6.906   5.142  15.321  0.00  0.00    +0.000 A 
ATOM     11  C   UNL     1       6.939   6.074  16.359  0.00  0.00    +0.000 A 
ATOM     12  C   UNL     1       5.913   6.033  17.310  0.00  0.00    +0.000 A 
BRANCH  10  13
ATOM     13  N   UNL     1       7.881   5.053  14.325  0.00  0.00    +0.000 N 
ATOM     14  H   UNL     1       7.991   6.010  13.986  0.00  0.00    +0.000 HD
ATOM     15  H   UNL     1       8.759   4.757  14.748  0.00  0.00    +0.000 HD
ENDBRANCH  10  13
BRANCH  11  16
ATOM     16  O   UNL     1       7.875   7.031  16.621  0.00  0.00    +0.000 OA
BRANCH  16  17
ATOM     17  C   UNL     1       7.701   7.832  17.774  0.00  0.00    +0.000 C 
ATOM     18  F   UNL     1       8.569   7.452  18.749  0.00  0.00    +0.000 F 
ATOM     19  F   UNL     1       8.067   9.095  17.429  0.00  0.00    +0.000 F 
ENDBRANCH  16  17
ENDBRANCH  11  16
ENDBRANCH   3   7
BRANCH   5  20
ATOM     20  C   UNL     1       1.057   7.228  19.731  0.00  0.00    +0.000 C 
ATOM     21  C   UNL     1       1.504   8.628  19.369  0.00  0.00    +0.000 C 
ATOM     22  C   UNL     1       0.534   9.749  19.216  0.00  0.00    +0.000 C 
ATOM     23  N   UNL     1      -0.226   9.755  20.469  0.00  0.00    +0.000 NA
ATOM     24  C   UNL     1       0.512   9.045  21.525  0.00  0.00    +0.000 C 
ATOM     25  C   UNL     1       1.511   8.209  20.783  0.00  0.00    +0.000 C 
BRANCH  23  26
ATOM     26  C   UNL     1      -0.842  11.023  20.888  0.00  0.00    +0.000 C 
ATOM     27  C   UNL     1      -0.644  12.179  19.915  0.00  0.00    +0.000 C 
ATOM     28  C   UNL     1       0.554  12.938  20.453  0.00  0.00    +0.000 C 
ATOM     29  O   UNL     1       0.701  12.602  21.837  0.00  0.00    +0.000 OA
ATOM     30  C   UNL     1      -0.323  11.661  22.185  0.00  0.00    +0.000 C 
ENDBRANCH  23  26
ENDBRANCH   5  20
BRANCH   1  32
ATOM     31  C   UNL     1       1.682   2.925  21.842  0.00  0.00    +0.000 C 
ATOM     32  C   UNL     1       2.449   2.639  20.560  0.00  0.00    +0.000 C 
ENDBRANCH   1  32
TORSDOF 7
ENDMDL
MODEL 7
REMARK VINA RESULT:      -7.7      3.039      3.612
REMARK  Name = 
REMARK  8 active torsions:
REMARK  status: ('A' for Active; 'I' for Inactive)
REMARK    1  A    between atoms: C_1  and  C_2
REMARK    2  A    between atoms: C_2  and  C_3
REMARK    3  A    between atoms: C_5  and  C_6
REMARK    4  A    between atoms: C_9  and  N_10
REMARK    5  A    between atoms: C_11  and  O_12
REMARK    6  A    between atoms: O_12  and  C_13
REMARK    7  A    between atoms: C_18  and  C_19
REMARK    8  A    between atoms: N_22  and  C_23
REMARK                            x       y       z     vdW  Elec       q    Type
REMARK                         _______ _______ _______ _____ _____    ______ ____
ROOT
ATOM      1  C   UNL     1       2.896   4.913  19.153  0.00  0.00    +0.000 A 
ATOM      2  N   UNL     1       3.836   4.713  18.216  0.00  0.00    +0.000 NA
ATOM      3  C   UNL     1       4.153   5.762  17.429  0.00  0.00    +0.000 A 
ATOM      4  C   UNL     1       3.511   6.980  17.564  0.00  0.00    +0.000 A 
ATOM      5  C   UNL     1       2.568   7.112  18.563  0.00  0.00    +0.000 A 
ATOM      6  N   UNL     1       2.259   6.074  19.362  0.00  0.00    +0.000 NA
ENDROOT
BRANCH   3   7
ATOM      7  C   UNL     1       5.225   5.527  16.448  0.00  0.00    +0.000 A 
ATOM      8  C   UNL     1       6.370   6.320  16.405  0.00  0.00    +0.000 A 
ATOM      9  N   UNL     1       7.394   6.168  15.524  0.00  0.00    +0.000 NA
ATOM     10  C   UNL     1       7.310   5.161  14.636  0.00  0.00    +0.000 A 
ATOM     11  C   UNL     1       6.222   4.287  14.596  0.00  0.00    +0.000 A 
ATOM     12  C   UNL     1       5.169   4.511  15.490  0.00  0.00    +0.000 A 
BRANCH  10  13
ATOM     13  N   UNL     1       8.411   5.070  13.781  0.00  0.00    +0.000 N 
ATOM     14  H   UNL     1       8.377   4.116  13.418  0.00  0.00    +0.000 HD
ATOM     15  H   UNL     1       8.280   5.716  13.005  0.00  0.00    +0.000 HD
ENDBRANCH  10  13
BRANCH  11  16
ATOM     16  O   UNL     1       6.002   3.232  13.761  0.00  0.00    +0.000 OA
BRANCH  16  17
ATOM     17  C   UNL     1       5.696   3.509  12.407  0.00  0.00    +0.000 C 
ATOM     18  F   UNL     1       5.852   2.390  11.650  0.00  0.00    +0.000 F 
ATOM     19  F   UNL     1       4.369   3.802  12.360  0.00  0.00    +0.000 F 
ENDBRANCH  16  17
ENDBRANCH  11  16
ENDBRANCH   3   7
BRANCH   5  20
ATOM     20  C   UNL     1       1.907   8.435  18.825  0.00  0.00    +0.000 C 
ATOM     21  C   UNL     1       0.860   8.945  17.857  0.00  0.00    +0.000 C 
ATOM     22  C   UNL     1      -0.183   9.926  18.270  0.00  0.00    +0.000 C 
ATOM     23  N   UNL     1       0.567  11.040  18.857  0.00  0.00    +0.000 NA
ATOM     24  C   UNL     1       1.968  11.012  18.409  0.00  0.00    +0.000 C 
ATOM     25  C   UNL     1       2.174   9.611  17.918  0.00  0.00    +0.000 C 
BRANCH  23  26
ATOM     26  C   UNL     1      -0.061  12.369  18.844  0.00  0.00    +0.000 C 
ATOM     27  C   UNL     1      -0.315  12.966  20.223  0.00  0.00    +0.000 C 
ATOM     28  C   UNL     1      -1.761  12.625  20.533  0.00  0.00    +0.000 C 
ATOM     29  O   UNL     1      -2.422  12.349  19.294  0.00  0.00    +0.000 OA
ATOM     30  C   UNL     1      -1.466  12.477  18.233  0.00  0.00    +0.000 C 
ENDBRANCH  23  26
ENDBRANCH   5  20
BRANCH   1  32
ATOM     31  C   UNL     1       2.412   2.483  19.347  0.00  0.00    +0.000 C 
ATOM     32  C   UNL     1       2.590   3.790  20.103  0.00  0.00    +0.000 C 
ENDBRANCH   1  32
TORSDOF 7
ENDMDL
MODEL 8
REMARK VINA RESULT:      -7.7      2.086      2.479
REMARK  Name = 
REMARK  8 active torsions:
REMARK  status: ('A' for Active; 'I' for Inactive)
REMARK    1  A    between atoms: C_1  and  C_2
REMARK    2  A    between atoms: C_2  and  C_3
REMARK    3  A    between atoms: C_5  and  C_6
REMARK    4  A    between atoms: C_9  and  N_10
REMARK    5  A    between atoms: C_11  and  O_12
REMARK    6  A    between atoms: O_12  and  C_13
REMARK    7  A    between atoms: C_18  and  C_19
REMARK    8  A    between atoms: N_22  and  C_23
REMARK                            x       y       z     vdW  Elec       q    Type
REMARK                         _______ _______ _______ _____ _____    ______ ____
ROOT
ATOM      1  C   UNL     1       1.718   4.759  20.037  0.00  0.00    +0.000 A 
ATOM      2  N   UNL     1       2.704   4.714  19.128  0.00  0.00    +0.000 NA
ATOM      3  C   UNL     1       3.289   5.883  18.797  0.00  0.00    +0.000 A 
ATOM      4  C   UNL     1       2.867   7.079  19.349  0.00  0.00    +0.000 A 
ATOM      5  C   UNL     1       1.859   7.041  20.291  0.00  0.00    +0.000 A 
ATOM      6  N   UNL     1       1.281   5.876  20.637  0.00  0.00    +0.000 NA
ENDROOT
BRANCH   3   7
ATOM      7  C   UNL     1       4.404   5.794  17.839  0.00  0.00    +0.000 A 
ATOM      8  C   UNL     1       5.308   6.839  17.662  0.00  0.00    +0.000 A 
ATOM      9  N   UNL     1       6.352   6.831  16.792  0.00  0.00    +0.000 NA
ATOM     10  C   UNL     1       6.545   5.720  16.058  0.00  0.00    +0.000 A 
ATOM     11  C   UNL     1       5.718   4.601  16.162  0.00  0.00    +0.000 A 
ATOM     12  C   UNL     1       4.627   4.673  17.035  0.00  0.00    +0.000 A 
BRANCH  10  13
ATOM     13  N   UNL     1       7.648   5.794  15.203  0.00  0.00    +0.000 N 
ATOM     14  H   UNL     1       7.757   4.845  14.841  0.00  0.00    +0.000 HD
ATOM     15  H   UNL     1       7.422   6.413  14.426  0.00  0.00    +0.000 HD
ENDBRANCH  10  13
BRANCH  11  16
ATOM     16  O   UNL     1       5.790   3.417  15.489  0.00  0.00    +0.000 OA
BRANCH  16  17
ATOM     17  C   UNL     1       5.497   3.421  14.104  0.00  0.00    +0.000 C 
ATOM     18  F   UNL     1       4.844   4.564  13.763  0.00  0.00    +0.000 F 
ATOM     19  F   UNL     1       6.691   3.472  13.455  0.00  0.00    +0.000 F 
ENDBRANCH  16  17
ENDBRANCH  11  16
ENDBRANCH   3   7
BRANCH   5  20
ATOM     20  C   UNL     1       1.421   8.292  20.999  0.00  0.00    +0.000 C 
ATOM     21  C   UNL     1      -0.051   8.511  21.275  0.00  0.00    +0.000 C 
ATOM     22  C   UNL     1      -0.521   9.400  22.375  0.00  0.00    +0.000 C 
ATOM     23  N   UNL     1       0.156  10.677  22.136  0.00  0.00    +0.000 NA
ATOM     24  C   UNL     1       0.619  10.763  20.742  0.00  0.00    +0.000 C 
ATOM     25  C   UNL     1       0.626   9.343  20.264  0.00  0.00    +0.000 C 
BRANCH  23  26
ATOM     26  C   UNL     1      -0.481  11.896  22.655  0.00  0.00    +0.000 C 
ATOM     27  C   UNL     1      -1.983  11.780  22.886  0.00  0.00    +0.000 C 
ATOM     28  C   UNL     1      -2.614  12.353  21.631  0.00  0.00    +0.000 C 
ATOM     29  O   UNL     1      -1.641  13.186  20.992  0.00  0.00    +0.000 OA
ATOM     30  C   UNL     1      -0.434  13.147  21.764  0.00  0.00    +0.000 C 
ENDBRANCH  23  26
ENDBRANCH   5  20
BRANCH   1  32
ATOM     31  C   UNL     1       0.843   2.550  19.306  0.00  0.00    +0.000 C 
ATOM     32  C   UNL     1       1.111   3.462  20.493  0.00  0.00    +0.000 C 
ENDBRANCH   1  32
TORSDOF 7
ENDMDL
MODEL 9
REMARK VINA RESULT:      -7.7      4.581      9.237
REMARK  Name = 
REMARK  8 active torsions:
REMARK  status: ('A' for Active; 'I' for Inactive)
REMARK    1  A    between atoms: C_1  and  C_2
REMARK    2  A    between atoms: C_2  and  C_3
REMARK    3  A    between atoms: C_5  and  C_6
REMARK    4  A    between atoms: C_9  and  N_10
REMARK    5  A    between atoms: C_11  and  O_12
REMARK    6  A    between atoms: O_12  and  C_13
REMARK    7  A    between atoms: C_18  and  C_19
REMARK    8  A    between atoms: N_22  and  C_23
REMARK                            x       y       z     vdW  Elec       q    Type
REMARK                         _______ _______ _______ _____ _____    ______ ____
ROOT
ATOM      1  C   UNL     1       0.251   9.796  21.365  0.00  0.00    +0.000 A 
ATOM      2  N   UNL     1      -0.714  10.314  20.590  0.00  0.00    +0.000 NA
ATOM      3  C   UNL     1      -0.654  10.042  19.270  0.00  0.00    +0.000 A 
ATOM      4  C   UNL     1       0.376   9.289  18.738  0.00  0.00    +0.000 A 
ATOM      5  C   UNL     1       1.322   8.776  19.602  0.00  0.00    +0.000 A 
ATOM      6  N   UNL     1       1.259   9.030  20.923  0.00  0.00    +0.000 NA
ENDROOT
BRANCH   3   7
ATOM      7  C   UNL     1      -1.757  10.579  18.455  0.00  0.00    +0.000 A 
ATOM      8  C   UNL     1      -2.873  11.180  19.031  0.00  0.00    +0.000 A 
ATOM      9  N   UNL     1      -3.931  11.687  18.344  0.00  0.00    +0.000 NA
ATOM     10  C   UNL     1      -3.890  11.627  17.001  0.00  0.00    +0.000 A 
ATOM     11  C   UNL     1      -2.814  11.068  16.309  0.00  0.00    +0.000 A 
ATOM     12  C   UNL     1      -1.771  10.514  17.059  0.00  0.00    +0.000 A 
BRANCH  10  13
ATOM     13  N   UNL     1      -5.008  12.186  16.377  0.00  0.00    +0.000 N 
ATOM     14  H   UNL     1      -4.644  12.603  15.520  0.00  0.00    +0.000 HD
ATOM     15  H   UNL     1      -5.652  11.438  16.124  0.00  0.00    +0.000 HD
ENDBRANCH  10  13
BRANCH  11  16
ATOM     16  O   UNL     1      -2.635  10.939  14.964  0.00  0.00    +0.000 OA
BRANCH  16  17
ATOM     17  C   UNL     1      -3.068   9.740  14.348  0.00  0.00    +0.000 C 
ATOM     18  F   UNL     1      -4.388   9.820  14.035  0.00  0.00    +0.000 F 
ATOM     19  F   UNL     1      -2.413   9.655  13.159  0.00  0.00    +0.000 F 
ENDBRANCH  16  17
ENDBRANCH  11  16
ENDBRANCH   3   7
BRANCH   5  20
ATOM     20  C   UNL     1       2.410   7.870  19.101  0.00  0.00    +0.000 C 
ATOM     21  C   UNL     1       2.746   7.861  17.625  0.00  0.00    +0.000 C 
ATOM     22  C   UNL     1       4.081   7.429  17.125  0.00  0.00    +0.000 C 
ATOM     23  N   UNL     1       4.285   6.101  17.710  0.00  0.00    +0.000 NA
ATOM     24  C   UNL     1       3.001   5.519  18.130  0.00  0.00    +0.000 C 
ATOM     25  C   UNL     1       2.073   6.692  18.220  0.00  0.00    +0.000 C 
BRANCH  23  26
ATOM     26  C   UNL     1       5.185   5.175  17.007  0.00  0.00    +0.000 C 
ATOM     27  C   UNL     1       6.240   4.519  17.891  0.00  0.00    +0.000 C 
ATOM     28  C   UNL     1       7.481   5.374  17.712  0.00  0.00    +0.000 C 
ATOM     29  O   UNL     1       7.341   6.098  16.485  0.00  0.00    +0.000 OA
ATOM     30  C   UNL     1       6.076   5.762  15.902  0.00  0.00    +0.000 C 
ENDBRANCH  23  26
ENDBRANCH   5  20
BRANCH   1  32
ATOM     31  C   UNL     1      -1.129  10.728  23.210  0.00  0.00    +0.000 C 
ATOM     32  C   UNL     1       0.159  10.004  22.850  0.00  0.00    +0.000 C 
ENDBRANCH   1  32
TORSDOF 7
ENDMDL
