MODEL 1
REMARK VINA RESULT:      -6.3      0.000      0.000
REMARK  Name = 
REMARK  10 active torsions:
REMARK  status: ('A' for Active; 'I' for Inactive)
REMARK    1  A    between atoms: C_1  and  O_2
REMARK    2  A    between atoms: O_2  and  C_3
REMARK    3  A    between atoms: C_6  and  N_7
REMARK    4  A    between atoms: C_8  and  C_10
REMARK    5  A    between atoms: C_10  and  C_11
REMARK    6  A    between atoms: C_11  and  C_12
REMARK    7  A    between atoms: C_11  and  C_13
REMARK    8  A    between atoms: C_11  and  C_14
REMARK    9  A    between atoms: C_14  and  C_15
REMARK   10  A    between atoms: C_15  and  O_17
REMARK                            x       y       z     vdW  Elec       q    Type
REMARK                         _______ _______ _______ _____ _____    ______ ____
ROOT
ATOM      1  N   UNL     1       4.723   4.346  18.114  0.00  0.00    +0.000 N 
ATOM      2  C   UNL     1       3.817   5.306  18.528  0.00  0.00    +0.000 C 
ATOM      3  O   UNL     1       3.623   6.383  17.964  0.00  0.00    +0.000 OA
ATOM      4  H   UNL     1       5.077   3.718  18.832  0.00  0.00    +0.000 HD
ENDROOT
BRANCH   1   8
ATOM      5  C   UNL     1       7.078   5.054  14.692  0.00  0.00    +0.000 A 
ATOM      6  C   UNL     1       7.517   5.450  15.961  0.00  0.00    +0.000 A 
ATOM      7  C   UNL     1       6.763   5.160  17.101  0.00  0.00    +0.000 A 
ATOM      8  C   UNL     1       5.517   4.549  16.969  0.00  0.00    +0.000 A 
ATOM      9  C   UNL     1       5.070   4.164  15.702  0.00  0.00    +0.000 A 
ATOM     10  C   UNL     1       5.854   4.400  14.569  0.00  0.00    +0.000 A 
BRANCH   5  12
ATOM     11  C   UNL     1       7.528   4.902  12.375  0.00  0.00    +0.000 C 
ATOM     12  O   UNL     1       7.901   5.397  13.656  0.00  0.00    +0.000 OA
ENDBRANCH   5  12
ENDBRANCH   1   8
BRANCH   2  13
ATOM     13  C   UNL     1       3.010   4.930  19.760  0.00  0.00    +0.000 C 
BRANCH  13  14
ATOM     14  C   UNL     1       1.935   3.849  19.474  0.00  0.00    +0.000 C 
ATOM     15  C   UNL     1       0.730   4.085  20.408  0.00  0.00    +0.000 C 
ATOM     16  C   UNL     1       1.432   3.994  18.019  0.00  0.00    +0.000 C 
BRANCH  14  17
ATOM     17  C   UNL     1       2.458   2.403  19.653  0.00  0.00    +0.000 C 
BRANCH  17  18
ATOM     18  C   UNL     1       3.545   2.258  20.695  0.00  0.00    +0.000 C 
ATOM     19  O   UNL     1       4.734   2.145  20.419  0.00  0.00    +0.000 OA
BRANCH  18  20
ATOM     20  O   UNL     1       3.095   2.260  21.964  0.00  0.00    +0.000 OA
ATOM     21  H   UNL     1       2.320   2.831  22.126  0.00  0.00    +0.000 HD
ENDBRANCH  18  20
ENDBRANCH  17  18
ENDBRANCH  14  17
ENDBRANCH  13  14
ENDBRANCH   2  13
TORSDOF 7
ENDMDL
MODEL 2
REMARK VINA RESULT:      -6.3      2.608      3.418
REMARK  Name = 
REMARK  10 active torsions:
REMARK  status: ('A' for Active; 'I' for Inactive)
REMARK    1  A    between atoms: C_1  and  O_2
REMARK    2  A    between atoms: O_2  and  C_3
REMARK    3  A    between atoms: C_6  and  N_7
REMARK    4  A    between atoms: C_8  and  C_10
REMARK    5  A    between atoms: C_10  and  C_11
REMARK    6  A    between atoms: C_11  and  C_12
REMARK    7  A    between atoms: C_11  and  C_13
REMARK    8  A    between atoms: C_11  and  C_14
REMARK    9  A    between atoms: C_14  and  C_15
REMARK   10  A    between atoms: C_15  and  O_17
REMARK                            x       y       z     vdW  Elec       q    Type
REMARK                         _______ _______ _______ _____ _____    ______ ____
ROOT
ATOM      1  N   UNL     1       5.808   4.213  18.851  0.00  0.00    +0.000 N 
ATOM      2  C   UNL     1       4.623   4.258  19.565  0.00  0.00    +0.000 C 
ATOM      3  O   UNL     1       4.037   5.290  19.894  0.00  0.00    +0.000 OA
ATOM      4  H   UNL     1       6.382   3.384  18.979  0.00  0.00    +0.000 HD
ENDROOT
BRANCH   1   8
ATOM      5  C   UNL     1       7.685   7.804  17.696  0.00  0.00    +0.000 A 
ATOM      6  C   UNL     1       8.190   7.036  18.752  0.00  0.00    +0.000 A 
ATOM      7  C   UNL     1       7.602   5.816  19.094  0.00  0.00    +0.000 A 
ATOM      8  C   UNL     1       6.446   5.398  18.437  0.00  0.00    +0.000 A 
ATOM      9  C   UNL     1       5.931   6.169  17.390  0.00  0.00    +0.000 A 
ATOM     10  C   UNL     1       6.557   7.360  17.010  0.00  0.00    +0.000 A 
BRANCH   5  12
ATOM     11  C   UNL     1       8.801   9.677  18.612  0.00  0.00    +0.000 C 
ATOM     12  O   UNL     1       8.344   8.979  17.460  0.00  0.00    +0.000 OA
ENDBRANCH   5  12
ENDBRANCH   1   8
BRANCH   2  13
ATOM     13  C   UNL     1       4.037   2.900  19.912  0.00  0.00    +0.000 C 
BRANCH  13  14
ATOM     14  C   UNL     1       2.959   2.428  18.901  0.00  0.00    +0.000 C 
ATOM     15  C   UNL     1       2.713   3.552  17.873  0.00  0.00    +0.000 C 
ATOM     16  C   UNL     1       3.483   1.196  18.128  0.00  0.00    +0.000 C 
BRANCH  14  17
ATOM     17  C   UNL     1       1.621   2.033  19.572  0.00  0.00    +0.000 C 
BRANCH  17  18
ATOM     18  C   UNL     1       1.253   2.875  20.774  0.00  0.00    +0.000 C 
ATOM     19  O   UNL     1       1.517   2.555  21.928  0.00  0.00    +0.000 OA
BRANCH  18  20
ATOM     20  O   UNL     1       0.606   4.016  20.470  0.00  0.00    +0.000 OA
ATOM     21  H   UNL     1       1.182   4.780  20.280  0.00  0.00    +0.000 HD
ENDBRANCH  18  20
ENDBRANCH  17  18
ENDBRANCH  14  17
ENDBRANCH  13  14
ENDBRANCH   2  13
TORSDOF 7
ENDMDL
MODEL 3
REMARK VINA RESULT:      -6.2      1.872      2.596
REMARK  Name = 
REMARK  10 active torsions:
REMARK  status: ('A' for Active; 'I' for Inactive)
REMARK    1  A    between atoms: C_1  and  O_2
REMARK    2  A    between atoms: O_2  and  C_3
REMARK    3  A    between atoms: C_6  and  N_7
REMARK    4  A    between atoms: C_8  and  C_10
REMARK    5  A    between atoms: C_10  and  C_11
REMARK    6  A    between atoms: C_11  and  C_12
REMARK    7  A    between atoms: C_11  and  C_13
REMARK    8  A    between atoms: C_11  and  C_14
REMARK    9  A    between atoms: C_14  and  C_15
REMARK   10  A    between atoms: C_15  and  O_17
REMARK                            x       y       z     vdW  Elec       q    Type
REMARK                         _______ _______ _______ _____ _____    ______ ____
ROOT
ATOM      1  N   UNL     1       3.559   4.983  18.123  0.00  0.00    +0.000 N 
ATOM      2  C   UNL     1       4.044   5.032  19.419  0.00  0.00    +0.000 C 
ATOM      3  O   UNL     1       5.232   5.138  19.723  0.00  0.00    +0.000 OA
ATOM      4  H   UNL     1       2.667   4.512  17.991  0.00  0.00    +0.000 HD
ENDROOT
BRANCH   1   8
ATOM      5  C   UNL     1       6.254   5.177  14.890  0.00  0.00    +0.000 A 
ATOM      6  C   UNL     1       5.912   3.949  15.468  0.00  0.00    +0.000 A 
ATOM      7  C   UNL     1       4.973   3.881  16.500  0.00  0.00    +0.000 A 
ATOM      8  C   UNL     1       4.433   5.055  17.022  0.00  0.00    +0.000 A 
ATOM      9  C   UNL     1       4.783   6.285  16.456  0.00  0.00    +0.000 A 
ATOM     10  C   UNL     1       5.677   6.346  15.383  0.00  0.00    +0.000 A 
BRANCH   5  12
ATOM     11  C   UNL     1       6.886   4.235  12.815  0.00  0.00    +0.000 C 
ATOM     12  O   UNL     1       7.186   5.114  13.892  0.00  0.00    +0.000 OA
ENDBRANCH   5  12
ENDBRANCH   1   8
BRANCH   2  13
ATOM     13  C   UNL     1       2.977   4.976  20.500  0.00  0.00    +0.000 C 
BRANCH  13  14
ATOM     14  C   UNL     1       2.238   3.613  20.553  0.00  0.00    +0.000 C 
ATOM     15  C   UNL     1       3.084   2.558  19.811  0.00  0.00    +0.000 C 
ATOM     16  C   UNL     1       2.108   3.156  22.025  0.00  0.00    +0.000 C 
BRANCH  14  17
ATOM     17  C   UNL     1       0.815   3.664  19.945  0.00  0.00    +0.000 C 
BRANCH  17  18
ATOM     18  C   UNL     1       0.689   2.990  18.597  0.00  0.00    +0.000 C 
ATOM     19  O   UNL     1       0.247   1.855  18.448  0.00  0.00    +0.000 OA
BRANCH  18  20
ATOM     20  O   UNL     1       1.108   3.743  17.563  0.00  0.00    +0.000 OA
ATOM     21  H   UNL     1       0.402   4.217  17.085  0.00  0.00    +0.000 HD
ENDBRANCH  18  20
ENDBRANCH  17  18
ENDBRANCH  14  17
ENDBRANCH  13  14
ENDBRANCH   2  13
TORSDOF 7
ENDMDL
MODEL 4
REMARK VINA RESULT:      -6.2      2.556      3.269
REMARK  Name = 
REMARK  10 active torsions:
REMARK  status: ('A' for Active; 'I' for Inactive)
REMARK    1  A    between atoms: C_1  and  O_2
REMARK    2  A    between atoms: O_2  and  C_3
REMARK    3  A    between atoms: C_6  and  N_7
REMARK    4  A    between atoms: C_8  and  C_10
REMARK    5  A    between atoms: C_10  and  C_11
REMARK    6  A    between atoms: C_11  and  C_12
REMARK    7  A    between atoms: C_11  and  C_13
REMARK    8  A    between atoms: C_11  and  C_14
REMARK    9  A    between atoms: C_14  and  C_15
REMARK   10  A    between atoms: C_15  and  O_17
REMARK                            x       y       z     vdW  Elec       q    Type
REMARK                         _______ _______ _______ _____ _____    ______ ____
ROOT
ATOM      1  N   UNL     1       4.754   4.567  17.673  0.00  0.00    +0.000 N 
ATOM      2  C   UNL     1       3.456   4.896  18.021  0.00  0.00    +0.000 C 
ATOM      3  O   UNL     1       3.104   5.980  18.488  0.00  0.00    +0.000 OA
ATOM      4  H   UNL     1       4.989   3.578  17.683  0.00  0.00    +0.000 HD
ENDROOT
BRANCH   1   8
ATOM      5  C   UNL     1       7.848   7.368  18.253  0.00  0.00    +0.000 A 
ATOM      6  C   UNL     1       7.766   6.214  19.042  0.00  0.00    +0.000 A 
ATOM      7  C   UNL     1       6.775   5.258  18.808  0.00  0.00    +0.000 A 
ATOM      8  C   UNL     1       5.803   5.492  17.837  0.00  0.00    +0.000 A 
ATOM      9  C   UNL     1       5.874   6.651  17.057  0.00  0.00    +0.000 A 
ATOM     10  C   UNL     1       6.902   7.577  17.252  0.00  0.00    +0.000 A 
BRANCH   5  12
ATOM     11  C   UNL     1       8.638   9.597  18.260  0.00  0.00    +0.000 C 
ATOM     12  O   UNL     1       8.858   8.229  18.581  0.00  0.00    +0.000 OA
ENDBRANCH   5  12
ENDBRANCH   1   8
BRANCH   2  13
ATOM     13  C   UNL     1       2.430   3.808  17.754  0.00  0.00    +0.000 C 
BRANCH  13  14
ATOM     14  C   UNL     1       2.502   2.643  18.777  0.00  0.00    +0.000 C 
ATOM     15  C   UNL     1       1.079   2.092  19.005  0.00  0.00    +0.000 C 
ATOM     16  C   UNL     1       3.358   1.496  18.192  0.00  0.00    +0.000 C 
BRANCH  14  17
ATOM     17  C   UNL     1       3.124   3.056  20.133  0.00  0.00    +0.000 C 
BRANCH  17  18
ATOM     18  C   UNL     1       2.117   3.480  21.179  0.00  0.00    +0.000 C 
ATOM     19  O   UNL     1       1.788   2.772  22.124  0.00  0.00    +0.000 OA
BRANCH  18  20
ATOM     20  O   UNL     1       1.605   4.709  20.983  0.00  0.00    +0.000 OA
ATOM     21  H   UNL     1       1.303   4.891  20.073  0.00  0.00    +0.000 HD
ENDBRANCH  18  20
ENDBRANCH  17  18
ENDBRANCH  14  17
ENDBRANCH  13  14
ENDBRANCH   2  13
TORSDOF 7
ENDMDL
MODEL 5
REMARK VINA RESULT:      -6.2      1.384      2.024
REMARK  Name = 
REMARK  10 active torsions:
REMARK  status: ('A' for Active; 'I' for Inactive)
REMARK    1  A    between atoms: C_1  and  O_2
REMARK    2  A    between atoms: O_2  and  C_3
REMARK    3  A    between atoms: C_6  and  N_7
REMARK    4  A    between atoms: C_8  and  C_10
REMARK    5  A    between atoms: C_10  and  C_11
REMARK    6  A    between atoms: C_11  and  C_12
REMARK    7  A    between atoms: C_11  and  C_13
REMARK    8  A    between atoms: C_11  and  C_14
REMARK    9  A    between atoms: C_14  and  C_15
REMARK   10  A    between atoms: C_15  and  O_17
REMARK                            x       y       z     vdW  Elec       q    Type
REMARK                         _______ _______ _______ _____ _____    ______ ____
ROOT
ATOM      1  N   UNL     1       5.049   4.472  18.116  0.00  0.00    +0.000 N 
ATOM      2  C   UNL     1       4.156   5.431  18.561  0.00  0.00    +0.000 C 
ATOM      3  O   UNL     1       3.787   6.407  17.908  0.00  0.00    +0.000 OA
ATOM      4  H   UNL     1       5.568   3.969  18.832  0.00  0.00    +0.000 HD
ENDROOT
BRANCH   1   8
ATOM      5  C   UNL     1       6.754   4.621  14.266  0.00  0.00    +0.000 A 
ATOM      6  C   UNL     1       5.424   4.226  14.448  0.00  0.00    +0.000 A 
ATOM      7  C   UNL     1       4.843   4.235  15.718  0.00  0.00    +0.000 A 
ATOM      8  C   UNL     1       5.618   4.556  16.831  0.00  0.00    +0.000 A 
ATOM      9  C   UNL     1       6.952   4.938  16.654  0.00  0.00    +0.000 A 
ATOM     10  C   UNL     1       7.514   4.987  15.375  0.00  0.00    +0.000 A 
BRANCH   5  12
ATOM     11  C   UNL     1       6.637   3.554  12.159  0.00  0.00    +0.000 C 
ATOM     12  O   UNL     1       7.209   4.566  12.978  0.00  0.00    +0.000 OA
ENDBRANCH   5  12
ENDBRANCH   1   8
BRANCH   2  13
ATOM     13  C   UNL     1       3.602   5.187  19.954  0.00  0.00    +0.000 C 
BRANCH  13  14
ATOM     14  C   UNL     1       2.401   4.205  19.967  0.00  0.00    +0.000 C 
ATOM     15  C   UNL     1       2.763   2.987  20.842  0.00  0.00    +0.000 C 
ATOM     16  C   UNL     1       1.178   4.895  20.613  0.00  0.00    +0.000 C 
BRANCH  14  17
ATOM     17  C   UNL     1       1.985   3.727  18.555  0.00  0.00    +0.000 C 
BRANCH  17  18
ATOM     18  C   UNL     1       2.256   2.264  18.286  0.00  0.00    +0.000 C 
ATOM     19  O   UNL     1       3.331   1.842  17.872  0.00  0.00    +0.000 OA
BRANCH  18  20
ATOM     20  O   UNL     1       1.211   1.454  18.538  0.00  0.00    +0.000 OA
ATOM     21  H   UNL     1       1.364   0.785  19.231  0.00  0.00    +0.000 HD
ENDBRANCH  18  20
ENDBRANCH  17  18
ENDBRANCH  14  17
ENDBRANCH  13  14
ENDBRANCH   2  13
TORSDOF 7
ENDMDL
MODEL 6
REMARK VINA RESULT:      -6.1      1.716      2.310
REMARK  Name = 
REMARK  10 active torsions:
REMARK  status: ('A' for Active; 'I' for Inactive)
REMARK    1  A    between atoms: C_1  and  O_2
REMARK    2  A    between atoms: O_2  and  C_3
REMARK    3  A    between atoms: C_6  and  N_7
REMARK    4  A    between atoms: C_8  and  C_10
REMARK    5  A    between atoms: C_10  and  C_11
REMARK    6  A    between atoms: C_11  and  C_12
REMARK    7  A    between atoms: C_11  and  C_13
REMARK    8  A    between atoms: C_11  and  C_14
REMARK    9  A    between atoms: C_14  and  C_15
REMARK   10  A    between atoms: C_15  and  O_17
REMARK                            x       y       z     vdW  Elec       q    Type
REMARK                         _______ _______ _______ _____ _____    ______ ____
ROOT
ATOM      1  N   UNL     1       4.826   4.024  18.971  0.00  0.00    +0.000 N 
ATOM      2  C   UNL     1       3.872   4.848  19.543  0.00  0.00    +0.000 C 
ATOM      3  O   UNL     1       3.486   5.915  19.066  0.00  0.00    +0.000 OA
ATOM      4  H   UNL     1       5.338   3.415  19.606  0.00  0.00    +0.000 HD
ENDROOT
BRANCH   1   8
ATOM      5  C   UNL     1       6.683   4.954  15.305  0.00  0.00    +0.000 A 
ATOM      6  C   UNL     1       5.422   4.347  15.339  0.00  0.00    +0.000 A 
ATOM      7  C   UNL     1       4.782   4.094  16.554  0.00  0.00    +0.000 A 
ATOM      8  C   UNL     1       5.440   4.368  17.752  0.00  0.00    +0.000 A 
ATOM      9  C   UNL     1       6.705   4.962  17.723  0.00  0.00    +0.000 A 
ATOM     10  C   UNL     1       7.318   5.270  16.504  0.00  0.00    +0.000 A 
BRANCH   5  12
ATOM     11  C   UNL     1       6.830   4.191  13.072  0.00  0.00    +0.000 C 
ATOM     12  O   UNL     1       7.206   5.146  14.057  0.00  0.00    +0.000 OA
ENDBRANCH   5  12
ENDBRANCH   1   8
BRANCH   2  13
ATOM     13  C   UNL     1       3.277   4.328  20.840  0.00  0.00    +0.000 C 
BRANCH  13  14
ATOM     14  C   UNL     1       2.066   3.383  20.616  0.00  0.00    +0.000 C 
ATOM     15  C   UNL     1       1.812   2.583  21.910  0.00  0.00    +0.000 C 
ATOM     16  C   UNL     1       0.801   4.227  20.334  0.00  0.00    +0.000 C 
BRANCH  14  17
ATOM     17  C   UNL     1       2.261   2.409  19.429  0.00  0.00    +0.000 C 
BRANCH  17  18
ATOM     18  C   UNL     1       1.300   2.624  18.281  0.00  0.00    +0.000 C 
ATOM     19  O   UNL     1       1.472   3.467  17.407  0.00  0.00    +0.000 OA
BRANCH  18  20
ATOM     20  O   UNL     1       0.230   1.808  18.297  0.00  0.00    +0.000 OA
ATOM     21  H   UNL     1      -0.628   2.249  18.151  0.00  0.00    +0.000 HD
ENDBRANCH  18  20
ENDBRANCH  17  18
ENDBRANCH  14  17
ENDBRANCH  13  14
ENDBRANCH   2  13
TORSDOF 7
ENDMDL
MODEL 7
REMARK VINA RESULT:      -6.1      0.891      1.450
REMARK  Name = 
REMARK  10 active torsions:
REMARK  status: ('A' for Active; 'I' for Inactive)
REMARK    1  A    between atoms: C_1  and  O_2
REMARK    2  A    between atoms: O_2  and  C_3
REMARK    3  A    between atoms: C_6  and  N_7
REMARK    4  A    between atoms: C_8  and  C_10
REMARK    5  A    between atoms: C_10  and  C_11
REMARK    6  A    between atoms: C_11  and  C_12
REMARK    7  A    between atoms: C_11  and  C_13
REMARK    8  A    between atoms: C_11  and  C_14
REMARK    9  A    between atoms: C_14  and  C_15
REMARK   10  A    between atoms: C_15  and  O_17
REMARK                            x       y       z     vdW  Elec       q    Type
REMARK                         _______ _______ _______ _____ _____    ______ ____
ROOT
ATOM      1  N   UNL     1       3.758   3.771  17.049  0.00  0.00    +0.000 N 
ATOM      2  C   UNL     1       2.923   4.710  17.631  0.00  0.00    +0.000 C 
ATOM      3  O   UNL     1       3.066   5.929  17.546  0.00  0.00    +0.000 OA
ATOM      4  H   UNL     1       3.789   2.856  17.492  0.00  0.00    +0.000 HD
ENDROOT
BRANCH   1   8
ATOM      5  C   UNL     1       7.071   5.064  14.790  0.00  0.00    +0.000 A 
ATOM      6  C   UNL     1       7.064   5.179  16.185  0.00  0.00    +0.000 A 
ATOM      7  C   UNL     1       5.990   4.695  16.936  0.00  0.00    +0.000 A 
ATOM      8  C   UNL     1       4.873   4.170  16.288  0.00  0.00    +0.000 A 
ATOM      9  C   UNL     1       4.872   4.067  14.894  0.00  0.00    +0.000 A 
ATOM     10  C   UNL     1       5.973   4.497  14.148  0.00  0.00    +0.000 A 
BRANCH   5  12
ATOM     11  C   UNL     1       8.167   5.526  12.746  0.00  0.00    +0.000 C 
ATOM     12  O   UNL     1       8.175   5.577  14.168  0.00  0.00    +0.000 OA
ENDBRANCH   5  12
ENDBRANCH   1   8
BRANCH   2  13
ATOM     13  C   UNL     1       1.744   4.127  18.392  0.00  0.00    +0.000 C 
BRANCH  13  14
ATOM     14  C   UNL     1       2.148   3.512  19.758  0.00  0.00    +0.000 C 
ATOM     15  C   UNL     1       2.990   4.542  20.539  0.00  0.00    +0.000 C 
ATOM     16  C   UNL     1       0.877   3.223  20.589  0.00  0.00    +0.000 C 
BRANCH  14  17
ATOM     17  C   UNL     1       2.939   2.187  19.624  0.00  0.00    +0.000 C 
BRANCH  17  18
ATOM     18  C   UNL     1       4.304   2.207  20.274  0.00  0.00    +0.000 C 
ATOM     19  O   UNL     1       4.510   1.829  21.423  0.00  0.00    +0.000 OA
BRANCH  18  20
ATOM     20  O   UNL     1       5.285   2.680  19.483  0.00  0.00    +0.000 OA
ATOM     21  H   UNL     1       5.219   2.419  18.544  0.00  0.00    +0.000 HD
ENDBRANCH  18  20
ENDBRANCH  17  18
ENDBRANCH  14  17
ENDBRANCH  13  14
ENDBRANCH   2  13
TORSDOF 7
ENDMDL
MODEL 8
REMARK VINA RESULT:      -6.0      1.386      2.627
REMARK  Name = 
REMARK  10 active torsions:
REMARK  status: ('A' for Active; 'I' for Inactive)
REMARK    1  A    between atoms: C_1  and  O_2
REMARK    2  A    between atoms: O_2  and  C_3
REMARK    3  A    between atoms: C_6  and  N_7
REMARK    4  A    between atoms: C_8  and  C_10
REMARK    5  A    between atoms: C_10  and  C_11
REMARK    6  A    between atoms: C_11  and  C_12
REMARK    7  A    between atoms: C_11  and  C_13
REMARK    8  A    between atoms: C_11  and  C_14
REMARK    9  A    between atoms: C_14  and  C_15
REMARK   10  A    between atoms: C_15  and  O_17
REMARK                            x       y       z     vdW  Elec       q    Type
REMARK                         _______ _______ _______ _____ _____    ______ ____
ROOT
ATOM      1  N   UNL     1       3.711   3.533  17.548  0.00  0.00    +0.000 N 
ATOM      2  C   UNL     1       3.935   2.920  18.768  0.00  0.00    +0.000 C 
ATOM      3  O   UNL     1       5.044   2.732  19.270  0.00  0.00    +0.000 OA
ATOM      4  H   UNL     1       2.850   3.285  17.068  0.00  0.00    +0.000 HD
ENDROOT
BRANCH   1   8
ATOM      5  C   UNL     1       6.862   5.006  15.170  0.00  0.00    +0.000 A 
ATOM      6  C   UNL     1       6.343   5.765  16.226  0.00  0.00    +0.000 A 
ATOM      7  C   UNL     1       5.340   5.250  17.050  0.00  0.00    +0.000 A 
ATOM      8  C   UNL     1       4.785   4.003  16.768  0.00  0.00    +0.000 A 
ATOM      9  C   UNL     1       5.292   3.248  15.706  0.00  0.00    +0.000 A 
ATOM     10  C   UNL     1       6.338   3.740  14.919  0.00  0.00    +0.000 A 
BRANCH   5  12
ATOM     11  C   UNL     1       7.883   5.278  13.053  0.00  0.00    +0.000 C 
ATOM     12  O   UNL     1       7.837   5.620  14.434  0.00  0.00    +0.000 OA
ENDBRANCH   5  12
ENDBRANCH   1   8
BRANCH   2  13
ATOM     13  C   UNL     1       2.678   2.496  19.508  0.00  0.00    +0.000 C 
BRANCH  13  14
ATOM     14  C   UNL     1       2.144   3.588  20.473  0.00  0.00    +0.000 C 
ATOM     15  C   UNL     1       0.699   3.945  20.070  0.00  0.00    +0.000 C 
ATOM     16  C   UNL     1       2.102   3.026  21.912  0.00  0.00    +0.000 C 
BRANCH  14  17
ATOM     17  C   UNL     1       3.013   4.869  20.489  0.00  0.00    +0.000 C 
BRANCH  17  18
ATOM     18  C   UNL     1       2.387   6.056  19.789  0.00  0.00    +0.000 C 
ATOM     19  O   UNL     1       2.356   6.180  18.570  0.00  0.00    +0.000 OA
BRANCH  18  20
ATOM     20  O   UNL     1       1.865   6.974  20.623  0.00  0.00    +0.000 OA
ATOM     21  H   UNL     1       2.447   7.241  21.360  0.00  0.00    +0.000 HD
ENDBRANCH  18  20
ENDBRANCH  17  18
ENDBRANCH  14  17
ENDBRANCH  13  14
ENDBRANCH   2  13
TORSDOF 7
ENDMDL
MODEL 9
REMARK VINA RESULT:      -6.0      1.275      1.331
REMARK  Name = 
REMARK  10 active torsions:
REMARK  status: ('A' for Active; 'I' for Inactive)
REMARK    1  A    between atoms: C_1  and  O_2
REMARK    2  A    between atoms: O_2  and  C_3
REMARK    3  A    between atoms: C_6  and  N_7
REMARK    4  A    between atoms: C_8  and  C_10
REMARK    5  A    between atoms: C_10  and  C_11
REMARK    6  A    between atoms: C_11  and  C_12
REMARK    7  A    between atoms: C_11  and  C_13
REMARK    8  A    between atoms: C_11  and  C_14
REMARK    9  A    between atoms: C_14  and  C_15
REMARK   10  A    between atoms: C_15  and  O_17
REMARK                            x       y       z     vdW  Elec       q    Type
REMARK                         _______ _______ _______ _____ _____    ______ ____
ROOT
ATOM      1  N   UNL     1       5.044   4.397  17.939  0.00  0.00    +0.000 N 
ATOM      2  C   UNL     1       4.340   5.475  18.448  0.00  0.00    +0.000 C 
ATOM      3  O   UNL     1       4.196   6.555  17.876  0.00  0.00    +0.000 OA
ATOM      4  H   UNL     1       5.426   3.744  18.619  0.00  0.00    +0.000 HD
ENDROOT
BRANCH   1   8
ATOM      5  C   UNL     1       6.899   4.722  14.170  0.00  0.00    +0.000 A 
ATOM      6  C   UNL     1       7.578   5.086  15.339  0.00  0.00    +0.000 A 
ATOM      7  C   UNL     1       6.983   4.921  16.592  0.00  0.00    +0.000 A 
ATOM      8  C   UNL     1       5.667   4.472  16.678  0.00  0.00    +0.000 A 
ATOM      9  C   UNL     1       4.981   4.120  15.512  0.00  0.00    +0.000 A 
ATOM     10  C   UNL     1       5.600   4.230  14.263  0.00  0.00    +0.000 A 
BRANCH   5  12
ATOM     11  C   UNL     1       7.181   4.145  11.893  0.00  0.00    +0.000 C 
ATOM     12  O   UNL     1       7.585   4.935  13.006  0.00  0.00    +0.000 OA
ENDBRANCH   5  12
ENDBRANCH   1   8
BRANCH   2  13
ATOM     13  C   UNL     1       3.697   5.232  19.803  0.00  0.00    +0.000 C 
BRANCH  13  14
ATOM     14  C   UNL     1       2.394   4.394  19.715  0.00  0.00    +0.000 C 
ATOM     15  C   UNL     1       1.350   4.996  20.677  0.00  0.00    +0.000 C 
ATOM     16  C   UNL     1       1.819   4.486  18.283  0.00  0.00    +0.000 C 
BRANCH  14  17
ATOM     17  C   UNL     1       2.606   2.896  20.046  0.00  0.00    +0.000 C 
BRANCH  17  18
ATOM     18  C   UNL     1       2.559   1.979  18.844  0.00  0.00    +0.000 C 
ATOM     19  O   UNL     1       3.530   1.750  18.132  0.00  0.00    +0.000 OA
BRANCH  18  20
ATOM     20  O   UNL     1       1.351   1.431  18.617  0.00  0.00    +0.000 OA
ATOM     21  H   UNL     1       1.066   1.431  17.684  0.00  0.00    +0.000 HD
ENDBRANCH  18  20
ENDBRANCH  17  18
ENDBRANCH  14  17
ENDBRANCH  13  14
ENDBRANCH   2  13
TORSDOF 7
ENDMDL
