MODEL 1
REMARK VINA RESULT:      -7.1      0.000      0.000
REMARK  Name = 
REMARK  9 active torsions:
REMARK  status: ('A' for Active; 'I' for Inactive)
REMARK    1  A    between atoms: C_1  and  O_2
REMARK    2  A    between atoms: O_2  and  C_3
REMARK    3  A    between atoms: C_6  and  C_7
REMARK    4  A    between atoms: C_7  and  O_9
REMARK    5  A    between atoms: O_9  and  C_10
REMARK    6  A    between atoms: C_10  and  C_11
REMARK    7  A    between atoms: C_15  and  O_16
REMARK    8  A    between atoms: C_19  and  O_20
REMARK    9  A    between atoms: O_20  and  C_21
REMARK                            x       y       z     vdW  Elec       q    Type
REMARK                         _______ _______ _______ _____ _____    ______ ____
ROOT
ATOM      1  C   UNL     1       2.896   3.256  17.721  0.00  0.00    +0.000 C 
ATOM      2  O   UNL     1       2.067   2.527  17.206  0.00  0.00    +0.000 OA
ENDROOT
BRANCH   1   6
ATOM      3  C   UNL     1       1.960   6.750  20.063  0.00  0.00    +0.000 A 
ATOM      4  C   UNL     1       2.136   6.842  18.684  0.00  0.00    +0.000 A 
ATOM      5  C   UNL     1       2.453   5.708  17.934  0.00  0.00    +0.000 A 
ATOM      6  C   UNL     1       2.594   4.458  18.558  0.00  0.00    +0.000 A 
ATOM      7  C   UNL     1       2.413   4.355  19.951  0.00  0.00    +0.000 A 
ATOM      8  C   UNL     1       2.106   5.510  20.690  0.00  0.00    +0.000 A 
BRANCH   3  10
ATOM      9  C   UNL     1       1.320   9.033  19.842  0.00  0.00    +0.000 C 
ATOM     10  O   UNL     1       1.642   7.929  20.680  0.00  0.00    +0.000 OA
ENDBRANCH   3  10
BRANCH   7  11
ATOM     11  O   UNL     1       2.571   3.118  20.523  0.00  0.00    +0.000 OA
ATOM     12  C   UNL     1       1.553   2.651  21.400  0.00  0.00    +0.000 C 
ENDBRANCH   7  11
ENDBRANCH   1   6
BRANCH   1  13
ATOM     13  O   UNL     1       4.242   3.114  17.615  0.00  0.00    +0.000 OA
BRANCH  13  14
ATOM     14  C   UNL     1       4.901   3.940  16.642  0.00  0.00    +0.000 C 
BRANCH  14  15
ATOM     15  C   UNL     1       5.885   4.835  17.346  0.00  0.00    +0.000 A 
ATOM     16  C   UNL     1       6.273   4.632  18.616  0.00  0.00    +0.000 A 
ATOM     17  C   UNL     1       7.230   5.564  19.233  0.00  0.00    +0.000 A 
ATOM     18  O   UNL     1       7.617   5.444  20.392  0.00  0.00    +0.000 OA
ATOM     19  C   UNL     1       7.720   6.683  18.389  0.00  0.00    +0.000 A 
ATOM     20  C   UNL     1       7.249   6.776  17.145  0.00  0.00    +0.000 A 
ATOM     21  O   UNL     1       6.343   5.905  16.583  0.00  0.00    +0.000 OA
BRANCH  19  22
ATOM     22  O   UNL     1       8.627   7.576  18.917  0.00  0.00    +0.000 OA
ATOM     23  H   UNL     1       9.466   7.394  18.445  0.00  0.00    +0.000 HD
ENDBRANCH  19  22
ENDBRANCH  14  15
ENDBRANCH  13  14
ENDBRANCH   1  13
TORSDOF 7
ENDMDL
MODEL 2
REMARK VINA RESULT:      -7.0      1.920      6.020
REMARK  Name = 
REMARK  9 active torsions:
REMARK  status: ('A' for Active; 'I' for Inactive)
REMARK    1  A    between atoms: C_1  and  O_2
REMARK    2  A    between atoms: O_2  and  C_3
REMARK    3  A    between atoms: C_6  and  C_7
REMARK    4  A    between atoms: C_7  and  O_9
REMARK    5  A    between atoms: O_9  and  C_10
REMARK    6  A    between atoms: C_10  and  C_11
REMARK    7  A    between atoms: C_15  and  O_16
REMARK    8  A    between atoms: C_19  and  O_20
REMARK    9  A    between atoms: O_20  and  C_21
REMARK                            x       y       z     vdW  Elec       q    Type
REMARK                         _______ _______ _______ _____ _____    ______ ____
ROOT
ATOM      1  C   UNL     1       4.071   3.754  18.386  0.00  0.00    +0.000 C 
ATOM      2  O   UNL     1       4.091   2.712  19.016  0.00  0.00    +0.000 OA
ENDROOT
BRANCH   1   6
ATOM      3  C   UNL     1       6.924   5.012  15.412  0.00  0.00    +0.000 A 
ATOM      4  C   UNL     1       5.689   4.485  15.037  0.00  0.00    +0.000 A 
ATOM      5  C   UNL     1       4.776   4.067  16.007  0.00  0.00    +0.000 A 
ATOM      6  C   UNL     1       5.086   4.175  17.373  0.00  0.00    +0.000 A 
ATOM      7  C   UNL     1       6.330   4.711  17.759  0.00  0.00    +0.000 A 
ATOM      8  C   UNL     1       7.241   5.115  16.768  0.00  0.00    +0.000 A 
BRANCH   3  10
ATOM      9  C   UNL     1       7.380   4.908  13.077  0.00  0.00    +0.000 C 
ATOM     10  O   UNL     1       7.723   5.394  14.369  0.00  0.00    +0.000 OA
ENDBRANCH   3  10
BRANCH   7  11
ATOM     11  O   UNL     1       6.598   4.789  19.102  0.00  0.00    +0.000 OA
ATOM     12  C   UNL     1       7.616   5.686  19.531  0.00  0.00    +0.000 C 
ENDBRANCH   7  11
ENDBRANCH   1   6
BRANCH   1  13
ATOM     13  O   UNL     1       3.129   4.726  18.504  0.00  0.00    +0.000 OA
BRANCH  13  14
ATOM     14  C   UNL     1       3.042   5.387  19.775  0.00  0.00    +0.000 C 
BRANCH  14  15
ATOM     15  C   UNL     1       2.443   6.753  19.578  0.00  0.00    +0.000 A 
ATOM     16  C   UNL     1       2.563   7.439  18.429  0.00  0.00    +0.000 A 
ATOM     17  C   UNL     1       1.957   8.776  18.324  0.00  0.00    +0.000 A 
ATOM     18  O   UNL     1       2.039   9.462  17.310  0.00  0.00    +0.000 OA
ATOM     19  C   UNL     1       1.230   9.282  19.517  0.00  0.00    +0.000 A 
ATOM     20  C   UNL     1       1.192   8.502  20.598  0.00  0.00    +0.000 A 
ATOM     21  O   UNL     1       1.774   7.259  20.688  0.00  0.00    +0.000 OA
BRANCH  19  22
ATOM     22  O   UNL     1       0.635  10.523  19.463  0.00  0.00    +0.000 OA
ATOM     23  H   UNL     1       0.755  10.823  18.537  0.00  0.00    +0.000 HD
ENDBRANCH  19  22
ENDBRANCH  14  15
ENDBRANCH  13  14
ENDBRANCH   1  13
TORSDOF 7
ENDMDL
MODEL 3
REMARK VINA RESULT:      -7.0      1.378      1.967
REMARK  Name = 
REMARK  9 active torsions:
REMARK  status: ('A' for Active; 'I' for Inactive)
REMARK    1  A    between atoms: C_1  and  O_2
REMARK    2  A    between atoms: O_2  and  C_3
REMARK    3  A    between atoms: C_6  and  C_7
REMARK    4  A    between atoms: C_7  and  O_9
REMARK    5  A    between atoms: O_9  and  C_10
REMARK    6  A    between atoms: C_10  and  C_11
REMARK    7  A    between atoms: C_15  and  O_16
REMARK    8  A    between atoms: C_19  and  O_20
REMARK    9  A    between atoms: O_20  and  C_21
REMARK                            x       y       z     vdW  Elec       q    Type
REMARK                         _______ _______ _______ _____ _____    ______ ____
ROOT
ATOM      1  C   UNL     1       2.261   3.848  18.180  0.00  0.00    +0.000 C 
ATOM      2  O   UNL     1       1.450   3.379  17.401  0.00  0.00    +0.000 OA
ENDROOT
BRANCH   1   6
ATOM      3  C   UNL     1       1.733   7.551  20.318  0.00  0.00    +0.000 A 
ATOM      4  C   UNL     1       2.263   7.542  19.029  0.00  0.00    +0.000 A 
ATOM      5  C   UNL     1       2.444   6.336  18.348  0.00  0.00    +0.000 A 
ATOM      6  C   UNL     1       2.090   5.117  18.950  0.00  0.00    +0.000 A 
ATOM      7  C   UNL     1       1.549   5.119  20.250  0.00  0.00    +0.000 A 
ATOM      8  C   UNL     1       1.386   6.342  20.924  0.00  0.00    +0.000 A 
BRANCH   3  10
ATOM      9  C   UNL     1       0.793   9.734  20.165  0.00  0.00    +0.000 C 
ATOM     10  O   UNL     1       1.595   8.795  20.871  0.00  0.00    +0.000 OA
ENDBRANCH   3  10
BRANCH   7  11
ATOM     11  O   UNL     1       1.227   3.907  20.806  0.00  0.00    +0.000 OA
ATOM     12  C   UNL     1       2.115   3.355  21.772  0.00  0.00    +0.000 C 
ENDBRANCH   7  11
ENDBRANCH   1   6
BRANCH   1  13
ATOM     13  O   UNL     1       3.470   3.306  18.475  0.00  0.00    +0.000 OA
BRANCH  13  14
ATOM     14  C   UNL     1       4.293   2.922  17.363  0.00  0.00    +0.000 C 
BRANCH  14  15
ATOM     15  C   UNL     1       5.276   4.024  17.076  0.00  0.00    +0.000 A 
ATOM     16  C   UNL     1       5.918   4.137  15.901  0.00  0.00    +0.000 A 
ATOM     17  C   UNL     1       6.874   5.238  15.707  0.00  0.00    +0.000 A 
ATOM     18  O   UNL     1       7.503   5.394  14.665  0.00  0.00    +0.000 OA
ATOM     19  C   UNL     1       7.061   6.176  16.845  0.00  0.00    +0.000 A 
ATOM     20  C   UNL     1       6.368   5.945  17.960  0.00  0.00    +0.000 A 
ATOM     21  O   UNL     1       5.486   4.904  18.134  0.00  0.00    +0.000 OA
BRANCH  19  22
ATOM     22  O   UNL     1       7.937   7.231  16.708  0.00  0.00    +0.000 OA
ATOM     23  H   UNL     1       8.141   7.269  15.750  0.00  0.00    +0.000 HD
ENDBRANCH  19  22
ENDBRANCH  14  15
ENDBRANCH  13  14
ENDBRANCH   1  13
TORSDOF 7
ENDMDL
MODEL 4
REMARK VINA RESULT:      -7.0      1.468      2.122
REMARK  Name = 
REMARK  9 active torsions:
REMARK  status: ('A' for Active; 'I' for Inactive)
REMARK    1  A    between atoms: C_1  and  O_2
REMARK    2  A    between atoms: O_2  and  C_3
REMARK    3  A    between atoms: C_6  and  C_7
REMARK    4  A    between atoms: C_7  and  O_9
REMARK    5  A    between atoms: O_9  and  C_10
REMARK    6  A    between atoms: C_10  and  C_11
REMARK    7  A    between atoms: C_15  and  O_16
REMARK    8  A    between atoms: C_19  and  O_20
REMARK    9  A    between atoms: O_20  and  C_21
REMARK                            x       y       z     vdW  Elec       q    Type
REMARK                         _______ _______ _______ _____ _____    ______ ____
ROOT
ATOM      1  C   UNL     1       2.528   3.785  17.898  0.00  0.00    +0.000 C 
ATOM      2  O   UNL     1       1.901   3.512  16.890  0.00  0.00    +0.000 OA
ENDROOT
BRANCH   1   6
ATOM      3  C   UNL     1       1.760   7.221  20.381  0.00  0.00    +0.000 A 
ATOM      4  C   UNL     1       2.328   7.368  19.117  0.00  0.00    +0.000 A 
ATOM      5  C   UNL     1       2.586   6.249  18.324  0.00  0.00    +0.000 A 
ATOM      6  C   UNL     1       2.275   4.960  18.786  0.00  0.00    +0.000 A 
ATOM      7  C   UNL     1       1.696   4.804  20.061  0.00  0.00    +0.000 A 
ATOM      8  C   UNL     1       1.455   5.942  20.849  0.00  0.00    +0.000 A 
BRANCH   3  10
ATOM      9  C   UNL     1       0.665   9.335  20.451  0.00  0.00    +0.000 C 
ATOM     10  O   UNL     1       1.547   8.395  21.052  0.00  0.00    +0.000 OA
ENDBRANCH   3  10
BRANCH   7  11
ATOM     11  O   UNL     1       1.417   3.527  20.480  0.00  0.00    +0.000 OA
ATOM     12  C   UNL     1       2.024   3.069  21.683  0.00  0.00    +0.000 C 
ENDBRANCH   7  11
ENDBRANCH   1   6
BRANCH   1  13
ATOM     13  O   UNL     1       3.580   3.077  18.384  0.00  0.00    +0.000 OA
BRANCH  13  14
ATOM     14  C   UNL     1       4.693   3.837  18.879  0.00  0.00    +0.000 C 
BRANCH  14  15
ATOM     15  C   UNL     1       5.507   4.330  17.714  0.00  0.00    +0.000 A 
ATOM     16  C   UNL     1       6.252   5.447  17.768  0.00  0.00    +0.000 A 
ATOM     17  C   UNL     1       7.008   5.866  16.577  0.00  0.00    +0.000 A 
ATOM     18  O   UNL     1       7.697   6.881  16.554  0.00  0.00    +0.000 OA
ATOM     19  C   UNL     1       6.902   5.001  15.374  0.00  0.00    +0.000 A 
ATOM     20  C   UNL     1       6.121   3.923  15.450  0.00  0.00    +0.000 A 
ATOM     21  O   UNL     1       5.408   3.549  16.566  0.00  0.00    +0.000 OA
BRANCH  19  22
ATOM     22  O   UNL     1       7.601   5.345  14.237  0.00  0.00    +0.000 OA
ATOM     23  H   UNL     1       8.519   5.040  14.402  0.00  0.00    +0.000 HD
ENDBRANCH  19  22
ENDBRANCH  14  15
ENDBRANCH  13  14
ENDBRANCH   1  13
TORSDOF 7
ENDMDL
MODEL 5
REMARK VINA RESULT:      -6.8      2.102      6.577
REMARK  Name = 
REMARK  9 active torsions:
REMARK  status: ('A' for Active; 'I' for Inactive)
REMARK    1  A    between atoms: C_1  and  O_2
REMARK    2  A    between atoms: O_2  and  C_3
REMARK    3  A    between atoms: C_6  and  C_7
REMARK    4  A    between atoms: C_7  and  O_9
REMARK    5  A    between atoms: O_9  and  C_10
REMARK    6  A    between atoms: C_10  and  C_11
REMARK    7  A    between atoms: C_15  and  O_16
REMARK    8  A    between atoms: C_19  and  O_20
REMARK    9  A    between atoms: O_20  and  C_21
REMARK                            x       y       z     vdW  Elec       q    Type
REMARK                         _______ _______ _______ _____ _____    ______ ____
ROOT
ATOM      1  C   UNL     1       5.143   5.710  18.484  0.00  0.00    +0.000 C 
ATOM      2  O   UNL     1       5.590   5.362  19.562  0.00  0.00    +0.000 OA
ENDROOT
BRANCH   1   6
ATOM      3  C   UNL     1       6.554   4.495  14.598  0.00  0.00    +0.000 A 
ATOM      4  C   UNL     1       5.281   4.136  15.039  0.00  0.00    +0.000 A 
ATOM      5  C   UNL     1       4.837   4.522  16.305  0.00  0.00    +0.000 A 
ATOM      6  C   UNL     1       5.663   5.280  17.150  0.00  0.00    +0.000 A 
ATOM      7  C   UNL     1       6.949   5.651  16.710  0.00  0.00    +0.000 A 
ATOM      8  C   UNL     1       7.382   5.244  15.437  0.00  0.00    +0.000 A 
BRANCH   3  10
ATOM      9  C   UNL     1       5.839   3.405  12.605  0.00  0.00    +0.000 C 
ATOM     10  O   UNL     1       6.865   4.066  13.337  0.00  0.00    +0.000 OA
ENDBRANCH   3  10
BRANCH   7  11
ATOM     11  O   UNL     1       7.728   6.383  17.570  0.00  0.00    +0.000 OA
ATOM     12  C   UNL     1       7.684   7.801  17.473  0.00  0.00    +0.000 C 
ENDBRANCH   7  11
ENDBRANCH   1   6
BRANCH   1  13
ATOM     13  O   UNL     1       4.102   6.562  18.303  0.00  0.00    +0.000 OA
BRANCH  13  14
ATOM     14  C   UNL     1       3.094   6.573  19.327  0.00  0.00    +0.000 C 
BRANCH  14  15
ATOM     15  C   UNL     1       2.360   5.260  19.306  0.00  0.00    +0.000 A 
ATOM     16  C   UNL     1       2.098   4.557  20.421  0.00  0.00    +0.000 A 
ATOM     17  C   UNL     1       1.385   3.275  20.310  0.00  0.00    +0.000 A 
ATOM     18  O   UNL     1       1.124   2.576  21.285  0.00  0.00    +0.000 OA
ATOM     19  C   UNL     1       0.987   2.841  18.946  0.00  0.00    +0.000 A 
ATOM     20  C   UNL     1       1.315   3.629  17.923  0.00  0.00    +0.000 A 
ATOM     21  O   UNL     1       1.994   4.821  18.037  0.00  0.00    +0.000 OA
BRANCH  19  22
ATOM     22  O   UNL     1       0.306   1.653  18.792  0.00  0.00    +0.000 OA
ATOM     23  H   UNL     1      -0.489   1.881  18.266  0.00  0.00    +0.000 HD
ENDBRANCH  19  22
ENDBRANCH  14  15
ENDBRANCH  13  14
ENDBRANCH   1  13
TORSDOF 7
ENDMDL
MODEL 6
REMARK VINA RESULT:      -6.8      1.021      1.560
REMARK  Name = 
REMARK  9 active torsions:
REMARK  status: ('A' for Active; 'I' for Inactive)
REMARK    1  A    between atoms: C_1  and  O_2
REMARK    2  A    between atoms: O_2  and  C_3
REMARK    3  A    between atoms: C_6  and  C_7
REMARK    4  A    between atoms: C_7  and  O_9
REMARK    5  A    between atoms: O_9  and  C_10
REMARK    6  A    between atoms: C_10  and  C_11
REMARK    7  A    between atoms: C_15  and  O_16
REMARK    8  A    between atoms: C_19  and  O_20
REMARK    9  A    between atoms: O_20  and  C_21
REMARK                            x       y       z     vdW  Elec       q    Type
REMARK                         _______ _______ _______ _____ _____    ______ ____
ROOT
ATOM      1  C   UNL     1       2.867   3.868  17.400  0.00  0.00    +0.000 C 
ATOM      2  O   UNL     1       2.226   2.832  17.368  0.00  0.00    +0.000 OA
ENDROOT
BRANCH   1   6
ATOM      3  C   UNL     1       1.991   7.279  19.882  0.00  0.00    +0.000 A 
ATOM      4  C   UNL     1       2.322   7.442  18.538  0.00  0.00    +0.000 A 
ATOM      5  C   UNL     1       2.618   6.332  17.744  0.00  0.00    +0.000 A 
ATOM      6  C   UNL     1       2.582   5.037  18.286  0.00  0.00    +0.000 A 
ATOM      7  C   UNL     1       2.243   4.864  19.642  0.00  0.00    +0.000 A 
ATOM      8  C   UNL     1       1.960   5.994  20.428  0.00  0.00    +0.000 A 
BRANCH   3  10
ATOM      9  C   UNL     1       1.007   8.332  21.778  0.00  0.00    +0.000 C 
ATOM     10  O   UNL     1       1.712   8.442  20.547  0.00  0.00    +0.000 OA
ENDBRANCH   3  10
BRANCH   7  11
ATOM     11  O   UNL     1       2.229   3.584  20.136  0.00  0.00    +0.000 OA
ATOM     12  C   UNL     1       1.302   3.274  21.169  0.00  0.00    +0.000 C 
ENDBRANCH   7  11
ENDBRANCH   1   6
BRANCH   1  13
ATOM     13  O   UNL     1       3.945   4.148  16.624  0.00  0.00    +0.000 OA
BRANCH  13  14
ATOM     14  C   UNL     1       5.202   3.596  17.045  0.00  0.00    +0.000 C 
BRANCH  14  15
ATOM     15  C   UNL     1       6.096   4.712  17.512  0.00  0.00    +0.000 A 
ATOM     16  C   UNL     1       6.207   5.878  16.854  0.00  0.00    +0.000 A 
ATOM     17  C   UNL     1       7.116   6.912  17.373  0.00  0.00    +0.000 A 
ATOM     18  O   UNL     1       7.274   7.995  16.816  0.00  0.00    +0.000 OA
ATOM     19  C   UNL     1       7.856   6.594  18.621  0.00  0.00    +0.000 A 
ATOM     20  C   UNL     1       7.661   5.396  19.171  0.00  0.00    +0.000 A 
ATOM     21  O   UNL     1       6.818   4.430  18.668  0.00  0.00    +0.000 OA
BRANCH  19  22
ATOM     22  O   UNL     1       8.710   7.536  19.153  0.00  0.00    +0.000 OA
ATOM     23  H   UNL     1       9.524   7.477  18.610  0.00  0.00    +0.000 HD
ENDBRANCH  19  22
ENDBRANCH  14  15
ENDBRANCH  13  14
ENDBRANCH   1  13
TORSDOF 7
ENDMDL
MODEL 7
REMARK VINA RESULT:      -6.7      2.184      6.637
REMARK  Name = 
REMARK  9 active torsions:
REMARK  status: ('A' for Active; 'I' for Inactive)
REMARK    1  A    between atoms: C_1  and  O_2
REMARK    2  A    between atoms: O_2  and  C_3
REMARK    3  A    between atoms: C_6  and  C_7
REMARK    4  A    between atoms: C_7  and  O_9
REMARK    5  A    between atoms: O_9  and  C_10
REMARK    6  A    between atoms: C_10  and  C_11
REMARK    7  A    between atoms: C_15  and  O_16
REMARK    8  A    between atoms: C_19  and  O_20
REMARK    9  A    between atoms: O_20  and  C_21
REMARK                            x       y       z     vdW  Elec       q    Type
REMARK                         _______ _______ _______ _____ _____    ______ ____
ROOT
ATOM      1  C   UNL     1       5.421   4.877  18.409  0.00  0.00    +0.000 C 
ATOM      2  O   UNL     1       5.667   4.104  19.318  0.00  0.00    +0.000 OA
ENDROOT
BRANCH   1   6
ATOM      3  C   UNL     1       6.571   4.413  14.283  0.00  0.00    +0.000 A 
ATOM      4  C   UNL     1       5.418   3.803  14.774  0.00  0.00    +0.000 A 
ATOM      5  C   UNL     1       5.060   3.947  16.116  0.00  0.00    +0.000 A 
ATOM      6  C   UNL     1       5.852   4.711  16.988  0.00  0.00    +0.000 A 
ATOM      7  C   UNL     1       7.016   5.335  16.497  0.00  0.00    +0.000 A 
ATOM      8  C   UNL     1       7.366   5.169  15.146  0.00  0.00    +0.000 A 
BRANCH   3  10
ATOM      9  C   UNL     1       7.614   5.161  12.277  0.00  0.00    +0.000 C 
ATOM     10  O   UNL     1       6.804   4.205  12.951  0.00  0.00    +0.000 OA
ENDBRANCH   3  10
BRANCH   7  11
ATOM     11  O   UNL     1       7.768   6.064  17.383  0.00  0.00    +0.000 OA
ATOM     12  C   UNL     1       7.598   7.476  17.405  0.00  0.00    +0.000 C 
ENDBRANCH   7  11
ENDBRANCH   1   6
BRANCH   1  13
ATOM     13  O   UNL     1       4.722   6.035  18.531  0.00  0.00    +0.000 OA
BRANCH  13  14
ATOM     14  C   UNL     1       3.351   6.007  18.106  0.00  0.00    +0.000 C 
BRANCH  14  15
ATOM     15  C   UNL     1       2.595   5.022  18.957  0.00  0.00    +0.000 A 
ATOM     16  C   UNL     1       1.797   4.075  18.436  0.00  0.00    +0.000 A 
ATOM     17  C   UNL     1       1.083   3.160  19.340  0.00  0.00    +0.000 A 
ATOM     18  O   UNL     1       0.329   2.281  18.933  0.00  0.00    +0.000 OA
ATOM     19  C   UNL     1       1.306   3.342  20.797  0.00  0.00    +0.000 A 
ATOM     20  C   UNL     1       2.118   4.327  21.183  0.00  0.00    +0.000 A 
ATOM     21  O   UNL     1       2.770   5.186  20.328  0.00  0.00    +0.000 OA
BRANCH  19  22
ATOM     22  O   UNL     1       0.670   2.501  21.684  0.00  0.00    +0.000 OA
ATOM     23  H   UNL     1      -0.253   2.830  21.728  0.00  0.00    +0.000 HD
ENDBRANCH  19  22
ENDBRANCH  14  15
ENDBRANCH  13  14
ENDBRANCH   1  13
TORSDOF 7
ENDMDL
MODEL 8
REMARK VINA RESULT:      -6.7      1.168      1.338
REMARK  Name = 
REMARK  9 active torsions:
REMARK  status: ('A' for Active; 'I' for Inactive)
REMARK    1  A    between atoms: C_1  and  O_2
REMARK    2  A    between atoms: O_2  and  C_3
REMARK    3  A    between atoms: C_6  and  C_7
REMARK    4  A    between atoms: C_7  and  O_9
REMARK    5  A    between atoms: O_9  and  C_10
REMARK    6  A    between atoms: C_10  and  C_11
REMARK    7  A    between atoms: C_15  and  O_16
REMARK    8  A    between atoms: C_19  and  O_20
REMARK    9  A    between atoms: O_20  and  C_21
REMARK                            x       y       z     vdW  Elec       q    Type
REMARK                         _______ _______ _______ _____ _____    ______ ____
ROOT
ATOM      1  C   UNL     1       1.759   3.465  18.012  0.00  0.00    +0.000 C 
ATOM      2  O   UNL     1       0.908   2.607  18.168  0.00  0.00    +0.000 OA
ENDROOT
BRANCH   1   6
ATOM      3  C   UNL     1       1.911   7.250  20.067  0.00  0.00    +0.000 A 
ATOM      4  C   UNL     1       2.209   7.164  18.708  0.00  0.00    +0.000 A 
ATOM      5  C   UNL     1       2.171   5.932  18.053  0.00  0.00    +0.000 A 
ATOM      6  C   UNL     1       1.828   4.763  18.751  0.00  0.00    +0.000 A 
ATOM      7  C   UNL     1       1.520   4.842  20.123  0.00  0.00    +0.000 A 
ATOM      8  C   UNL     1       1.575   6.090  20.768  0.00  0.00    +0.000 A 
BRANCH   3  10
ATOM      9  C   UNL     1       1.243   8.759  21.783  0.00  0.00    +0.000 C 
ATOM     10  O   UNL     1       1.973   8.514  20.587  0.00  0.00    +0.000 OA
ENDBRANCH   3  10
BRANCH   7  11
ATOM     11  O   UNL     1       1.200   3.676  20.771  0.00  0.00    +0.000 OA
ATOM     12  C   UNL     1       2.154   3.127  21.673  0.00  0.00    +0.000 C 
ENDBRANCH   7  11
ENDBRANCH   1   6
BRANCH   1  13
ATOM     13  O   UNL     1       2.787   3.401  17.127  0.00  0.00    +0.000 OA
BRANCH  13  14
ATOM     14  C   UNL     1       4.046   2.935  17.637  0.00  0.00    +0.000 C 
BRANCH  14  15
ATOM     15  C   UNL     1       5.064   4.036  17.508  0.00  0.00    +0.000 A 
ATOM     16  C   UNL     1       5.812   4.458  18.542  0.00  0.00    +0.000 A 
ATOM     17  C   UNL     1       6.776   5.549  18.333  0.00  0.00    +0.000 A 
ATOM     18  O   UNL     1       7.481   5.992  19.235  0.00  0.00    +0.000 OA
ATOM     19  C   UNL     1       6.867   6.115  16.962  0.00  0.00    +0.000 A 
ATOM     20  C   UNL     1       6.061   5.610  16.027  0.00  0.00    +0.000 A 
ATOM     21  O   UNL     1       5.153   4.597  16.238  0.00  0.00    +0.000 OA
BRANCH  19  22
ATOM     22  O   UNL     1       7.764   7.131  16.713  0.00  0.00    +0.000 OA
ATOM     23  H   UNL     1       7.265   7.786  16.181  0.00  0.00    +0.000 HD
ENDBRANCH  19  22
ENDBRANCH  14  15
ENDBRANCH  13  14
ENDBRANCH   1  13
TORSDOF 7
ENDMDL
MODEL 9
REMARK VINA RESULT:      -6.6      2.152      6.510
REMARK  Name = 
REMARK  9 active torsions:
REMARK  status: ('A' for Active; 'I' for Inactive)
REMARK    1  A    between atoms: C_1  and  O_2
REMARK    2  A    between atoms: O_2  and  C_3
REMARK    3  A    between atoms: C_6  and  C_7
REMARK    4  A    between atoms: C_7  and  O_9
REMARK    5  A    between atoms: O_9  and  C_10
REMARK    6  A    between atoms: C_10  and  C_11
REMARK    7  A    between atoms: C_15  and  O_16
REMARK    8  A    between atoms: C_19  and  O_20
REMARK    9  A    between atoms: O_20  and  C_21
REMARK                            x       y       z     vdW  Elec       q    Type
REMARK                         _______ _______ _______ _____ _____    ______ ____
ROOT
ATOM      1  C   UNL     1       4.976   4.600  18.564  0.00  0.00    +0.000 C 
ATOM      2  O   UNL     1       5.120   3.769  19.443  0.00  0.00    +0.000 OA
ENDROOT
BRANCH   1   6
ATOM      3  C   UNL     1       6.651   4.457  14.596  0.00  0.00    +0.000 A 
ATOM      4  C   UNL     1       5.319   4.114  14.820  0.00  0.00    +0.000 A 
ATOM      5  C   UNL     1       4.788   4.150  16.111  0.00  0.00    +0.000 A 
ATOM      6  C   UNL     1       5.586   4.535  17.201  0.00  0.00    +0.000 A 
ATOM      7  C   UNL     1       6.932   4.887  16.981  0.00  0.00    +0.000 A 
ATOM      8  C   UNL     1       7.451   4.834  15.677  0.00  0.00    +0.000 A 
BRANCH   3  10
ATOM      9  C   UNL     1       6.280   3.567  12.419  0.00  0.00    +0.000 C 
ATOM     10  O   UNL     1       7.046   4.392  13.288  0.00  0.00    +0.000 OA
ENDBRANCH   3  10
BRANCH   7  11
ATOM     11  O   UNL     1       7.680   5.247  18.073  0.00  0.00    +0.000 OA
ATOM     12  C   UNL     1       7.847   6.634  18.344  0.00  0.00    +0.000 C 
ENDBRANCH   7  11
ENDBRANCH   1   6
BRANCH   1  13
ATOM     13  O   UNL     1       4.247   5.740  18.672  0.00  0.00    +0.000 OA
BRANCH  13  14
ATOM     14  C   UNL     1       3.203   5.745  19.658  0.00  0.00    +0.000 C 
BRANCH  14  15
ATOM     15  C   UNL     1       2.442   7.039  19.559  0.00  0.00    +0.000 A 
ATOM     16  C   UNL     1       2.482   7.824  18.469  0.00  0.00    +0.000 A 
ATOM     17  C   UNL     1       1.717   9.081  18.460  0.00  0.00    +0.000 A 
ATOM     18  O   UNL     1       1.718   9.850  17.503  0.00  0.00    +0.000 OA
ATOM     19  C   UNL     1       0.927   9.398  19.678  0.00  0.00    +0.000 A 
ATOM     20  C   UNL     1       0.981   8.537  20.694  0.00  0.00    +0.000 A 
ATOM     21  O   UNL     1       1.711   7.370  20.696  0.00  0.00    +0.000 OA
BRANCH  19  22
ATOM     22  O   UNL     1       0.184  10.557  19.713  0.00  0.00    +0.000 OA
ATOM     23  H   UNL     1      -0.747  10.265  19.620  0.00  0.00    +0.000 HD
ENDBRANCH  19  22
ENDBRANCH  14  15
ENDBRANCH  13  14
ENDBRANCH   1  13
TORSDOF 7
ENDMDL
