MODEL 1
REMARK VINA RESULT:      -6.9      0.000      0.000
REMARK  Name = 
REMARK  10 active torsions:
REMARK  status: ('A' for Active; 'I' for Inactive)
REMARK    1  A    between atoms: C_1  and  N_2
REMARK    2  A    between atoms: N_2  and  C_3
REMARK    3  A    between atoms: N_2  and  C_4
REMARK    4  A    between atoms: C_7  and  C_8
REMARK    5  A    between atoms: C_8  and  C_9
REMARK    6  A    between atoms: C_11  and  C_12
REMARK    7  A    between atoms: C_12  and  C_13
REMARK    8  A    between atoms: C_12  and  C_14
REMARK    9  A    between atoms: C_12  and  C_15
REMARK   10  A    between atoms: C_18  and  O_19
REMARK                            x       y       z     vdW  Elec       q    Type
REMARK                         _______ _______ _______ _____ _____    ______ ____
ROOT
ATOM      1  C   UNL     1      -0.613  11.230  19.556  0.00  0.00    +0.000 C 
ATOM      2  C   UNL     1      -0.372  12.376  18.491  0.00  0.00    +0.000 C 
ATOM      3  O   UNL     1       0.659  12.750  17.964  0.00  0.00    +0.000 OA
ATOM      4  N   UNL     1      -1.648  12.960  18.251  0.00  0.00    +0.000 N 
ATOM      5  C   UNL     1      -2.572  11.888  18.362  0.00  0.00    +0.000 A 
ATOM      6  C   UNL     1      -3.678  11.887  17.524  0.00  0.00    +0.000 A 
ATOM      7  C   UNL     1      -3.949  10.702  16.859  0.00  0.00    +0.000 A 
ATOM      8  C   UNL     1      -3.144   9.574  17.100  0.00  0.00    +0.000 A 
ATOM      9  C   UNL     1      -2.135   9.574  18.097  0.00  0.00    +0.000 A 
ATOM     10  C   UNL     1      -1.881  10.744  18.809  0.00  0.00    +0.000 A 
ATOM     11  H   UNL     1      -1.874  13.672  18.940  0.00  0.00    +0.000 HD
ENDROOT
BRANCH   1  15
ATOM     12  C   UNL     1       1.832   7.618  20.086  0.00  0.00    +0.000 A 
ATOM     13  C   UNL     1       2.057   8.504  19.019  0.00  0.00    +0.000 A 
ATOM     14  C   UNL     1       1.421   9.776  18.932  0.00  0.00    +0.000 A 
ATOM     15  C   UNL     1       0.529  10.234  19.927  0.00  0.00    +0.000 A 
ATOM     16  C   UNL     1       0.437   9.420  21.064  0.00  0.00    +0.000 A 
ATOM     17  C   UNL     1       1.055   8.149  21.125  0.00  0.00    +0.000 A 
BRANCH  12  19
ATOM     18  C   UNL     1       3.442   5.877  19.304  0.00  0.00    +0.000 C 
ATOM     19  N   UNL     1       2.307   6.307  20.116  0.00  0.00    +0.000 N 
ATOM     20  C   UNL     1       1.516   5.245  20.742  0.00  0.00    +0.000 C 
ENDBRANCH  12  19
ENDBRANCH   1  15
BRANCH   1  21
ATOM     21  C   UNL     1      -0.774  12.101  20.874  0.00  0.00    +0.000 A 
ATOM     22  C   UNL     1      -2.092  12.182  21.439  0.00  0.00    +0.000 A 
ATOM     23  C   UNL     1      -2.432  13.002  22.515  0.00  0.00    +0.000 A 
ATOM     24  C   UNL     1      -1.392  13.768  23.056  0.00  0.00    +0.000 A 
ATOM     25  C   UNL     1      -0.086  13.693  22.545  0.00  0.00    +0.000 A 
ATOM     26  C   UNL     1       0.221  12.870  21.457  0.00  0.00    +0.000 A 
BRANCH  23  27
ATOM     27  C   UNL     1      -3.876  13.106  23.055  0.00  0.00    +0.000 C 
ATOM     28  C   UNL     1      -4.294  14.531  23.499  0.00  0.00    +0.000 C 
ATOM     29  C   UNL     1      -4.885  12.662  21.974  0.00  0.00    +0.000 C 
ATOM     30  C   UNL     1      -4.032  12.191  24.287  0.00  0.00    +0.000 C 
ENDBRANCH  23  27
BRANCH  26  31
ATOM     31  O   UNL     1       1.486  12.840  20.958  0.00  0.00    +0.000 OA
ATOM     32  H   UNL     1       2.116  12.813  21.697  0.00  0.00    +0.000 HD
ENDBRANCH  26  31
ENDBRANCH   1  21
TORSDOF 5
ENDMDL
MODEL 2
REMARK VINA RESULT:      -6.5      1.909      3.802
REMARK  Name = 
REMARK  10 active torsions:
REMARK  status: ('A' for Active; 'I' for Inactive)
REMARK    1  A    between atoms: C_1  and  N_2
REMARK    2  A    between atoms: N_2  and  C_3
REMARK    3  A    between atoms: N_2  and  C_4
REMARK    4  A    between atoms: C_7  and  C_8
REMARK    5  A    between atoms: C_8  and  C_9
REMARK    6  A    between atoms: C_11  and  C_12
REMARK    7  A    between atoms: C_12  and  C_13
REMARK    8  A    between atoms: C_12  and  C_14
REMARK    9  A    between atoms: C_12  and  C_15
REMARK   10  A    between atoms: C_18  and  O_19
REMARK                            x       y       z     vdW  Elec       q    Type
REMARK                         _______ _______ _______ _____ _____    ______ ____
ROOT
ATOM      1  C   UNL     1       0.305  11.824  19.368  0.00  0.00    +0.000 C 
ATOM      2  C   UNL     1       0.539  12.533  20.763  0.00  0.00    +0.000 C 
ATOM      3  O   UNL     1       0.722  12.051  21.865  0.00  0.00    +0.000 OA
ATOM      4  N   UNL     1       0.469  13.932  20.507  0.00  0.00    +0.000 N 
ATOM      5  C   UNL     1       1.015  14.097  19.207  0.00  0.00    +0.000 A 
ATOM      6  C   UNL     1       1.759  15.239  18.949  0.00  0.00    +0.000 A 
ATOM      7  C   UNL     1       2.983  15.052  18.326  0.00  0.00    +0.000 A 
ATOM      8  C   UNL     1       3.375  13.756  17.948  0.00  0.00    +0.000 A 
ATOM      9  C   UNL     1       2.504  12.644  18.073  0.00  0.00    +0.000 A 
ATOM     10  C   UNL     1       1.251  12.823  18.654  0.00  0.00    +0.000 A 
ATOM     11  H   UNL     1      -0.489  14.270  20.515  0.00  0.00    +0.000 HD
ENDROOT
BRANCH   1  15
ATOM     12  C   UNL     1       2.025   7.785  19.185  0.00  0.00    +0.000 A 
ATOM     13  C   UNL     1       1.367   8.249  20.336  0.00  0.00    +0.000 A 
ATOM     14  C   UNL     1       0.630   9.467  20.359  0.00  0.00    +0.000 A 
ATOM     15  C   UNL     1       0.502  10.285  19.214  0.00  0.00    +0.000 A 
ATOM     16  C   UNL     1       1.019   9.736  18.032  0.00  0.00    +0.000 A 
ATOM     17  C   UNL     1       1.769   8.538  18.029  0.00  0.00    +0.000 A 
BRANCH  12  19
ATOM     18  C   UNL     1       3.837   6.461  18.091  0.00  0.00    +0.000 C 
ATOM     19  N   UNL     1       2.887   6.688  19.175  0.00  0.00    +0.000 N 
ATOM     20  C   UNL     1       2.679   5.572  20.101  0.00  0.00    +0.000 C 
ENDBRANCH  12  19
ENDBRANCH   1  15
BRANCH   1  21
ATOM     21  C   UNL     1      -1.266  12.004  19.222  0.00  0.00    +0.000 A 
ATOM     22  C   UNL     1      -1.976  12.466  20.381  0.00  0.00    +0.000 A 
ATOM     23  C   UNL     1      -3.365  12.556  20.463  0.00  0.00    +0.000 A 
ATOM     24  C   UNL     1      -4.074  12.173  19.318  0.00  0.00    +0.000 A 
ATOM     25  C   UNL     1      -3.411  11.741  18.157  0.00  0.00    +0.000 A 
ATOM     26  C   UNL     1      -2.017  11.650  18.111  0.00  0.00    +0.000 A 
BRANCH  23  27
ATOM     27  C   UNL     1      -4.093  13.002  21.752  0.00  0.00    +0.000 C 
ATOM     28  C   UNL     1      -3.507  12.409  23.058  0.00  0.00    +0.000 C 
ATOM     29  C   UNL     1      -4.037  14.538  21.894  0.00  0.00    +0.000 C 
ATOM     30  C   UNL     1      -5.571  12.562  21.686  0.00  0.00    +0.000 C 
ENDBRANCH  23  27
BRANCH  26  31
ATOM     31  O   UNL     1      -1.399  11.197  16.987  0.00  0.00    +0.000 OA
ATOM     32  H   UNL     1      -1.849  11.566  16.209  0.00  0.00    +0.000 HD
ENDBRANCH  26  31
ENDBRANCH   1  21
TORSDOF 5
ENDMDL
MODEL 3
REMARK VINA RESULT:      -6.5      3.899      6.338
REMARK  Name = 
REMARK  10 active torsions:
REMARK  status: ('A' for Active; 'I' for Inactive)
REMARK    1  A    between atoms: C_1  and  N_2
REMARK    2  A    between atoms: N_2  and  C_3
REMARK    3  A    between atoms: N_2  and  C_4
REMARK    4  A    between atoms: C_7  and  C_8
REMARK    5  A    between atoms: C_8  and  C_9
REMARK    6  A    between atoms: C_11  and  C_12
REMARK    7  A    between atoms: C_12  and  C_13
REMARK    8  A    between atoms: C_12  and  C_14
REMARK    9  A    between atoms: C_12  and  C_15
REMARK   10  A    between atoms: C_18  and  O_19
REMARK                            x       y       z     vdW  Elec       q    Type
REMARK                         _______ _______ _______ _____ _____    ______ ____
ROOT
ATOM      1  C   UNL     1       0.620  14.298  20.062  0.00  0.00    +0.000 C 
ATOM      2  C   UNL     1       0.105  14.557  21.536  0.00  0.00    +0.000 C 
ATOM      3  O   UNL     1       0.697  14.484  22.596  0.00  0.00    +0.000 OA
ATOM      4  N   UNL     1      -1.275  14.891  21.414  0.00  0.00    +0.000 N 
ATOM      5  C   UNL     1      -1.376  15.600  20.188  0.00  0.00    +0.000 A 
ATOM      6  C   UNL     1      -2.286  16.645  20.109  0.00  0.00    +0.000 A 
ATOM      7  C   UNL     1      -1.816  17.835  19.580  0.00  0.00    +0.000 A 
ATOM      8  C   UNL     1      -0.493  17.908  19.110  0.00  0.00    +0.000 A 
ATOM      9  C   UNL     1       0.343  16.764  19.048  0.00  0.00    +0.000 A 
ATOM     10  C   UNL     1      -0.129  15.548  19.534  0.00  0.00    +0.000 A 
ATOM     11  H   UNL     1      -1.861  14.062  21.373  0.00  0.00    +0.000 HD
ENDROOT
BRANCH   1  15
ATOM     12  C   UNL     1       4.841  14.930  19.017  0.00  0.00    +0.000 A 
ATOM     13  C   UNL     1       4.417  14.886  20.356  0.00  0.00    +0.000 A 
ATOM     14  C   UNL     1       3.102  14.487  20.730  0.00  0.00    +0.000 A 
ATOM     15  C   UNL     1       2.139  14.094  19.774  0.00  0.00    +0.000 A 
ATOM     16  C   UNL     1       2.618  13.982  18.461  0.00  0.00    +0.000 A 
ATOM     17  C   UNL     1       3.918  14.405  18.100  0.00  0.00    +0.000 A 
BRANCH  12  19
ATOM     18  C   UNL     1       6.405  16.868  18.851  0.00  0.00    +0.000 C 
ATOM     19  N   UNL     1       6.060  15.471  18.609  0.00  0.00    +0.000 N 
ATOM     20  C   UNL     1       6.921  14.741  17.675  0.00  0.00    +0.000 C 
ENDBRANCH  12  19
ENDBRANCH   1  15
BRANCH   1  21
ATOM     21  C   UNL     1       0.006  12.857  19.800  0.00  0.00    +0.000 A 
ATOM     22  C   UNL     1       0.169  11.884  20.843  0.00  0.00    +0.000 A 
ATOM     23  C   UNL     1      -0.194  10.543  20.725  0.00  0.00    +0.000 A 
ATOM     24  C   UNL     1      -0.761  10.166  19.501  0.00  0.00    +0.000 A 
ATOM     25  C   UNL     1      -0.960  11.098  18.469  0.00  0.00    +0.000 A 
ATOM     26  C   UNL     1      -0.573  12.433  18.614  0.00  0.00    +0.000 A 
BRANCH  23  27
ATOM     27  C   UNL     1       0.054   9.514  21.851  0.00  0.00    +0.000 C 
ATOM     28  C   UNL     1      -0.523   8.103  21.569  0.00  0.00    +0.000 C 
ATOM     29  C   UNL     1       1.568   9.337  22.090  0.00  0.00    +0.000 C 
ATOM     30  C   UNL     1      -0.601  10.011  23.156  0.00  0.00    +0.000 C 
ENDBRANCH  23  27
BRANCH  26  31
ATOM     31  O   UNL     1      -0.744  13.309  17.588  0.00  0.00    +0.000 OA
ATOM     32  H   UNL     1       0.042  13.284  17.017  0.00  0.00    +0.000 HD
ENDBRANCH  26  31
ENDBRANCH   1  21
TORSDOF 5
ENDMDL
MODEL 4
REMARK VINA RESULT:      -6.4      2.867      6.154
REMARK  Name = 
REMARK  10 active torsions:
REMARK  status: ('A' for Active; 'I' for Inactive)
REMARK    1  A    between atoms: C_1  and  N_2
REMARK    2  A    between atoms: N_2  and  C_3
REMARK    3  A    between atoms: N_2  and  C_4
REMARK    4  A    between atoms: C_7  and  C_8
REMARK    5  A    between atoms: C_8  and  C_9
REMARK    6  A    between atoms: C_11  and  C_12
REMARK    7  A    between atoms: C_12  and  C_13
REMARK    8  A    between atoms: C_12  and  C_14
REMARK    9  A    between atoms: C_12  and  C_15
REMARK   10  A    between atoms: C_18  and  O_19
REMARK                            x       y       z     vdW  Elec       q    Type
REMARK                         _______ _______ _______ _____ _____    ______ ____
ROOT
ATOM      1  C   UNL     1      -0.610  12.566  20.738  0.00  0.00    +0.000 C 
ATOM      2  C   UNL     1      -0.342  11.380  21.750  0.00  0.00    +0.000 C 
ATOM      3  O   UNL     1       0.677  10.753  21.969  0.00  0.00    +0.000 OA
ATOM      4  N   UNL     1      -1.587  11.128  22.394  0.00  0.00    +0.000 N 
ATOM      5  C   UNL     1      -2.214  12.398  22.497  0.00  0.00    +0.000 A 
ATOM      6  C   UNL     1      -2.979  12.661  23.624  0.00  0.00    +0.000 A 
ATOM      7  C   UNL     1      -2.741  13.865  24.266  0.00  0.00    +0.000 A 
ATOM      8  C   UNL     1      -1.799  14.761  23.729  0.00  0.00    +0.000 A 
ATOM      9  C   UNL     1      -1.172  14.526  22.479  0.00  0.00    +0.000 A 
ATOM     10  C   UNL     1      -1.435  13.341  21.797  0.00  0.00    +0.000 A 
ATOM     11  H   UNL     1      -2.176  10.506  21.848  0.00  0.00    +0.000 HD
ENDROOT
BRANCH   1  15
ATOM     12  C   UNL     1       2.527  15.368  19.465  0.00  0.00    +0.000 A 
ATOM     13  C   UNL     1       2.822  14.255  20.270  0.00  0.00    +0.000 A 
ATOM     14  C   UNL     1       1.873  13.226  20.532  0.00  0.00    +0.000 A 
ATOM     15  C   UNL     1       0.571  13.253  19.985  0.00  0.00    +0.000 A 
ATOM     16  C   UNL     1       0.339  14.275  19.054  0.00  0.00    +0.000 A 
ATOM     17  C   UNL     1       1.281  15.304  18.823  0.00  0.00    +0.000 A 
BRANCH  12  19
ATOM     18  C   UNL     1       4.404  16.524  18.294  0.00  0.00    +0.000 C 
ATOM     19  N   UNL     1       3.373  16.468  19.325  0.00  0.00    +0.000 N 
ATOM     20  C   UNL     1       3.452  17.483  20.379  0.00  0.00    +0.000 C 
ENDBRANCH  12  19
ENDBRANCH   1  15
BRANCH   1  21
ATOM     21  C   UNL     1      -1.369  11.784  19.583  0.00  0.00    +0.000 A 
ATOM     22  C   UNL     1      -2.751  12.113  19.377  0.00  0.00    +0.000 A 
ATOM     23  C   UNL     1      -3.594  11.435  18.497  0.00  0.00    +0.000 A 
ATOM     24  C   UNL     1      -3.013  10.383  17.779  0.00  0.00    +0.000 A 
ATOM     25  C   UNL     1      -1.656  10.051  17.935  0.00  0.00    +0.000 A 
ATOM     26  C   UNL     1      -0.841  10.742  18.835  0.00  0.00    +0.000 A 
BRANCH  23  27
ATOM     27  C   UNL     1      -5.093  11.782  18.349  0.00  0.00    +0.000 C 
ATOM     28  C   UNL     1      -5.490  12.333  16.956  0.00  0.00    +0.000 C 
ATOM     29  C   UNL     1      -5.958  10.528  18.597  0.00  0.00    +0.000 C 
ATOM     30  C   UNL     1      -5.475  12.862  19.383  0.00  0.00    +0.000 C 
ENDBRANCH  23  27
BRANCH  26  31
ATOM     31  O   UNL     1       0.461  10.381  18.994  0.00  0.00    +0.000 OA
ATOM     32  H   UNL     1       0.900  11.028  19.571  0.00  0.00    +0.000 HD
ENDBRANCH  26  31
ENDBRANCH   1  21
TORSDOF 5
ENDMDL
MODEL 5
REMARK VINA RESULT:      -6.3      2.909      6.229
REMARK  Name = 
REMARK  10 active torsions:
REMARK  status: ('A' for Active; 'I' for Inactive)
REMARK    1  A    between atoms: C_1  and  N_2
REMARK    2  A    between atoms: N_2  and  C_3
REMARK    3  A    between atoms: N_2  and  C_4
REMARK    4  A    between atoms: C_7  and  C_8
REMARK    5  A    between atoms: C_8  and  C_9
REMARK    6  A    between atoms: C_11  and  C_12
REMARK    7  A    between atoms: C_12  and  C_13
REMARK    8  A    between atoms: C_12  and  C_14
REMARK    9  A    between atoms: C_12  and  C_15
REMARK   10  A    between atoms: C_18  and  O_19
REMARK                            x       y       z     vdW  Elec       q    Type
REMARK                         _______ _______ _______ _____ _____    ______ ____
ROOT
ATOM      1  C   UNL     1      -0.704  12.617  20.849  0.00  0.00    +0.000 C 
ATOM      2  C   UNL     1      -0.473  11.441  21.882  0.00  0.00    +0.000 C 
ATOM      3  O   UNL     1       0.534  10.806  22.132  0.00  0.00    +0.000 OA
ATOM      4  N   UNL     1      -1.735  11.212  22.502  0.00  0.00    +0.000 N 
ATOM      5  C   UNL     1      -2.348  12.490  22.575  0.00  0.00    +0.000 A 
ATOM      6  C   UNL     1      -3.136  12.777  23.681  0.00  0.00    +0.000 A 
ATOM      7  C   UNL     1      -2.897  13.986  24.313  0.00  0.00    +0.000 A 
ATOM      8  C   UNL     1      -1.934  14.864  23.785  0.00  0.00    +0.000 A 
ATOM      9  C   UNL     1      -1.281  14.605  22.553  0.00  0.00    +0.000 A 
ATOM     10  C   UNL     1      -1.544  13.415  21.880  0.00  0.00    +0.000 A 
ATOM     11  H   UNL     1      -2.318  10.589  21.950  0.00  0.00    +0.000 HD
ENDROOT
BRANCH   1  15
ATOM     12  C   UNL     1       2.494  15.365  19.613  0.00  0.00    +0.000 A 
ATOM     13  C   UNL     1       2.758  14.257  20.436  0.00  0.00    +0.000 A 
ATOM     14  C   UNL     1       1.791  13.243  20.689  0.00  0.00    +0.000 A 
ATOM     15  C   UNL     1       0.501  13.280  20.114  0.00  0.00    +0.000 A 
ATOM     16  C   UNL     1       0.302  14.295  19.168  0.00  0.00    +0.000 A 
ATOM     17  C   UNL     1       1.262  15.309  18.945  0.00  0.00    +0.000 A 
BRANCH  12  19
ATOM     18  C   UNL     1       3.249  17.634  20.329  0.00  0.00    +0.000 C 
ATOM     19  N   UNL     1       3.357  16.452  19.479  0.00  0.00    +0.000 N 
ATOM     20  C   UNL     1       4.219  16.576  18.301  0.00  0.00    +0.000 C 
ENDBRANCH  12  19
ENDBRANCH   1  15
BRANCH   1  21
ATOM     21  C   UNL     1      -1.446  11.829  19.688  0.00  0.00    +0.000 A 
ATOM     22  C   UNL     1      -2.825  12.157  19.459  0.00  0.00    +0.000 A 
ATOM     23  C   UNL     1      -3.655  11.475  18.570  0.00  0.00    +0.000 A 
ATOM     24  C   UNL     1      -3.065  10.418  17.867  0.00  0.00    +0.000 A 
ATOM     25  C   UNL     1      -1.711  10.086  18.046  0.00  0.00    +0.000 A 
ATOM     26  C   UNL     1      -0.908  10.782  18.954  0.00  0.00    +0.000 A 
BRANCH  23  27
ATOM     27  C   UNL     1      -5.151  11.823  18.398  0.00  0.00    +0.000 C 
ATOM     28  C   UNL     1      -6.119  10.644  18.676  0.00  0.00    +0.000 C 
ATOM     29  C   UNL     1      -5.549  12.963  19.359  0.00  0.00    +0.000 C 
ATOM     30  C   UNL     1      -5.410  12.281  16.948  0.00  0.00    +0.000 C 
ENDBRANCH  23  27
BRANCH  26  31
ATOM     31  O   UNL     1       0.390  10.420  19.135  0.00  0.00    +0.000 OA
ATOM     32  H   UNL     1       0.433   9.721  19.808  0.00  0.00    +0.000 HD
ENDBRANCH  26  31
ENDBRANCH   1  21
TORSDOF 5
ENDMDL
MODEL 6
REMARK VINA RESULT:      -6.2      3.202      6.074
REMARK  Name = 
REMARK  10 active torsions:
REMARK  status: ('A' for Active; 'I' for Inactive)
REMARK    1  A    between atoms: C_1  and  N_2
REMARK    2  A    between atoms: N_2  and  C_3
REMARK    3  A    between atoms: N_2  and  C_4
REMARK    4  A    between atoms: C_7  and  C_8
REMARK    5  A    between atoms: C_8  and  C_9
REMARK    6  A    between atoms: C_11  and  C_12
REMARK    7  A    between atoms: C_12  and  C_13
REMARK    8  A    between atoms: C_12  and  C_14
REMARK    9  A    between atoms: C_12  and  C_15
REMARK   10  A    between atoms: C_18  and  O_19
REMARK                            x       y       z     vdW  Elec       q    Type
REMARK                         _______ _______ _______ _____ _____    ______ ____
ROOT
ATOM      1  C   UNL     1      -1.420  13.187  21.468  0.00  0.00    +0.000 C 
ATOM      2  C   UNL     1      -0.931  11.972  22.356  0.00  0.00    +0.000 C 
ATOM      3  O   UNL     1       0.194  11.561  22.570  0.00  0.00    +0.000 OA
ATOM      4  N   UNL     1      -2.111  11.376  22.886  0.00  0.00    +0.000 N 
ATOM      5  C   UNL     1      -3.010  12.455  23.090  0.00  0.00    +0.000 A 
ATOM      6  C   UNL     1      -3.858  12.403  24.187  0.00  0.00    +0.000 A 
ATOM      7  C   UNL     1      -3.921  13.541  24.974  0.00  0.00    +0.000 A 
ATOM      8  C   UNL     1      -3.186  14.681  24.602  0.00  0.00    +0.000 A 
ATOM      9  C   UNL     1      -2.474  14.745  23.377  0.00  0.00    +0.000 A 
ATOM     10  C   UNL     1      -2.438  13.625  22.551  0.00  0.00    +0.000 A 
ATOM     11  H   UNL     1      -2.523  10.712  22.237  0.00  0.00    +0.000 HD
ENDROOT
BRANCH   1  15
ATOM     12  C   UNL     1       1.793  15.066  19.133  0.00  0.00    +0.000 A 
ATOM     13  C   UNL     1       0.444  15.207  18.767  0.00  0.00    +0.000 A 
ATOM     14  C   UNL     1      -0.625  14.783  19.607  0.00  0.00    +0.000 A 
ATOM     15  C   UNL     1      -0.395  14.202  20.874  0.00  0.00    +0.000 A 
ATOM     16  C   UNL     1       0.940  14.216  21.300  0.00  0.00    +0.000 A 
ATOM     17  C   UNL     1       1.993  14.617  20.447  0.00  0.00    +0.000 A 
BRANCH  12  19
ATOM     18  C   UNL     1       4.011  14.424  18.181  0.00  0.00    +0.000 C 
ATOM     19  N   UNL     1       2.859  15.316  18.269  0.00  0.00    +0.000 N 
ATOM     20  C   UNL     1       3.002  16.625  17.625  0.00  0.00    +0.000 C 
ENDBRANCH  12  19
ENDBRANCH   1  15
BRANCH   1  21
ATOM     21  C   UNL     1      -1.938  12.406  20.186  0.00  0.00    +0.000 A 
ATOM     22  C   UNL     1      -3.322  12.569  19.843  0.00  0.00    +0.000 A 
ATOM     23  C   UNL     1      -3.967  11.860  18.830  0.00  0.00    +0.000 A 
ATOM     24  C   UNL     1      -3.175  10.950  18.119  0.00  0.00    +0.000 A 
ATOM     25  C   UNL     1      -1.810  10.785  18.409  0.00  0.00    +0.000 A 
ATOM     26  C   UNL     1      -1.197  11.502  19.440  0.00  0.00    +0.000 A 
BRANCH  23  27
ATOM     27  C   UNL     1      -5.475  12.022  18.533  0.00  0.00    +0.000 C 
ATOM     28  C   UNL     1      -5.797  12.527  17.104  0.00  0.00    +0.000 C 
ATOM     29  C   UNL     1      -6.202  10.671  18.704  0.00  0.00    +0.000 C 
ATOM     30  C   UNL     1      -6.086  13.043  19.516  0.00  0.00    +0.000 C 
ENDBRANCH  23  27
BRANCH  26  31
ATOM     31  O   UNL     1       0.118  11.300  19.724  0.00  0.00    +0.000 OA
ATOM     32  H   UNL     1       0.627  11.321  18.897  0.00  0.00    +0.000 HD
ENDBRANCH  26  31
ENDBRANCH   1  21
TORSDOF 5
ENDMDL
MODEL 7
REMARK VINA RESULT:      -6.2      2.098      4.272
REMARK  Name = 
REMARK  10 active torsions:
REMARK  status: ('A' for Active; 'I' for Inactive)
REMARK    1  A    between atoms: C_1  and  N_2
REMARK    2  A    between atoms: N_2  and  C_3
REMARK    3  A    between atoms: N_2  and  C_4
REMARK    4  A    between atoms: C_7  and  C_8
REMARK    5  A    between atoms: C_8  and  C_9
REMARK    6  A    between atoms: C_11  and  C_12
REMARK    7  A    between atoms: C_12  and  C_13
REMARK    8  A    between atoms: C_12  and  C_14
REMARK    9  A    between atoms: C_12  and  C_15
REMARK   10  A    between atoms: C_18  and  O_19
REMARK                            x       y       z     vdW  Elec       q    Type
REMARK                         _______ _______ _______ _____ _____    ______ ____
ROOT
ATOM      1  C   UNL     1      -1.208  12.093  19.124  0.00  0.00    +0.000 C 
ATOM      2  C   UNL     1      -1.572  12.823  20.480  0.00  0.00    +0.000 C 
ATOM      3  O   UNL     1      -1.668  12.378  21.608  0.00  0.00    +0.000 OA
ATOM      4  N   UNL     1      -1.813  14.185  20.137  0.00  0.00    +0.000 N 
ATOM      5  C   UNL     1      -0.917  14.461  19.071  0.00  0.00    +0.000 A 
ATOM      6  C   UNL     1      -0.354  15.728  19.000  0.00  0.00    +0.000 A 
ATOM      7  C   UNL     1       1.016  15.785  18.811  0.00  0.00    +0.000 A 
ATOM      8  C   UNL     1       1.743  14.592  18.649  0.00  0.00    +0.000 A 
ATOM      9  C   UNL     1       1.100  13.332  18.552  0.00  0.00    +0.000 A 
ATOM     10  C   UNL     1      -0.284  13.261  18.694  0.00  0.00    +0.000 A 
ATOM     11  H   UNL     1      -2.768  14.332  19.822  0.00  0.00    +0.000 HD
ENDROOT
BRANCH   1  15
ATOM     12  C   UNL     1       1.339   8.513  19.060  0.00  0.00    +0.000 A 
ATOM     13  C   UNL     1       0.836   9.032  20.265  0.00  0.00    +0.000 A 
ATOM     14  C   UNL     1      -0.146  10.062  20.304  0.00  0.00    +0.000 A 
ATOM     15  C   UNL     1      -0.691  10.622  19.126  0.00  0.00    +0.000 A 
ATOM     16  C   UNL     1      -0.308   9.987  17.936  0.00  0.00    +0.000 A 
ATOM     17  C   UNL     1       0.686   8.982  17.910  0.00  0.00    +0.000 A 
BRANCH  12  19
ATOM     18  C   UNL     1       3.336   7.620  17.856  0.00  0.00    +0.000 C 
ATOM     19  N   UNL     1       2.414   7.627  18.988  0.00  0.00    +0.000 N 
ATOM     20  C   UNL     1       2.496   6.483  19.900  0.00  0.00    +0.000 C 
ENDBRANCH  12  19
ENDBRANCH   1  15
BRANCH   1  21
ATOM     21  C   UNL     1      -2.652  11.967  18.476  0.00  0.00    +0.000 A 
ATOM     22  C   UNL     1      -3.773  12.065  19.368  0.00  0.00    +0.000 A 
ATOM     23  C   UNL     1      -5.097  11.850  18.987  0.00  0.00    +0.000 A 
ATOM     24  C   UNL     1      -5.304  11.533  17.639  0.00  0.00    +0.000 A 
ATOM     25  C   UNL     1      -4.233  11.455  16.733  0.00  0.00    +0.000 A 
ATOM     26  C   UNL     1      -2.915  11.664  17.149  0.00  0.00    +0.000 A 
BRANCH  23  27
ATOM     27  C   UNL     1      -6.270  11.906  19.992  0.00  0.00    +0.000 C 
ATOM     28  C   UNL     1      -7.007  10.557  20.193  0.00  0.00    +0.000 C 
ATOM     29  C   UNL     1      -5.764  12.350  21.381  0.00  0.00    +0.000 C 
ATOM     30  C   UNL     1      -7.323  12.921  19.499  0.00  0.00    +0.000 C 
ENDBRANCH  23  27
BRANCH  26  31
ATOM     31  O   UNL     1      -1.892  11.550  16.261  0.00  0.00    +0.000 OA
ATOM     32  H   UNL     1      -2.197  11.847  15.387  0.00  0.00    +0.000 HD
ENDBRANCH  26  31
ENDBRANCH   1  21
TORSDOF 5
ENDMDL
MODEL 8
REMARK VINA RESULT:      -6.1      2.803      6.343
REMARK  Name = 
REMARK  10 active torsions:
REMARK  status: ('A' for Active; 'I' for Inactive)
REMARK    1  A    between atoms: C_1  and  N_2
REMARK    2  A    between atoms: N_2  and  C_3
REMARK    3  A    between atoms: N_2  and  C_4
REMARK    4  A    between atoms: C_7  and  C_8
REMARK    5  A    between atoms: C_8  and  C_9
REMARK    6  A    between atoms: C_11  and  C_12
REMARK    7  A    between atoms: C_12  and  C_13
REMARK    8  A    between atoms: C_12  and  C_14
REMARK    9  A    between atoms: C_12  and  C_15
REMARK   10  A    between atoms: C_18  and  O_19
REMARK                            x       y       z     vdW  Elec       q    Type
REMARK                         _______ _______ _______ _____ _____    ______ ____
ROOT
ATOM      1  C   UNL     1      -1.555  13.829  21.223  0.00  0.00    +0.000 C 
ATOM      2  C   UNL     1      -1.371  13.125  22.629  0.00  0.00    +0.000 C 
ATOM      3  O   UNL     1      -0.458  13.203  23.429  0.00  0.00    +0.000 OA
ATOM      4  N   UNL     1      -2.521  12.305  22.808  0.00  0.00    +0.000 N 
ATOM      5  C   UNL     1      -3.582  13.014  22.185  0.00  0.00    +0.000 A 
ATOM      6  C   UNL     1      -4.843  12.942  22.758  0.00  0.00    +0.000 A 
ATOM      7  C   UNL     1      -5.509  14.143  22.938  0.00  0.00    +0.000 A 
ATOM      8  C   UNL     1      -4.915  15.337  22.494  0.00  0.00    +0.000 A 
ATOM      9  C   UNL     1      -3.704  15.340  21.755  0.00  0.00    +0.000 A 
ATOM     10  C   UNL     1      -3.044  14.136  21.524  0.00  0.00    +0.000 A 
ATOM     11  H   UNL     1      -2.412  11.399  22.361  0.00  0.00    +0.000 HD
ENDROOT
BRANCH   1  15
ATOM     12  C   UNL     1       1.879  16.044  19.609  0.00  0.00    +0.000 A 
ATOM     13  C   UNL     1       0.725  15.821  18.840  0.00  0.00    +0.000 A 
ATOM     14  C   UNL     1      -0.473  15.287  19.394  0.00  0.00    +0.000 A 
ATOM     15  C   UNL     1      -0.582  14.957  20.764  0.00  0.00    +0.000 A 
ATOM     16  C   UNL     1       0.513  15.335  21.553  0.00  0.00    +0.000 A 
ATOM     17  C   UNL     1       1.705  15.842  20.986  0.00  0.00    +0.000 A 
BRANCH  12  19
ATOM     18  C   UNL     1       3.472  16.097  17.687  0.00  0.00    +0.000 C 
ATOM     19  N   UNL     1       3.112  16.407  19.067  0.00  0.00    +0.000 N 
ATOM     20  C   UNL     1       4.201  16.859  19.936  0.00  0.00    +0.000 C 
ENDBRANCH  12  19
ENDBRANCH   1  15
BRANCH   1  21
ATOM     21  C   UNL     1      -1.192  12.623  20.256  0.00  0.00    +0.000 A 
ATOM     22  C   UNL     1      -2.164  12.276  19.259  0.00  0.00    +0.000 A 
ATOM     23  C   UNL     1      -2.061  11.169  18.417  0.00  0.00    +0.000 A 
ATOM     24  C   UNL     1      -0.917  10.379  18.579  0.00  0.00    +0.000 A 
ATOM     25  C   UNL     1       0.069  10.704  19.526  0.00  0.00    +0.000 A 
ATOM     26  C   UNL     1      -0.070  11.815  20.364  0.00  0.00    +0.000 A 
BRANCH  23  27
ATOM     27  C   UNL     1      -3.161  10.797  17.397  0.00  0.00    +0.000 C 
ATOM     28  C   UNL     1      -4.443  11.663  17.490  0.00  0.00    +0.000 C 
ATOM     29  C   UNL     1      -2.627  10.944  15.956  0.00  0.00    +0.000 C 
ATOM     30  C   UNL     1      -3.595   9.333  17.619  0.00  0.00    +0.000 C 
ENDBRANCH  23  27
BRANCH  26  31
ATOM     31  O   UNL     1       0.880  12.089  21.297  0.00  0.00    +0.000 OA
ATOM     32  H   UNL     1       1.257  12.967  21.115  0.00  0.00    +0.000 HD
ENDBRANCH  26  31
ENDBRANCH   1  21
TORSDOF 5
ENDMDL
MODEL 9
REMARK VINA RESULT:      -6.1      2.808      6.427
REMARK  Name = 
REMARK  10 active torsions:
REMARK  status: ('A' for Active; 'I' for Inactive)
REMARK    1  A    between atoms: C_1  and  N_2
REMARK    2  A    between atoms: N_2  and  C_3
REMARK    3  A    between atoms: N_2  and  C_4
REMARK    4  A    between atoms: C_7  and  C_8
REMARK    5  A    between atoms: C_8  and  C_9
REMARK    6  A    between atoms: C_11  and  C_12
REMARK    7  A    between atoms: C_12  and  C_13
REMARK    8  A    between atoms: C_12  and  C_14
REMARK    9  A    between atoms: C_12  and  C_15
REMARK   10  A    between atoms: C_18  and  O_19
REMARK                            x       y       z     vdW  Elec       q    Type
REMARK                         _______ _______ _______ _____ _____    ______ ____
ROOT
ATOM      1  C   UNL     1      -1.569  13.847  21.230  0.00  0.00    +0.000 C 
ATOM      2  C   UNL     1      -1.384  13.153  22.640  0.00  0.00    +0.000 C 
ATOM      3  O   UNL     1      -0.476  13.243  23.443  0.00  0.00    +0.000 OA
ATOM      4  N   UNL     1      -2.528  12.324  22.819  0.00  0.00    +0.000 N 
ATOM      5  C   UNL     1      -3.592  13.020  22.188  0.00  0.00    +0.000 A 
ATOM      6  C   UNL     1      -4.856  12.941  22.756  0.00  0.00    +0.000 A 
ATOM      7  C   UNL     1      -5.533  14.137  22.927  0.00  0.00    +0.000 A 
ATOM      8  C   UNL     1      -4.946  15.334  22.478  0.00  0.00    +0.000 A 
ATOM      9  C   UNL     1      -3.733  15.343  21.744  0.00  0.00    +0.000 A 
ATOM     10  C   UNL     1      -3.062  14.144  21.523  0.00  0.00    +0.000 A 
ATOM     11  H   UNL     1      -2.410  11.417  22.377  0.00  0.00    +0.000 HD
ENDROOT
BRANCH   1  15
ATOM     12  C   UNL     1       1.872  16.084  19.659  0.00  0.00    +0.000 A 
ATOM     13  C   UNL     1       0.747  15.816  18.861  0.00  0.00    +0.000 A 
ATOM     14  C   UNL     1      -0.458  15.274  19.393  0.00  0.00    +0.000 A 
ATOM     15  C   UNL     1      -0.603  14.982  20.768  0.00  0.00    +0.000 A 
ATOM     16  C   UNL     1       0.459  15.403  21.580  0.00  0.00    +0.000 A 
ATOM     17  C   UNL     1       1.658  15.917  21.035  0.00  0.00    +0.000 A 
BRANCH  12  19
ATOM     18  C   UNL     1       4.132  17.099  19.971  0.00  0.00    +0.000 C 
ATOM     19  N   UNL     1       3.114  16.456  19.145  0.00  0.00    +0.000 N 
ATOM     20  C   UNL     1       3.343  16.478  17.699  0.00  0.00    +0.000 C 
ENDBRANCH  12  19
ENDBRANCH   1  15
BRANCH   1  21
ATOM     21  C   UNL     1      -1.191  12.639  20.271  0.00  0.00    +0.000 A 
ATOM     22  C   UNL     1      -2.165  12.267  19.284  0.00  0.00    +0.000 A 
ATOM     23  C   UNL     1      -2.048  11.154  18.451  0.00  0.00    +0.000 A 
ATOM     24  C   UNL     1      -0.889  10.386  18.611  0.00  0.00    +0.000 A 
ATOM     25  C   UNL     1       0.098  10.737  19.548  0.00  0.00    +0.000 A 
ATOM     26  C   UNL     1      -0.055  11.852  20.377  0.00  0.00    +0.000 A 
BRANCH  23  27
ATOM     27  C   UNL     1      -3.149  10.753  17.443  0.00  0.00    +0.000 C 
ATOM     28  C   UNL     1      -3.639   9.288  17.577  0.00  0.00    +0.000 C 
ATOM     29  C   UNL     1      -4.389  11.656  17.617  0.00  0.00    +0.000 C 
ATOM     30  C   UNL     1      -2.613  10.915  16.005  0.00  0.00    +0.000 C 
ENDBRANCH  23  27
BRANCH  26  31
ATOM     31  O   UNL     1       0.898  12.152  21.300  0.00  0.00    +0.000 OA
ATOM     32  H   UNL     1       1.561  11.442  21.312  0.00  0.00    +0.000 HD
ENDBRANCH  26  31
ENDBRANCH   1  21
TORSDOF 5
ENDMDL
