MODEL 1
REMARK VINA RESULT:      -7.5      0.000      0.000
REMARK  Name = 
REMARK  14 active torsions:
REMARK  status: ('A' for Active; 'I' for Inactive)
REMARK    1  A    between atoms: C_1  and  C_2
REMARK    2  A    between atoms: C_2  and  C_3
REMARK    3  A    between atoms: C_2  and  C_4
REMARK    4  A    between atoms: C_4  and  C_5
REMARK    5  A    between atoms: C_5  and  N_6
REMARK    6  A    between atoms: C_12  and  N_13
REMARK    7  A    between atoms: C_14  and  C_16
REMARK    8  A    between atoms: C_16  and  C_17
REMARK    9  A    between atoms: C_17  and  C_18
REMARK   10  A    between atoms: C_18  and  C_19
REMARK   11  A    between atoms: C_19  and  C_20
REMARK   12  A    between atoms: C_20  and  C_21
REMARK   13  A    between atoms: C_21  and  C_22
REMARK   14  A    between atoms: N_24  and  O_25
REMARK                            x       y       z     vdW  Elec       q    Type
REMARK                         _______ _______ _______ _____ _____    ______ ____
ROOT
ATOM      1  N   UNL     1       0.479  10.306  19.248  0.00  0.00    +0.000 N 
ATOM      2  C   UNL     1       0.121  10.101  20.569  0.00  0.00    +0.000 A 
ATOM      3  C   UNL     1       0.455   9.000  21.243  0.00  0.00    +0.000 A 
ATOM      4  C   UNL     1       1.177   7.941  20.556  0.00  0.00    +0.000 A 
ATOM      5  C   UNL     1       1.426   6.739  21.210  0.00  0.00    +0.000 A 
ATOM      6  C   UNL     1       2.090   5.707  20.549  0.00  0.00    +0.000 A 
ATOM      7  C   UNL     1       2.550   5.861  19.237  0.00  0.00    +0.000 A 
ATOM      8  C   UNL     1       2.300   7.074  18.577  0.00  0.00    +0.000 A 
ATOM      9  C   UNL     1       1.598   8.107  19.232  0.00  0.00    +0.000 A 
ATOM     10  C   UNL     1       1.236   9.368  18.521  0.00  0.00    +0.000 A 
ATOM     11  O   UNL     1       1.587   9.525  17.352  0.00  0.00    +0.000 OA
ENDROOT
BRANCH   7  12
ATOM     12  N   UNL     1       3.227   4.831  18.538  0.00  0.00    +0.000 N 
ATOM     13  C   UNL     1       2.637   3.877  17.725  0.00  0.00    +0.000 C 
ATOM     14  O   UNL     1       1.433   3.735  17.520  0.00  0.00    +0.000 OA
ATOM     15  H   UNL     1       4.233   4.794  18.652  0.00  0.00    +0.000 HD
BRANCH  13  16
ATOM     16  C   UNL     1       3.617   2.968  17.014  0.00  0.00    +0.000 C 
BRANCH  16  17
ATOM     17  C   UNL     1       4.965   3.680  16.932  0.00  0.00    +0.000 C 
BRANCH  17  18
ATOM     18  C   UNL     1       5.143   4.429  15.616  0.00  0.00    +0.000 C 
BRANCH  18  19
ATOM     19  C   UNL     1       6.263   5.465  15.737  0.00  0.00    +0.000 C 
BRANCH  19  20
ATOM     20  C   UNL     1       6.063   6.346  16.966  0.00  0.00    +0.000 C 
BRANCH  20  21
ATOM     21  C   UNL     1       7.389   6.687  17.639  0.00  0.00    +0.000 C 
BRANCH  21  22
ATOM     22  C   UNL     1       7.788   5.622  18.637  0.00  0.00    +0.000 C 
ATOM     23  O   UNL     1       7.885   4.425  18.380  0.00  0.00    +0.000 OA
ATOM     24  N   UNL     1       8.045   6.113  19.894  0.00  0.00    +0.000 N 
ATOM     25  H   UNL     1       7.776   7.035  20.216  0.00  0.00    +0.000 HD
BRANCH  24  26
ATOM     26  O   UNL     1       8.338   5.146  20.882  0.00  0.00    +0.000 OA
ATOM     27  H   UNL     1       7.596   5.268  21.519  0.00  0.00    +0.000 HD
ENDBRANCH  24  26
ENDBRANCH  21  22
ENDBRANCH  20  21
ENDBRANCH  19  20
ENDBRANCH  18  19
ENDBRANCH  17  18
ENDBRANCH  16  17
ENDBRANCH  13  16
ENDBRANCH   7  12
BRANCH   1  28
ATOM     28  C   UNL     1       0.001  11.524  18.585  0.00  0.00    +0.000 C 
BRANCH  28  29
ATOM     29  C   UNL     1      -1.511  11.541  18.322  0.00  0.00    +0.000 C 
BRANCH  29  31
ATOM     30  C   UNL     1      -3.127   9.632  17.887  0.00  0.00    +0.000 C 
ATOM     31  C   UNL     1      -1.995  10.483  17.315  0.00  0.00    +0.000 C 
ATOM     32  C   UNL     1      -2.454  11.163  16.023  0.00  0.00    +0.000 C 
ENDBRANCH  29  31
ENDBRANCH  28  29
ENDBRANCH   1  28
TORSDOF 12
ENDMDL
MODEL 2
REMARK VINA RESULT:      -7.2      3.002      4.059
REMARK  Name = 
REMARK  14 active torsions:
REMARK  status: ('A' for Active; 'I' for Inactive)
REMARK    1  A    between atoms: C_1  and  C_2
REMARK    2  A    between atoms: C_2  and  C_3
REMARK    3  A    between atoms: C_2  and  C_4
REMARK    4  A    between atoms: C_4  and  C_5
REMARK    5  A    between atoms: C_5  and  N_6
REMARK    6  A    between atoms: C_12  and  N_13
REMARK    7  A    between atoms: C_14  and  C_16
REMARK    8  A    between atoms: C_16  and  C_17
REMARK    9  A    between atoms: C_17  and  C_18
REMARK   10  A    between atoms: C_18  and  C_19
REMARK   11  A    between atoms: C_19  and  C_20
REMARK   12  A    between atoms: C_20  and  C_21
REMARK   13  A    between atoms: C_21  and  C_22
REMARK   14  A    between atoms: N_24  and  O_25
REMARK                            x       y       z     vdW  Elec       q    Type
REMARK                         _______ _______ _______ _____ _____    ______ ____
ROOT
ATOM      1  N   UNL     1      -0.380  11.327  21.676  0.00  0.00    +0.000 N 
ATOM      2  C   UNL     1      -0.274  11.818  20.386  0.00  0.00    +0.000 A 
ATOM      3  C   UNL     1       0.277  11.119  19.393  0.00  0.00    +0.000 A 
ATOM      4  C   UNL     1       0.842   9.810  19.677  0.00  0.00    +0.000 A 
ATOM      5  C   UNL     1       1.525   9.122  18.679  0.00  0.00    +0.000 A 
ATOM      6  C   UNL     1       2.098   7.881  18.952  0.00  0.00    +0.000 A 
ATOM      7  C   UNL     1       1.973   7.282  20.210  0.00  0.00    +0.000 A 
ATOM      8  C   UNL     1       1.282   7.975  21.216  0.00  0.00    +0.000 A 
ATOM      9  C   UNL     1       0.733   9.247  20.954  0.00  0.00    +0.000 A 
ATOM     10  C   UNL     1       0.077  10.045  22.031  0.00  0.00    +0.000 A 
ATOM     11  O   UNL     1      -0.016   9.570  23.162  0.00  0.00    +0.000 OA
ENDROOT
BRANCH   7  12
ATOM     12  N   UNL     1       2.543   6.022  20.517  0.00  0.00    +0.000 N 
ATOM     13  C   UNL     1       1.873   4.809  20.531  0.00  0.00    +0.000 C 
ATOM     14  O   UNL     1       0.673   4.635  20.331  0.00  0.00    +0.000 OA
ATOM     15  H   UNL     1       3.529   6.017  20.751  0.00  0.00    +0.000 HD
BRANCH  13  16
ATOM     16  C   UNL     1       2.760   3.608  20.784  0.00  0.00    +0.000 C 
BRANCH  16  17
ATOM     17  C   UNL     1       2.941   2.855  19.468  0.00  0.00    +0.000 C 
BRANCH  17  18
ATOM     18  C   UNL     1       3.766   3.646  18.459  0.00  0.00    +0.000 C 
BRANCH  18  19
ATOM     19  C   UNL     1       5.133   4.002  19.047  0.00  0.00    +0.000 C 
BRANCH  19  20
ATOM     20  C   UNL     1       5.587   5.381  18.581  0.00  0.00    +0.000 C 
BRANCH  20  21
ATOM     21  C   UNL     1       4.741   5.891  17.419  0.00  0.00    +0.000 C 
BRANCH  21  22
ATOM     22  C   UNL     1       5.579   6.096  16.176  0.00  0.00    +0.000 C 
ATOM     23  O   UNL     1       5.245   6.781  15.213  0.00  0.00    +0.000 OA
ATOM     24  N   UNL     1       6.784   5.437  16.209  0.00  0.00    +0.000 N 
ATOM     25  H   UNL     1       7.017   4.697  16.862  0.00  0.00    +0.000 HD
BRANCH  24  26
ATOM     26  O   UNL     1       7.566   5.527  15.035  0.00  0.00    +0.000 OA
ATOM     27  H   UNL     1       8.218   4.800  15.163  0.00  0.00    +0.000 HD
ENDBRANCH  24  26
ENDBRANCH  21  22
ENDBRANCH  20  21
ENDBRANCH  19  20
ENDBRANCH  18  19
ENDBRANCH  17  18
ENDBRANCH  16  17
ENDBRANCH  13  16
ENDBRANCH   7  12
BRANCH   1  28
ATOM     28  C   UNL     1      -0.943  12.208  22.705  0.00  0.00    +0.000 C 
BRANCH  28  29
ATOM     29  C   UNL     1      -2.288  11.729  23.272  0.00  0.00    +0.000 C 
BRANCH  29  31
ATOM     30  C   UNL     1      -4.278  12.821  22.133  0.00  0.00    +0.000 C 
ATOM     31  C   UNL     1      -3.367  12.822  23.360  0.00  0.00    +0.000 C 
ATOM     32  C   UNL     1      -4.202  12.630  24.629  0.00  0.00    +0.000 C 
ENDBRANCH  29  31
ENDBRANCH  28  29
ENDBRANCH   1  28
TORSDOF 12
ENDMDL
MODEL 3
REMARK VINA RESULT:      -7.0      2.560      3.835
REMARK  Name = 
REMARK  14 active torsions:
REMARK  status: ('A' for Active; 'I' for Inactive)
REMARK    1  A    between atoms: C_1  and  C_2
REMARK    2  A    between atoms: C_2  and  C_3
REMARK    3  A    between atoms: C_2  and  C_4
REMARK    4  A    between atoms: C_4  and  C_5
REMARK    5  A    between atoms: C_5  and  N_6
REMARK    6  A    between atoms: C_12  and  N_13
REMARK    7  A    between atoms: C_14  and  C_16
REMARK    8  A    between atoms: C_16  and  C_17
REMARK    9  A    between atoms: C_17  and  C_18
REMARK   10  A    between atoms: C_18  and  C_19
REMARK   11  A    between atoms: C_19  and  C_20
REMARK   12  A    between atoms: C_20  and  C_21
REMARK   13  A    between atoms: C_21  and  C_22
REMARK   14  A    between atoms: N_24  and  O_25
REMARK                            x       y       z     vdW  Elec       q    Type
REMARK                         _______ _______ _______ _____ _____    ______ ____
ROOT
ATOM      1  N   UNL     1       0.058  11.324  20.676  0.00  0.00    +0.000 N 
ATOM      2  C   UNL     1       0.454  11.582  19.375  0.00  0.00    +0.000 A 
ATOM      3  C   UNL     1       1.067  10.674  18.616  0.00  0.00    +0.000 A 
ATOM      4  C   UNL     1       1.389   9.375  19.185  0.00  0.00    +0.000 A 
ATOM      5  C   UNL     1       2.134   8.463  18.446  0.00  0.00    +0.000 A 
ATOM      6  C   UNL     1       2.474   7.228  18.996  0.00  0.00    +0.000 A 
ATOM      7  C   UNL     1       2.051   6.861  20.278  0.00  0.00    +0.000 A 
ATOM      8  C   UNL     1       1.298   7.780  21.023  0.00  0.00    +0.000 A 
ATOM      9  C   UNL     1       0.982   9.044  20.483  0.00  0.00    +0.000 A 
ATOM     10  C   UNL     1       0.266  10.075  21.290  0.00  0.00    +0.000 A 
ATOM     11  O   UNL     1      -0.088   9.804  22.438  0.00  0.00    +0.000 OA
ENDROOT
BRANCH   7  12
ATOM     12  N   UNL     1       2.380   5.614  20.864  0.00  0.00    +0.000 N 
ATOM     13  C   UNL     1       1.652   4.442  20.742  0.00  0.00    +0.000 C 
ATOM     14  O   UNL     1       0.581   4.305  20.153  0.00  0.00    +0.000 OA
ATOM     15  H   UNL     1       3.224   5.586  21.425  0.00  0.00    +0.000 HD
BRANCH  13  16
ATOM     16  C   UNL     1       2.300   3.233  21.382  0.00  0.00    +0.000 C 
BRANCH  16  17
ATOM     17  C   UNL     1       3.095   2.487  20.313  0.00  0.00    +0.000 C 
BRANCH  17  18
ATOM     18  C   UNL     1       2.218   2.037  19.150  0.00  0.00    +0.000 C 
BRANCH  18  19
ATOM     19  C   UNL     1       3.002   2.088  17.837  0.00  0.00    +0.000 C 
BRANCH  19  20
ATOM     20  C   UNL     1       4.211   3.011  17.957  0.00  0.00    +0.000 C 
BRANCH  20  21
ATOM     21  C   UNL     1       4.010   4.308  17.180  0.00  0.00    +0.000 C 
BRANCH  21  22
ATOM     22  C   UNL     1       5.336   4.925  16.790  0.00  0.00    +0.000 C 
ATOM     23  O   UNL     1       5.465   6.027  16.261  0.00  0.00    +0.000 OA
ATOM     24  N   UNL     1       6.420   4.135  17.086  0.00  0.00    +0.000 N 
ATOM     25  H   UNL     1       6.367   3.149  17.314  0.00  0.00    +0.000 HD
BRANCH  24  26
ATOM     26  O   UNL     1       7.674   4.631  16.662  0.00  0.00    +0.000 OA
ATOM     27  H   UNL     1       7.757   4.243  15.760  0.00  0.00    +0.000 HD
ENDBRANCH  24  26
ENDBRANCH  21  22
ENDBRANCH  20  21
ENDBRANCH  19  20
ENDBRANCH  18  19
ENDBRANCH  17  18
ENDBRANCH  16  17
ENDBRANCH  13  16
ENDBRANCH   7  12
BRANCH   1  28
ATOM     28  C   UNL     1      -0.549  12.417  21.442  0.00  0.00    +0.000 C 
BRANCH  28  29
ATOM     29  C   UNL     1      -2.021  12.685  21.094  0.00  0.00    +0.000 C 
BRANCH  29  31
ATOM     30  C   UNL     1      -4.399  12.743  21.981  0.00  0.00    +0.000 C 
ATOM     31  C   UNL     1      -2.923  12.960  22.310  0.00  0.00    +0.000 C 
ATOM     32  C   UNL     1      -2.512  12.063  23.479  0.00  0.00    +0.000 C 
ENDBRANCH  29  31
ENDBRANCH  28  29
ENDBRANCH   1  28
TORSDOF 12
ENDMDL
MODEL 4
REMARK VINA RESULT:      -7.0      1.117      1.431
REMARK  Name = 
REMARK  14 active torsions:
REMARK  status: ('A' for Active; 'I' for Inactive)
REMARK    1  A    between atoms: C_1  and  C_2
REMARK    2  A    between atoms: C_2  and  C_3
REMARK    3  A    between atoms: C_2  and  C_4
REMARK    4  A    between atoms: C_4  and  C_5
REMARK    5  A    between atoms: C_5  and  N_6
REMARK    6  A    between atoms: C_12  and  N_13
REMARK    7  A    between atoms: C_14  and  C_16
REMARK    8  A    between atoms: C_16  and  C_17
REMARK    9  A    between atoms: C_17  and  C_18
REMARK   10  A    between atoms: C_18  and  C_19
REMARK   11  A    between atoms: C_19  and  C_20
REMARK   12  A    between atoms: C_20  and  C_21
REMARK   13  A    between atoms: C_21  and  C_22
REMARK   14  A    between atoms: N_24  and  O_25
REMARK                            x       y       z     vdW  Elec       q    Type
REMARK                         _______ _______ _______ _____ _____    ______ ____
ROOT
ATOM      1  N   UNL     1       0.818   9.379  20.007  0.00  0.00    +0.000 N 
ATOM      2  C   UNL     1       0.325   8.758  21.141  0.00  0.00    +0.000 A 
ATOM      3  C   UNL     1       0.675   7.522  21.496  0.00  0.00    +0.000 A 
ATOM      4  C   UNL     1       1.570   6.765  20.635  0.00  0.00    +0.000 A 
ATOM      5  C   UNL     1       1.848   5.434  20.929  0.00  0.00    +0.000 A 
ATOM      6  C   UNL     1       2.679   4.692  20.091  0.00  0.00    +0.000 A 
ATOM      7  C   UNL     1       3.276   5.265  18.964  0.00  0.00    +0.000 A 
ATOM      8  C   UNL     1       2.997   6.608  18.668  0.00  0.00    +0.000 A 
ATOM      9  C   UNL     1       2.128   7.352  19.494  0.00  0.00    +0.000 A 
ATOM     10  C   UNL     1       1.740   8.751  19.149  0.00  0.00    +0.000 A 
ATOM     11  O   UNL     1       2.212   9.278  18.142  0.00  0.00    +0.000 OA
ENDROOT
BRANCH   7  12
ATOM     12  N   UNL     1       4.124   4.537  18.093  0.00  0.00    +0.000 N 
ATOM     13  C   UNL     1       3.716   3.783  17.005  0.00  0.00    +0.000 C 
ATOM     14  O   UNL     1       2.557   3.581  16.649  0.00  0.00    +0.000 OA
ATOM     15  H   UNL     1       5.117   4.574  18.294  0.00  0.00    +0.000 HD
BRANCH  13  16
ATOM     16  C   UNL     1       4.850   3.205  16.185  0.00  0.00    +0.000 C 
BRANCH  16  17
ATOM     17  C   UNL     1       5.200   4.196  15.078  0.00  0.00    +0.000 C 
BRANCH  17  18
ATOM     18  C   UNL     1       6.706   4.351  14.896  0.00  0.00    +0.000 C 
BRANCH  18  19
ATOM     19  C   UNL     1       7.377   4.667  16.234  0.00  0.00    +0.000 C 
BRANCH  19  20
ATOM     20  C   UNL     1       6.800   5.938  16.848  0.00  0.00    +0.000 C 
BRANCH  20  21
ATOM     21  C   UNL     1       7.714   6.510  17.929  0.00  0.00    +0.000 C 
BRANCH  21  22
ATOM     22  C   UNL     1       7.502   5.811  19.253  0.00  0.00    +0.000 C 
ATOM     23  O   UNL     1       6.406   5.491  19.707  0.00  0.00    +0.000 OA
ATOM     24  N   UNL     1       8.667   5.550  19.932  0.00  0.00    +0.000 N 
ATOM     25  H   UNL     1       9.562   5.974  19.720  0.00  0.00    +0.000 HD
BRANCH  24  26
ATOM     26  O   UNL     1       8.515   4.975  21.215  0.00  0.00    +0.000 OA
ATOM     27  H   UNL     1       9.449   4.888  21.515  0.00  0.00    +0.000 HD
ENDBRANCH  24  26
ENDBRANCH  21  22
ENDBRANCH  20  21
ENDBRANCH  19  20
ENDBRANCH  18  19
ENDBRANCH  17  18
ENDBRANCH  16  17
ENDBRANCH  13  16
ENDBRANCH   7  12
BRANCH   1  28
ATOM     28  C   UNL     1       0.313  10.716  19.677  0.00  0.00    +0.000 C 
BRANCH  28  29
ATOM     29  C   UNL     1      -1.163  10.740  19.253  0.00  0.00    +0.000 C 
BRANCH  29  31
ATOM     30  C   UNL     1      -2.947  11.638  17.686  0.00  0.00    +0.000 C 
ATOM     31  C   UNL     1      -1.454  11.593  18.006  0.00  0.00    +0.000 C 
ATOM     32  C   UNL     1      -0.921  13.013  18.209  0.00  0.00    +0.000 C 
ENDBRANCH  29  31
ENDBRANCH  28  29
ENDBRANCH   1  28
TORSDOF 12
ENDMDL
MODEL 5
REMARK VINA RESULT:      -6.9      2.811      3.873
REMARK  Name = 
REMARK  14 active torsions:
REMARK  status: ('A' for Active; 'I' for Inactive)
REMARK    1  A    between atoms: C_1  and  C_2
REMARK    2  A    between atoms: C_2  and  C_3
REMARK    3  A    between atoms: C_2  and  C_4
REMARK    4  A    between atoms: C_4  and  C_5
REMARK    5  A    between atoms: C_5  and  N_6
REMARK    6  A    between atoms: C_12  and  N_13
REMARK    7  A    between atoms: C_14  and  C_16
REMARK    8  A    between atoms: C_16  and  C_17
REMARK    9  A    between atoms: C_17  and  C_18
REMARK   10  A    between atoms: C_18  and  C_19
REMARK   11  A    between atoms: C_19  and  C_20
REMARK   12  A    between atoms: C_20  and  C_21
REMARK   13  A    between atoms: C_21  and  C_22
REMARK   14  A    between atoms: N_24  and  O_25
REMARK                            x       y       z     vdW  Elec       q    Type
REMARK                         _______ _______ _______ _____ _____    ______ ____
ROOT
ATOM      1  N   UNL     1      -0.375  11.121  21.721  0.00  0.00    +0.000 N 
ATOM      2  C   UNL     1      -0.274  11.690  20.463  0.00  0.00    +0.000 A 
ATOM      3  C   UNL     1       0.293  11.062  19.433  0.00  0.00    +0.000 A 
ATOM      4  C   UNL     1       0.882   9.749  19.639  0.00  0.00    +0.000 A 
ATOM      5  C   UNL     1       1.581   9.135  18.606  0.00  0.00    +0.000 A 
ATOM      6  C   UNL     1       2.176   7.890  18.806  0.00  0.00    +0.000 A 
ATOM      7  C   UNL     1       2.059   7.215  20.025  0.00  0.00    +0.000 A 
ATOM      8  C   UNL     1       1.351   7.833  21.068  0.00  0.00    +0.000 A 
ATOM      9  C   UNL     1       0.779   9.108  20.880  0.00  0.00    +0.000 A 
ATOM     10  C   UNL     1       0.105   9.828  22.000  0.00  0.00    +0.000 A 
ATOM     11  O   UNL     1       0.017   9.283  23.101  0.00  0.00    +0.000 OA
ENDROOT
BRANCH   7  12
ATOM     12  N   UNL     1       2.651   5.950  20.259  0.00  0.00    +0.000 N 
ATOM     13  C   UNL     1       1.974   4.749  20.401  0.00  0.00    +0.000 C 
ATOM     14  O   UNL     1       0.754   4.594  20.399  0.00  0.00    +0.000 OA
ATOM     15  H   UNL     1       3.662   5.930  20.332  0.00  0.00    +0.000 HD
BRANCH  13  16
ATOM     16  C   UNL     1       2.870   3.536  20.529  0.00  0.00    +0.000 C 
BRANCH  16  17
ATOM     17  C   UNL     1       2.587   2.599  19.358  0.00  0.00    +0.000 C 
BRANCH  17  18
ATOM     18  C   UNL     1       3.714   2.600  18.331  0.00  0.00    +0.000 C 
BRANCH  18  19
ATOM     19  C   UNL     1       3.359   3.503  17.148  0.00  0.00    +0.000 C 
BRANCH  19  20
ATOM     20  C   UNL     1       4.260   4.733  17.108  0.00  0.00    +0.000 C 
BRANCH  20  21
ATOM     21  C   UNL     1       5.527   4.531  17.934  0.00  0.00    +0.000 C 
BRANCH  21  22
ATOM     22  C   UNL     1       6.726   5.167  17.265  0.00  0.00    +0.000 C 
ATOM     23  O   UNL     1       7.681   4.545  16.807  0.00  0.00    +0.000 OA
ATOM     24  N   UNL     1       6.662   6.538  17.206  0.00  0.00    +0.000 N 
ATOM     25  H   UNL     1       6.023   7.107  17.749  0.00  0.00    +0.000 HD
BRANCH  24  26
ATOM     26  O   UNL     1       7.799   7.182  16.668  0.00  0.00    +0.000 OA
ATOM     27  H   UNL     1       8.169   7.643  17.456  0.00  0.00    +0.000 HD
ENDBRANCH  24  26
ENDBRANCH  21  22
ENDBRANCH  20  21
ENDBRANCH  19  20
ENDBRANCH  18  19
ENDBRANCH  17  18
ENDBRANCH  16  17
ENDBRANCH  13  16
ENDBRANCH   7  12
BRANCH   1  28
ATOM     28  C   UNL     1      -0.958  11.927  22.798  0.00  0.00    +0.000 C 
BRANCH  28  29
ATOM     29  C   UNL     1      -1.186  13.399  22.425  0.00  0.00    +0.000 C 
BRANCH  29  31
ATOM     30  C   UNL     1      -2.224  14.793  24.276  0.00  0.00    +0.000 C 
ATOM     31  C   UNL     1      -2.481  14.007  22.992  0.00  0.00    +0.000 C 
ATOM     32  C   UNL     1      -3.132  14.915  21.946  0.00  0.00    +0.000 C 
ENDBRANCH  29  31
ENDBRANCH  28  29
ENDBRANCH   1  28
TORSDOF 12
ENDMDL
MODEL 6
REMARK VINA RESULT:      -6.8      2.592      3.666
REMARK  Name = 
REMARK  14 active torsions:
REMARK  status: ('A' for Active; 'I' for Inactive)
REMARK    1  A    between atoms: C_1  and  C_2
REMARK    2  A    between atoms: C_2  and  C_3
REMARK    3  A    between atoms: C_2  and  C_4
REMARK    4  A    between atoms: C_4  and  C_5
REMARK    5  A    between atoms: C_5  and  N_6
REMARK    6  A    between atoms: C_12  and  N_13
REMARK    7  A    between atoms: C_14  and  C_16
REMARK    8  A    between atoms: C_16  and  C_17
REMARK    9  A    between atoms: C_17  and  C_18
REMARK   10  A    between atoms: C_18  and  C_19
REMARK   11  A    between atoms: C_19  and  C_20
REMARK   12  A    between atoms: C_20  and  C_21
REMARK   13  A    between atoms: C_21  and  C_22
REMARK   14  A    between atoms: N_24  and  O_25
REMARK                            x       y       z     vdW  Elec       q    Type
REMARK                         _______ _______ _______ _____ _____    ______ ____
ROOT
ATOM      1  N   UNL     1       0.114  11.338  20.751  0.00  0.00    +0.000 N 
ATOM      2  C   UNL     1       0.379  11.641  19.427  0.00  0.00    +0.000 A 
ATOM      3  C   UNL     1       0.932  10.768  18.585  0.00  0.00    +0.000 A 
ATOM      4  C   UNL     1       1.328   9.460  19.081  0.00  0.00    +0.000 A 
ATOM      5  C   UNL     1       2.015   8.584  18.246  0.00  0.00    +0.000 A 
ATOM      6  C   UNL     1       2.427   7.341  18.723  0.00  0.00    +0.000 A 
ATOM      7  C   UNL     1       2.135   6.929  20.027  0.00  0.00    +0.000 A 
ATOM      8  C   UNL     1       1.441   7.811  20.869  0.00  0.00    +0.000 A 
ATOM      9  C   UNL     1       1.054   9.083  20.401  0.00  0.00    +0.000 A 
ATOM     10  C   UNL     1       0.401  10.076  21.304  0.00  0.00    +0.000 A 
ATOM     11  O   UNL     1       0.164   9.765  22.471  0.00  0.00    +0.000 OA
ENDROOT
BRANCH   7  12
ATOM     12  N   UNL     1       2.539   5.672  20.540  0.00  0.00    +0.000 N 
ATOM     13  C   UNL     1       1.749   4.537  20.625  0.00  0.00    +0.000 C 
ATOM     14  O   UNL     1       0.561   4.449  20.320  0.00  0.00    +0.000 OA
ATOM     15  H   UNL     1       3.493   5.606  20.877  0.00  0.00    +0.000 HD
BRANCH  13  16
ATOM     16  C   UNL     1       2.478   3.302  21.112  0.00  0.00    +0.000 C 
BRANCH  16  17
ATOM     17  C   UNL     1       3.031   2.558  19.900  0.00  0.00    +0.000 C 
BRANCH  17  18
ATOM     18  C   UNL     1       4.550   2.647  19.810  0.00  0.00    +0.000 C 
BRANCH  18  19
ATOM     19  C   UNL     1       4.967   3.870  18.991  0.00  0.00    +0.000 C 
BRANCH  19  20
ATOM     20  C   UNL     1       4.452   3.771  17.559  0.00  0.00    +0.000 C 
BRANCH  20  21
ATOM     21  C   UNL     1       4.821   5.004  16.739  0.00  0.00    +0.000 C 
BRANCH  21  22
ATOM     22  C   UNL     1       6.207   4.873  16.146  0.00  0.00    +0.000 C 
ATOM     23  O   UNL     1       7.135   4.260  16.667  0.00  0.00    +0.000 OA
ATOM     24  N   UNL     1       6.353   5.513  14.939  0.00  0.00    +0.000 N 
ATOM     25  H   UNL     1       5.707   6.203  14.573  0.00  0.00    +0.000 HD
BRANCH  24  26
ATOM     26  O   UNL     1       7.654   5.493  14.387  0.00  0.00    +0.000 OA
ATOM     27  H   UNL     1       7.562   4.833  13.661  0.00  0.00    +0.000 HD
ENDBRANCH  24  26
ENDBRANCH  21  22
ENDBRANCH  20  21
ENDBRANCH  19  20
ENDBRANCH  18  19
ENDBRANCH  17  18
ENDBRANCH  16  17
ENDBRANCH  13  16
ENDBRANCH   7  12
BRANCH   1  28
ATOM     28  C   UNL     1      -0.435  12.397  21.605  0.00  0.00    +0.000 C 
BRANCH  28  29
ATOM     29  C   UNL     1      -1.500  13.265  20.919  0.00  0.00    +0.000 C 
BRANCH  29  31
ATOM     30  C   UNL     1      -3.450  14.123  22.300  0.00  0.00    +0.000 C 
ATOM     31  C   UNL     1      -2.939  13.003  21.396  0.00  0.00    +0.000 C 
ATOM     32  C   UNL     1      -3.867  12.842  20.190  0.00  0.00    +0.000 C 
ENDBRANCH  29  31
ENDBRANCH  28  29
ENDBRANCH   1  28
TORSDOF 12
ENDMDL
MODEL 7
REMARK VINA RESULT:      -6.8      4.369     10.017
REMARK  Name = 
REMARK  14 active torsions:
REMARK  status: ('A' for Active; 'I' for Inactive)
REMARK    1  A    between atoms: C_1  and  C_2
REMARK    2  A    between atoms: C_2  and  C_3
REMARK    3  A    between atoms: C_2  and  C_4
REMARK    4  A    between atoms: C_4  and  C_5
REMARK    5  A    between atoms: C_5  and  N_6
REMARK    6  A    between atoms: C_12  and  N_13
REMARK    7  A    between atoms: C_14  and  C_16
REMARK    8  A    between atoms: C_16  and  C_17
REMARK    9  A    between atoms: C_17  and  C_18
REMARK   10  A    between atoms: C_18  and  C_19
REMARK   11  A    between atoms: C_19  and  C_20
REMARK   12  A    between atoms: C_20  and  C_21
REMARK   13  A    between atoms: C_21  and  C_22
REMARK   14  A    between atoms: N_24  and  O_25
REMARK                            x       y       z     vdW  Elec       q    Type
REMARK                         _______ _______ _______ _____ _____    ______ ____
ROOT
ATOM      1  N   UNL     1       3.512   5.074  19.116  0.00  0.00    +0.000 N 
ATOM      2  C   UNL     1       3.910   5.662  17.929  0.00  0.00    +0.000 A 
ATOM      3  C   UNL     1       3.546   6.895  17.579  0.00  0.00    +0.000 A 
ATOM      4  C   UNL     1       2.650   7.643  18.446  0.00  0.00    +0.000 A 
ATOM      5  C   UNL     1       2.166   8.881  18.037  0.00  0.00    +0.000 A 
ATOM      6  C   UNL     1       1.281   9.589  18.848  0.00  0.00    +0.000 A 
ATOM      7  C   UNL     1       0.885   9.098  20.096  0.00  0.00    +0.000 A 
ATOM      8  C   UNL     1       1.374   7.849  20.510  0.00  0.00    +0.000 A 
ATOM      9  C   UNL     1       2.242   7.114  19.676  0.00  0.00    +0.000 A 
ATOM     10  C   UNL     1       2.699   5.744  20.050  0.00  0.00    +0.000 A 
ATOM     11  O   UNL     1       2.340   5.259  21.123  0.00  0.00    +0.000 OA
ENDROOT
BRANCH   7  12
ATOM     12  N   UNL     1      -0.013   9.794  20.942  0.00  0.00    +0.000 N 
ATOM     13  C   UNL     1       0.140   9.985  22.306  0.00  0.00    +0.000 C 
ATOM     14  O   UNL     1       1.045   9.541  23.009  0.00  0.00    +0.000 OA
ATOM     15  H   UNL     1      -0.840  10.180  20.504  0.00  0.00    +0.000 HD
BRANCH  13  16
ATOM     16  C   UNL     1      -0.918  10.865  22.937  0.00  0.00    +0.000 C 
BRANCH  16  17
ATOM     17  C   UNL     1      -0.759  12.281  22.388  0.00  0.00    +0.000 C 
BRANCH  17  18
ATOM     18  C   UNL     1      -2.053  13.082  22.470  0.00  0.00    +0.000 C 
BRANCH  18  19
ATOM     19  C   UNL     1      -2.890  12.877  21.205  0.00  0.00    +0.000 C 
BRANCH  19  20
ATOM     20  C   UNL     1      -4.380  12.868  21.530  0.00  0.00    +0.000 C 
BRANCH  20  21
ATOM     21  C   UNL     1      -4.663  13.472  22.903  0.00  0.00    +0.000 C 
BRANCH  21  22
ATOM     22  C   UNL     1      -5.497  12.539  23.752  0.00  0.00    +0.000 C 
ATOM     23  O   UNL     1      -5.126  12.037  24.811  0.00  0.00    +0.000 OA
ATOM     24  N   UNL     1      -6.744  12.288  23.234  0.00  0.00    +0.000 N 
ATOM     25  H   UNL     1      -7.021  12.489  22.280  0.00  0.00    +0.000 HD
BRANCH  24  26
ATOM     26  O   UNL     1      -7.529  11.353  23.948  0.00  0.00    +0.000 OA
ATOM     27  H   UNL     1      -7.865  11.894  24.699  0.00  0.00    +0.000 HD
ENDBRANCH  24  26
ENDBRANCH  21  22
ENDBRANCH  20  21
ENDBRANCH  19  20
ENDBRANCH  18  19
ENDBRANCH  17  18
ENDBRANCH  16  17
ENDBRANCH  13  16
ENDBRANCH   7  12
BRANCH   1  28
ATOM     28  C   UNL     1       3.916   3.687  19.369  0.00  0.00    +0.000 C 
BRANCH  28  29
ATOM     29  C   UNL     1       3.152   2.649  18.534  0.00  0.00    +0.000 C 
BRANCH  29  31
ATOM     30  C   UNL     1       2.046   2.150  20.764  0.00  0.00    +0.000 C 
ATOM     31  C   UNL     1       1.935   2.030  19.245  0.00  0.00    +0.000 C 
ATOM     32  C   UNL     1       0.650   2.704  18.761  0.00  0.00    +0.000 C 
ENDBRANCH  29  31
ENDBRANCH  28  29
ENDBRANCH   1  28
TORSDOF 12
ENDMDL
MODEL 8
REMARK VINA RESULT:      -6.8      2.894      4.877
REMARK  Name = 
REMARK  14 active torsions:
REMARK  status: ('A' for Active; 'I' for Inactive)
REMARK    1  A    between atoms: C_1  and  C_2
REMARK    2  A    between atoms: C_2  and  C_3
REMARK    3  A    between atoms: C_2  and  C_4
REMARK    4  A    between atoms: C_4  and  C_5
REMARK    5  A    between atoms: C_5  and  N_6
REMARK    6  A    between atoms: C_12  and  N_13
REMARK    7  A    between atoms: C_14  and  C_16
REMARK    8  A    between atoms: C_16  and  C_17
REMARK    9  A    between atoms: C_17  and  C_18
REMARK   10  A    between atoms: C_18  and  C_19
REMARK   11  A    between atoms: C_19  and  C_20
REMARK   12  A    between atoms: C_20  and  C_21
REMARK   13  A    between atoms: C_21  and  C_22
REMARK   14  A    between atoms: N_24  and  O_25
REMARK                            x       y       z     vdW  Elec       q    Type
REMARK                         _______ _______ _______ _____ _____    ______ ____
ROOT
ATOM      1  N   UNL     1      -0.756  11.385  21.713  0.00  0.00    +0.000 N 
ATOM      2  C   UNL     1      -1.280  11.849  20.519  0.00  0.00    +0.000 A 
ATOM      3  C   UNL     1      -0.947  11.331  19.337  0.00  0.00    +0.000 A 
ATOM      4  C   UNL     1       0.048  10.272  19.282  0.00  0.00    +0.000 A 
ATOM      5  C   UNL     1       0.493   9.806  18.049  0.00  0.00    +0.000 A 
ATOM      6  C   UNL     1       1.470   8.814  17.988  0.00  0.00    +0.000 A 
ATOM      7  C   UNL     1       1.999   8.240  19.149  0.00  0.00    +0.000 A 
ATOM      8  C   UNL     1       1.549   8.709  20.393  0.00  0.00    +0.000 A 
ATOM      9  C   UNL     1       0.587   9.738  20.458  0.00  0.00    +0.000 A 
ATOM     10  C   UNL     1       0.162  10.319  21.765  0.00  0.00    +0.000 A 
ATOM     11  O   UNL     1       0.636   9.869  22.808  0.00  0.00    +0.000 OA
ENDROOT
BRANCH   7  12
ATOM     12  N   UNL     1       2.992   7.230  19.119  0.00  0.00    +0.000 N 
ATOM     13  C   UNL     1       2.908   5.990  19.731  0.00  0.00    +0.000 C 
ATOM     14  O   UNL     1       1.987   5.585  20.438  0.00  0.00    +0.000 OA
ATOM     15  H   UNL     1       3.839   7.444  18.605  0.00  0.00    +0.000 HD
BRANCH  13  16
ATOM     16  C   UNL     1       4.072   5.067  19.437  0.00  0.00    +0.000 C 
BRANCH  16  17
ATOM     17  C   UNL     1       4.883   5.663  18.289  0.00  0.00    +0.000 C 
BRANCH  17  18
ATOM     18  C   UNL     1       4.641   4.935  16.972  0.00  0.00    +0.000 C 
BRANCH  18  19
ATOM     19  C   UNL     1       4.426   3.440  17.218  0.00  0.00    +0.000 C 
BRANCH  19  20
ATOM     20  C   UNL     1       2.960   3.061  17.035  0.00  0.00    +0.000 C 
BRANCH  20  21
ATOM     21  C   UNL     1       2.529   1.976  18.018  0.00  0.00    +0.000 C 
BRANCH  21  22
ATOM     22  C   UNL     1       1.404   2.457  18.907  0.00  0.00    +0.000 C 
ATOM     23  O   UNL     1       0.323   2.878  18.501  0.00  0.00    +0.000 OA
ATOM     24  N   UNL     1       1.690   2.382  20.249  0.00  0.00    +0.000 N 
ATOM     25  H   UNL     1       2.620   2.255  20.631  0.00  0.00    +0.000 HD
BRANCH  24  26
ATOM     26  O   UNL     1       0.703   2.900  21.117  0.00  0.00    +0.000 OA
ATOM     27  H   UNL     1       1.191   3.619  21.581  0.00  0.00    +0.000 HD
ENDBRANCH  24  26
ENDBRANCH  21  22
ENDBRANCH  20  21
ENDBRANCH  19  20
ENDBRANCH  18  19
ENDBRANCH  17  18
ENDBRANCH  16  17
ENDBRANCH  13  16
ENDBRANCH   7  12
BRANCH   1  28
ATOM     28  C   UNL     1      -1.142  12.072  22.950  0.00  0.00    +0.000 C 
BRANCH  28  29
ATOM     29  C   UNL     1      -2.594  11.821  23.380  0.00  0.00    +0.000 C 
BRANCH  29  31
ATOM     30  C   UNL     1      -2.458  14.267  24.046  0.00  0.00    +0.000 C 
ATOM     31  C   UNL     1      -3.384  13.094  23.730  0.00  0.00    +0.000 C 
ATOM     32  C   UNL     1      -4.318  13.463  22.575  0.00  0.00    +0.000 C 
ENDBRANCH  29  31
ENDBRANCH  28  29
ENDBRANCH   1  28
TORSDOF 12
ENDMDL
MODEL 9
REMARK VINA RESULT:      -6.8      3.005      3.955
REMARK  Name = 
REMARK  14 active torsions:
REMARK  status: ('A' for Active; 'I' for Inactive)
REMARK    1  A    between atoms: C_1  and  C_2
REMARK    2  A    between atoms: C_2  and  C_3
REMARK    3  A    between atoms: C_2  and  C_4
REMARK    4  A    between atoms: C_4  and  C_5
REMARK    5  A    between atoms: C_5  and  N_6
REMARK    6  A    between atoms: C_12  and  N_13
REMARK    7  A    between atoms: C_14  and  C_16
REMARK    8  A    between atoms: C_16  and  C_17
REMARK    9  A    between atoms: C_17  and  C_18
REMARK   10  A    between atoms: C_18  and  C_19
REMARK   11  A    between atoms: C_19  and  C_20
REMARK   12  A    between atoms: C_20  and  C_21
REMARK   13  A    between atoms: C_21  and  C_22
REMARK   14  A    between atoms: N_24  and  O_25
REMARK                            x       y       z     vdW  Elec       q    Type
REMARK                         _______ _______ _______ _____ _____    ______ ____
ROOT
ATOM      1  N   UNL     1      -0.341  11.239  21.424  0.00  0.00    +0.000 N 
ATOM      2  C   UNL     1      -0.263  11.721  20.129  0.00  0.00    +0.000 A 
ATOM      3  C   UNL     1       0.290  11.027  19.135  0.00  0.00    +0.000 A 
ATOM      4  C   UNL     1       0.889   9.732  19.421  0.00  0.00    +0.000 A 
ATOM      5  C   UNL     1       1.575   9.053  18.420  0.00  0.00    +0.000 A 
ATOM      6  C   UNL     1       2.179   7.827  18.695  0.00  0.00    +0.000 A 
ATOM      7  C   UNL     1       2.085   7.236  19.959  0.00  0.00    +0.000 A 
ATOM      8  C   UNL     1       1.391   7.921  20.968  0.00  0.00    +0.000 A 
ATOM      9  C   UNL     1       0.809   9.178  20.703  0.00  0.00    +0.000 A 
ATOM     10  C   UNL     1       0.150   9.970  21.783  0.00  0.00    +0.000 A 
ATOM     11  O   UNL     1       0.083   9.502  22.919  0.00  0.00    +0.000 OA
ENDROOT
BRANCH   7  12
ATOM     12  N   UNL     1       2.687   5.992  20.268  0.00  0.00    +0.000 N 
ATOM     13  C   UNL     1       2.433   4.786  19.635  0.00  0.00    +0.000 C 
ATOM     14  O   UNL     1       1.611   4.589  18.742  0.00  0.00    +0.000 OA
ATOM     15  H   UNL     1       3.361   5.991  21.026  0.00  0.00    +0.000 HD
BRANCH  13  16
ATOM     16  C   UNL     1       3.306   3.639  20.098  0.00  0.00    +0.000 C 
BRANCH  16  17
ATOM     17  C   UNL     1       4.477   3.500  19.128  0.00  0.00    +0.000 C 
BRANCH  17  18
ATOM     18  C   UNL     1       5.399   4.713  19.158  0.00  0.00    +0.000 C 
BRANCH  18  19
ATOM     19  C   UNL     1       5.647   5.232  17.740  0.00  0.00    +0.000 C 
BRANCH  19  20
ATOM     20  C   UNL     1       5.225   4.201  16.699  0.00  0.00    +0.000 C 
BRANCH  20  21
ATOM     21  C   UNL     1       5.467   4.701  15.277  0.00  0.00    +0.000 C 
BRANCH  21  22
ATOM     22  C   UNL     1       6.943   4.883  15.003  0.00  0.00    +0.000 C 
ATOM     23  O   UNL     1       7.842   4.582  15.785  0.00  0.00    +0.000 OA
ATOM     24  N   UNL     1       7.212   5.428  13.771  0.00  0.00    +0.000 N 
ATOM     25  H   UNL     1       6.527   5.890  13.185  0.00  0.00    +0.000 HD
BRANCH  24  26
ATOM     26  O   UNL     1       8.574   5.698  13.503  0.00  0.00    +0.000 OA
ATOM     27  H   UNL     1       9.016   5.358  14.314  0.00  0.00    +0.000 HD
ENDBRANCH  24  26
ENDBRANCH  21  22
ENDBRANCH  20  21
ENDBRANCH  19  20
ENDBRANCH  18  19
ENDBRANCH  17  18
ENDBRANCH  16  17
ENDBRANCH  13  16
ENDBRANCH   7  12
BRANCH   1  28
ATOM     28  C   UNL     1      -0.910  12.115  22.453  0.00  0.00    +0.000 C 
BRANCH  28  29
ATOM     29  C   UNL     1      -2.200  12.829  22.024  0.00  0.00    +0.000 C 
BRANCH  29  31
ATOM     30  C   UNL     1      -3.257  13.630  24.190  0.00  0.00    +0.000 C 
ATOM     31  C   UNL     1      -3.374  12.670  23.007  0.00  0.00    +0.000 C 
ATOM     32  C   UNL     1      -4.699  12.900  22.277  0.00  0.00    +0.000 C 
ENDBRANCH  29  31
ENDBRANCH  28  29
ENDBRANCH   1  28
TORSDOF 12
ENDMDL
