MODEL 1
REMARK VINA RESULT:      -7.5      0.000      0.000
REMARK  Name = 
REMARK  4 active torsions:
REMARK  status: ('A' for Active; 'I' for Inactive)
REMARK    1  A    between atoms: C_2  and  C_4
REMARK    2  A    between atoms: C_7  and  C_8
REMARK    3  A    between atoms: C_8  and  N_9
REMARK    4  A    between atoms: N_9  and  C_10
REMARK                            x       y       z     vdW  Elec       q    Type
REMARK                         _______ _______ _______ _____ _____    ______ ____
ROOT
ATOM      1  C   UNL     1       6.858   4.662  15.857  0.00  0.00    +0.000 C 
ENDROOT
BRANCH   1   5
ATOM      2  C   UNL     1       6.206   3.531  12.509  0.00  0.00    +0.000 A 
ATOM      3  C   UNL     1       7.207   4.418  12.164  0.00  0.00    +0.000 A 
ATOM      4  C   UNL     1       7.622   5.056  13.358  0.00  0.00    +0.000 A 
ATOM      5  C   UNL     1       6.864   4.513  14.374  0.00  0.00    +0.000 A 
ATOM      6  O   UNL     1       5.987   3.598  13.860  0.00  0.00    +0.000 OA
BRANCH   2   8
ATOM      7  N   UNL     1       6.057   1.414  11.447  0.00  0.00    +0.000 N 
ATOM      8  C   UNL     1       5.439   2.604  11.707  0.00  0.00    +0.000 C 
ATOM      9  O   UNL     1       4.315   2.822  11.265  0.00  0.00    +0.000 OA
ATOM     10  H   UNL     1       5.565   0.724  10.902  0.00  0.00    +0.000 HD
ATOM     11  H   UNL     1       6.975   1.213  11.821  0.00  0.00    +0.000 HD
ENDBRANCH   2   8
ENDBRANCH   1   5
BRANCH   1  12
ATOM     12  N   UNL     1       5.864   3.803  16.507  0.00  0.00    +0.000 NA
ATOM     13  H   UNL     1       6.243   3.463  17.389  0.00  0.00    +0.000 HD
BRANCH  12  14
ATOM     14  C   UNL     1       4.610   4.528  16.778  0.00  0.00    +0.000 C 
ATOM     15  C   UNL     1       4.871   5.982  17.260  0.00  0.00    +0.000 C 
ATOM     16  C   UNL     1       3.628   6.628  17.879  0.00  0.00    +0.000 C 
ATOM     17  C   UNL     1       3.172   5.870  19.128  0.00  0.00    +0.000 C 
ATOM     18  C   UNL     1       3.164   4.398  18.865  0.00  0.00    +0.000 A 
ATOM     19  S   UNL     1       2.337   3.324  19.894  0.00  0.00    +0.000 S 
ATOM     20  C   UNL     1       2.746   1.989  18.910  0.00  0.00    +0.000 A 
ATOM     21  C   UNL     1       3.517   2.358  17.828  0.00  0.00    +0.000 A 
ATOM     22  C   UNL     1       3.809   3.762  17.814  0.00  0.00    +0.000 A 
ENDBRANCH  12  14
ENDBRANCH   1  12
TORSDOF 4
ENDMDL
MODEL 2
REMARK VINA RESULT:      -7.2      2.112      2.492
REMARK  Name = 
REMARK  4 active torsions:
REMARK  status: ('A' for Active; 'I' for Inactive)
REMARK    1  A    between atoms: C_2  and  C_4
REMARK    2  A    between atoms: C_7  and  C_8
REMARK    3  A    between atoms: C_8  and  N_9
REMARK    4  A    between atoms: N_9  and  C_10
REMARK                            x       y       z     vdW  Elec       q    Type
REMARK                         _______ _______ _______ _____ _____    ______ ____
ROOT
ATOM      1  C   UNL     1       6.821   4.629  17.676  0.00  0.00    +0.000 C 
ENDROOT
BRANCH   1   5
ATOM      2  C   UNL     1       7.098   4.637  14.093  0.00  0.00    +0.000 A 
ATOM      3  C   UNL     1       5.974   3.837  14.144  0.00  0.00    +0.000 A 
ATOM      4  C   UNL     1       5.672   3.638  15.513  0.00  0.00    +0.000 A 
ATOM      5  C   UNL     1       6.619   4.340  16.228  0.00  0.00    +0.000 A 
ATOM      6  O   UNL     1       7.501   4.935  15.369  0.00  0.00    +0.000 OA
BRANCH   2   8
ATOM      7  N   UNL     1       8.892   5.973  13.300  0.00  0.00    +0.000 N 
ATOM      8  C   UNL     1       7.833   5.175  12.970  0.00  0.00    +0.000 C 
ATOM      9  O   UNL     1       7.565   4.966  11.791  0.00  0.00    +0.000 OA
ATOM     10  H   UNL     1       9.448   6.367  12.557  0.00  0.00    +0.000 HD
ATOM     11  H   UNL     1       9.136   6.139  14.267  0.00  0.00    +0.000 HD
ENDBRANCH   2   8
ENDBRANCH   1   5
BRANCH   1  12
ATOM     12  N   UNL     1       5.793   4.016  18.523  0.00  0.00    +0.000 NA
ATOM     13  H   UNL     1       6.092   4.063  19.496  0.00  0.00    +0.000 HD
BRANCH  12  14
ATOM     14  C   UNL     1       4.496   4.703  18.392  0.00  0.00    +0.000 C 
ATOM     15  C   UNL     1       4.359   5.881  19.396  0.00  0.00    +0.000 C 
ATOM     16  C   UNL     1       2.915   6.376  19.527  0.00  0.00    +0.000 C 
ATOM     17  C   UNL     1       1.999   5.278  20.074  0.00  0.00    +0.000 C 
ATOM     18  C   UNL     1       2.259   3.988  19.362  0.00  0.00    +0.000 A 
ATOM     19  S   UNL     1       1.151   2.698  19.448  0.00  0.00    +0.000 S 
ATOM     20  C   UNL     1       2.102   1.748  18.392  0.00  0.00    +0.000 A 
ATOM     21  C   UNL     1       3.252   2.400  18.001  0.00  0.00    +0.000 A 
ATOM     22  C   UNL     1       3.380   3.697  18.600  0.00  0.00    +0.000 A 
ENDBRANCH  12  14
ENDBRANCH   1  12
TORSDOF 4
ENDMDL
MODEL 3
REMARK VINA RESULT:      -7.2      2.225      3.395
REMARK  Name = 
REMARK  4 active torsions:
REMARK  status: ('A' for Active; 'I' for Inactive)
REMARK    1  A    between atoms: C_2  and  C_4
REMARK    2  A    between atoms: C_7  and  C_8
REMARK    3  A    between atoms: C_8  and  N_9
REMARK    4  A    between atoms: N_9  and  C_10
REMARK                            x       y       z     vdW  Elec       q    Type
REMARK                         _______ _______ _______ _____ _____    ______ ____
ROOT
ATOM      1  C   UNL     1       4.703   6.680  18.211  0.00  0.00    +0.000 C 
ENDROOT
BRANCH   1   5
ATOM      2  C   UNL     1       6.850   5.007  15.866  0.00  0.00    +0.000 A 
ATOM      3  C   UNL     1       7.447   4.486  16.997  0.00  0.00    +0.000 A 
ATOM      4  C   UNL     1       6.781   5.052  18.111  0.00  0.00    +0.000 A 
ATOM      5  C   UNL     1       5.801   5.877  17.603  0.00  0.00    +0.000 A 
ATOM      6  O   UNL     1       5.850   5.868  16.236  0.00  0.00    +0.000 OA
BRANCH   2   8
ATOM      7  N   UNL     1       6.444   3.698  13.929  0.00  0.00    +0.000 N 
ATOM      8  C   UNL     1       7.102   4.769  14.462  0.00  0.00    +0.000 C 
ATOM      9  O   UNL     1       7.846   5.446  13.758  0.00  0.00    +0.000 OA
ATOM     10  H   UNL     1       6.573   3.491  12.951  0.00  0.00    +0.000 HD
ATOM     11  H   UNL     1       5.813   3.143  14.492  0.00  0.00    +0.000 HD
ENDBRANCH   2   8
ENDBRANCH   1   5
BRANCH   1  12
ATOM     12  N   UNL     1       3.444   6.569  17.469  0.00  0.00    +0.000 NA
ATOM     13  H   UNL     1       3.570   5.918  16.695  0.00  0.00    +0.000 HD
BRANCH  12  14
ATOM     14  C   UNL     1       2.346   6.081  18.323  0.00  0.00    +0.000 C 
ATOM     15  C   UNL     1       2.416   6.677  19.757  0.00  0.00    +0.000 C 
ATOM     16  C   UNL     1       1.520   5.930  20.748  0.00  0.00    +0.000 C 
ATOM     17  C   UNL     1       1.957   4.471  20.902  0.00  0.00    +0.000 C 
ATOM     18  C   UNL     1       2.210   3.864  19.558  0.00  0.00    +0.000 A 
ATOM     19  S   UNL     1       2.315   2.176  19.361  0.00  0.00    +0.000 S 
ATOM     20  C   UNL     1       2.521   2.338  17.672  0.00  0.00    +0.000 A 
ATOM     21  C   UNL     1       2.530   3.658  17.274  0.00  0.00    +0.000 A 
ATOM     22  C   UNL     1       2.395   4.566  18.377  0.00  0.00    +0.000 A 
ENDBRANCH  12  14
ENDBRANCH   1  12
TORSDOF 4
ENDMDL
MODEL 4
REMARK VINA RESULT:      -7.0      5.819      8.865
REMARK  Name = 
REMARK  4 active torsions:
REMARK  status: ('A' for Active; 'I' for Inactive)
REMARK    1  A    between atoms: C_2  and  C_4
REMARK    2  A    between atoms: C_7  and  C_8
REMARK    3  A    between atoms: C_8  and  N_9
REMARK    4  A    between atoms: N_9  and  C_10
REMARK                            x       y       z     vdW  Elec       q    Type
REMARK                         _______ _______ _______ _____ _____    ______ ____
ROOT
ATOM      1  C   UNL     1       1.985   8.020  19.231  0.00  0.00    +0.000 C 
ENDROOT
BRANCH   1   5
ATOM      2  C   UNL     1       0.031   9.979  21.524  0.00  0.00    +0.000 A 
ATOM      3  C   UNL     1      -0.444  10.589  20.380  0.00  0.00    +0.000 A 
ATOM      4  C   UNL     1       0.235   9.999  19.286  0.00  0.00    +0.000 A 
ATOM      5  C   UNL     1       1.079   9.047  19.818  0.00  0.00    +0.000 A 
ATOM      6  O   UNL     1       0.973   9.043  21.181  0.00  0.00    +0.000 OA
BRANCH   2   8
ATOM      7  N   UNL     1      -1.402  10.962  23.139  0.00  0.00    +0.000 N 
ATOM      8  C   UNL     1      -0.317  10.163  22.915  0.00  0.00    +0.000 C 
ATOM      9  O   UNL     1       0.286   9.666  23.861  0.00  0.00    +0.000 OA
ATOM     10  H   UNL     1      -1.699  11.117  24.090  0.00  0.00    +0.000 HD
ATOM     11  H   UNL     1      -1.920  11.363  22.369  0.00  0.00    +0.000 HD
ENDBRANCH   2   8
ENDBRANCH   1   5
BRANCH   1  12
ATOM     12  N   UNL     1       2.434   7.033  20.217  0.00  0.00    +0.000 NA
ATOM     13  H   UNL     1       1.622   6.653  20.701  0.00  0.00    +0.000 HD
BRANCH  12  14
ATOM     14  C   UNL     1       3.170   5.924  19.584  0.00  0.00    +0.000 C 
ATOM     15  C   UNL     1       3.457   6.198  18.082  0.00  0.00    +0.000 C 
ATOM     16  C   UNL     1       3.894   4.939  17.328  0.00  0.00    +0.000 C 
ATOM     17  C   UNL     1       2.791   3.876  17.336  0.00  0.00    +0.000 C 
ATOM     18  C   UNL     1       2.223   3.733  18.711  0.00  0.00    +0.000 A 
ATOM     19  S   UNL     1       1.282   2.380  19.138  0.00  0.00    +0.000 S 
ATOM     20  C   UNL     1       1.126   2.935  20.746  0.00  0.00    +0.000 A 
ATOM     21  C   UNL     1       1.763   4.141  20.944  0.00  0.00    +0.000 A 
ATOM     22  C   UNL     1       2.372   4.644  19.746  0.00  0.00    +0.000 A 
ENDBRANCH  12  14
ENDBRANCH   1  12
TORSDOF 4
ENDMDL
MODEL 5
REMARK VINA RESULT:      -6.9      3.915      5.752
REMARK  Name = 
REMARK  4 active torsions:
REMARK  status: ('A' for Active; 'I' for Inactive)
REMARK    1  A    between atoms: C_2  and  C_4
REMARK    2  A    between atoms: C_7  and  C_8
REMARK    3  A    between atoms: C_8  and  N_9
REMARK    4  A    between atoms: N_9  and  C_10
REMARK                            x       y       z     vdW  Elec       q    Type
REMARK                         _______ _______ _______ _____ _____    ______ ____
ROOT
ATOM      1  C   UNL     1       3.118   5.116  19.721  0.00  0.00    +0.000 C 
ENDROOT
BRANCH   1   5
ATOM      2  C   UNL     1       5.766   4.666  17.334  0.00  0.00    +0.000 A 
ATOM      3  C   UNL     1       4.811   3.976  16.615  0.00  0.00    +0.000 A 
ATOM      4  C   UNL     1       3.630   3.970  17.396  0.00  0.00    +0.000 A 
ATOM      5  C   UNL     1       3.921   4.672  18.547  0.00  0.00    +0.000 A 
ATOM      6  O   UNL     1       5.225   5.082  18.523  0.00  0.00    +0.000 OA
BRANCH   2   8
ATOM      7  N   UNL     1       7.347   6.297  16.648  0.00  0.00    +0.000 N 
ATOM      8  C   UNL     1       7.137   4.999  17.020  0.00  0.00    +0.000 C 
ATOM      9  O   UNL     1       8.079   4.213  17.063  0.00  0.00    +0.000 OA
ATOM     10  H   UNL     1       8.286   6.590  16.429  0.00  0.00    +0.000 HD
ATOM     11  H   UNL     1       6.584   6.961  16.627  0.00  0.00    +0.000 HD
ENDBRANCH   2   8
ENDBRANCH   1   5
BRANCH   1  12
ATOM     12  N   UNL     1       3.214   6.560  19.957  0.00  0.00    +0.000 NA
ATOM     13  H   UNL     1       4.115   6.893  19.618  0.00  0.00    +0.000 HD
BRANCH  12  14
ATOM     14  C   UNL     1       2.144   7.299  19.264  0.00  0.00    +0.000 C 
ATOM     15  C   UNL     1       2.673   8.050  18.011  0.00  0.00    +0.000 C 
ATOM     16  C   UNL     1       1.681   9.092  17.488  0.00  0.00    +0.000 C 
ATOM     17  C   UNL     1       1.423  10.185  18.529  0.00  0.00    +0.000 C 
ATOM     18  C   UNL     1       1.186   9.573  19.872  0.00  0.00    +0.000 A 
ATOM     19  S   UNL     1       0.485  10.471  21.137  0.00  0.00    +0.000 S 
ATOM     20  C   UNL     1       0.508   9.116  22.177  0.00  0.00    +0.000 A 
ATOM     21  C   UNL     1       1.061   8.007  21.573  0.00  0.00    +0.000 A 
ATOM     22  C   UNL     1       1.506   8.273  20.236  0.00  0.00    +0.000 A 
ENDBRANCH  12  14
ENDBRANCH   1  12
TORSDOF 4
ENDMDL
MODEL 6
REMARK VINA RESULT:      -6.7      2.141      3.601
REMARK  Name = 
REMARK  4 active torsions:
REMARK  status: ('A' for Active; 'I' for Inactive)
REMARK    1  A    between atoms: C_2  and  C_4
REMARK    2  A    between atoms: C_7  and  C_8
REMARK    3  A    between atoms: C_8  and  N_9
REMARK    4  A    between atoms: N_9  and  C_10
REMARK                            x       y       z     vdW  Elec       q    Type
REMARK                         _______ _______ _______ _____ _____    ______ ____
ROOT
ATOM      1  C   UNL     1       4.141   6.718  17.607  0.00  0.00    +0.000 C 
ENDROOT
BRANCH   1   5
ATOM      2  C   UNL     1       6.580   5.065  15.551  0.00  0.00    +0.000 A 
ATOM      3  C   UNL     1       7.132   4.682  16.757  0.00  0.00    +0.000 A 
ATOM      4  C   UNL     1       6.344   5.269  17.776  0.00  0.00    +0.000 A 
ATOM      5  C   UNL     1       5.340   5.969  17.139  0.00  0.00    +0.000 A 
ATOM      6  O   UNL     1       5.490   5.863  15.784  0.00  0.00    +0.000 OA
BRANCH   2   8
ATOM      7  N   UNL     1       7.912   5.555  13.649  0.00  0.00    +0.000 N 
ATOM      8  C   UNL     1       6.953   4.747  14.191  0.00  0.00    +0.000 C 
ATOM      9  O   UNL     1       6.471   3.834  13.526  0.00  0.00    +0.000 OA
ATOM     10  H   UNL     1       8.220   5.373  12.707  0.00  0.00    +0.000 HD
ATOM     11  H   UNL     1       8.331   6.299  14.191  0.00  0.00    +0.000 HD
ENDBRANCH   2   8
ENDBRANCH   1   5
BRANCH   1  12
ATOM     12  N   UNL     1       2.940   5.879  17.671  0.00  0.00    +0.000 NA
ATOM     13  H   UNL     1       2.473   5.897  16.766  0.00  0.00    +0.000 HD
BRANCH  12  14
ATOM     14  C   UNL     1       3.266   4.481  18.007  0.00  0.00    +0.000 C 
ATOM     15  C   UNL     1       2.742   3.488  16.933  0.00  0.00    +0.000 C 
ATOM     16  C   UNL     1       2.751   2.036  17.422  0.00  0.00    +0.000 C 
ATOM     17  C   UNL     1       1.824   1.849  18.626  0.00  0.00    +0.000 C 
ATOM     18  C   UNL     1       2.040   2.947  19.619  0.00  0.00    +0.000 A 
ATOM     19  S   UNL     1       1.470   2.812  21.217  0.00  0.00    +0.000 S 
ATOM     20  C   UNL     1       2.149   4.322  21.638  0.00  0.00    +0.000 A 
ATOM     21  C   UNL     1       2.779   4.924  20.570  0.00  0.00    +0.000 A 
ATOM     22  C   UNL     1       2.683   4.149  19.366  0.00  0.00    +0.000 A 
ENDBRANCH  12  14
ENDBRANCH   1  12
TORSDOF 4
ENDMDL
MODEL 7
REMARK VINA RESULT:      -6.7      3.477      5.143
REMARK  Name = 
REMARK  4 active torsions:
REMARK  status: ('A' for Active; 'I' for Inactive)
REMARK    1  A    between atoms: C_2  and  C_4
REMARK    2  A    between atoms: C_7  and  C_8
REMARK    3  A    between atoms: C_8  and  N_9
REMARK    4  A    between atoms: N_9  and  C_10
REMARK                            x       y       z     vdW  Elec       q    Type
REMARK                         _______ _______ _______ _____ _____    ______ ____
ROOT
ATOM      1  C   UNL     1       4.552   3.653  16.533  0.00  0.00    +0.000 C 
ENDROOT
BRANCH   1   5
ATOM      2  C   UNL     1       6.811   6.167  17.754  0.00  0.00    +0.000 A 
ATOM      3  C   UNL     1       6.221   6.964  16.793  0.00  0.00    +0.000 A 
ATOM      4  C   UNL     1       5.280   6.158  16.109  0.00  0.00    +0.000 A 
ATOM      5  C   UNL     1       5.332   4.912  16.699  0.00  0.00    +0.000 A 
ATOM      6  O   UNL     1       6.275   4.907  17.689  0.00  0.00    +0.000 OA
BRANCH   2   8
ATOM      7  N   UNL     1       7.931   5.540  19.749  0.00  0.00    +0.000 N 
ATOM      8  C   UNL     1       7.816   6.464  18.750  0.00  0.00    +0.000 C 
ATOM      9  O   UNL     1       8.535   7.459  18.747  0.00  0.00    +0.000 OA
ATOM     10  H   UNL     1       8.624   5.689  20.466  0.00  0.00    +0.000 HD
ATOM     11  H   UNL     1       7.359   4.706  19.754  0.00  0.00    +0.000 HD
ENDBRANCH   2   8
ENDBRANCH   1   5
BRANCH   1  12
ATOM     12  N   UNL     1       3.189   3.760  17.061  0.00  0.00    +0.000 NA
ATOM     13  H   UNL     1       2.609   3.038  16.634  0.00  0.00    +0.000 HD
BRANCH  12  14
ATOM     14  C   UNL     1       3.154   3.592  18.524  0.00  0.00    +0.000 C 
ATOM     15  C   UNL     1       2.267   2.388  18.950  0.00  0.00    +0.000 C 
ATOM     16  C   UNL     1       1.930   2.406  20.444  0.00  0.00    +0.000 C 
ATOM     17  C   UNL     1       1.119   3.650  20.815  0.00  0.00    +0.000 C 
ATOM     18  C   UNL     1       1.731   4.868  20.199  0.00  0.00    +0.000 A 
ATOM     19  S   UNL     1       1.317   6.429  20.737  0.00  0.00    +0.000 S 
ATOM     20  C   UNL     1       2.423   7.149  19.652  0.00  0.00    +0.000 A 
ATOM     21  C   UNL     1       3.079   6.213  18.881  0.00  0.00    +0.000 A 
ATOM     22  C   UNL     1       2.648   4.873  19.159  0.00  0.00    +0.000 A 
ENDBRANCH  12  14
ENDBRANCH   1  12
TORSDOF 4
ENDMDL
MODEL 8
REMARK VINA RESULT:      -6.7      5.831      7.766
REMARK  Name = 
REMARK  4 active torsions:
REMARK  status: ('A' for Active; 'I' for Inactive)
REMARK    1  A    between atoms: C_2  and  C_4
REMARK    2  A    between atoms: C_7  and  C_8
REMARK    3  A    between atoms: C_8  and  N_9
REMARK    4  A    between atoms: N_9  and  C_10
REMARK                            x       y       z     vdW  Elec       q    Type
REMARK                         _______ _______ _______ _____ _____    ______ ____
ROOT
ATOM      1  C   UNL     1       2.534   6.773  19.645  0.00  0.00    +0.000 C 
ENDROOT
BRANCH   1   5
ATOM      2  C   UNL     1       3.231   3.277  20.095  0.00  0.00    +0.000 A 
ATOM      3  C   UNL     1       1.994   3.252  20.708  0.00  0.00    +0.000 A 
ATOM      4  C   UNL     1       1.503   4.580  20.700  0.00  0.00    +0.000 A 
ATOM      5  C   UNL     1       2.460   5.345  20.067  0.00  0.00    +0.000 A 
ATOM      6  O   UNL     1       3.523   4.560  19.714  0.00  0.00    +0.000 OA
BRANCH   2   8
ATOM      7  N   UNL     1       3.961   1.562  18.627  0.00  0.00    +0.000 N 
ATOM      8  C   UNL     1       4.171   2.216  19.806  0.00  0.00    +0.000 C 
ATOM      9  O   UNL     1       5.102   1.886  20.535  0.00  0.00    +0.000 OA
ATOM     10  H   UNL     1       4.593   0.820  18.367  0.00  0.00    +0.000 HD
ATOM     11  H   UNL     1       3.210   1.835  18.007  0.00  0.00    +0.000 HD
ENDBRANCH   2   8
ENDBRANCH   1   5
BRANCH   1  12
ATOM     12  N   UNL     1       1.953   7.685  20.635  0.00  0.00    +0.000 NA
ATOM     13  H   UNL     1       2.680   8.311  20.977  0.00  0.00    +0.000 HD
BRANCH  12  14
ATOM     14  C   UNL     1       0.863   8.493  20.061  0.00  0.00    +0.000 C 
ATOM     15  C   UNL     1       1.349   9.358  18.865  0.00  0.00    +0.000 C 
ATOM     16  C   UNL     1       0.346  10.451  18.485  0.00  0.00    +0.000 C 
ATOM     17  C   UNL     1       0.140  11.441  19.635  0.00  0.00    +0.000 C 
ATOM     18  C   UNL     1      -0.049  10.703  20.922  0.00  0.00    +0.000 A 
ATOM     19  S   UNL     1      -0.691  11.479  22.295  0.00  0.00    +0.000 S 
ATOM     20  C   UNL     1      -0.639  10.029  23.198  0.00  0.00    +0.000 A 
ATOM     21  C   UNL     1      -0.120   8.981  22.469  0.00  0.00    +0.000 A 
ATOM     22  C   UNL     1       0.274   9.373  21.146  0.00  0.00    +0.000 A 
ENDBRANCH  12  14
ENDBRANCH   1  12
TORSDOF 4
ENDMDL
MODEL 9
REMARK VINA RESULT:      -6.7      2.116      2.763
REMARK  Name = 
REMARK  4 active torsions:
REMARK  status: ('A' for Active; 'I' for Inactive)
REMARK    1  A    between atoms: C_2  and  C_4
REMARK    2  A    between atoms: C_7  and  C_8
REMARK    3  A    between atoms: C_8  and  N_9
REMARK    4  A    between atoms: N_9  and  C_10
REMARK                            x       y       z     vdW  Elec       q    Type
REMARK                         _______ _______ _______ _____ _____    ______ ____
ROOT
ATOM      1  C   UNL     1       5.683   6.012  17.368  0.00  0.00    +0.000 C 
ENDROOT
BRANCH   1   5
ATOM      2  C   UNL     1       6.917   4.935  14.170  0.00  0.00    +0.000 A 
ATOM      3  C   UNL     1       6.012   3.904  14.325  0.00  0.00    +0.000 A 
ATOM      4  C   UNL     1       5.396   4.081  15.588  0.00  0.00    +0.000 A 
ATOM      5  C   UNL     1       5.946   5.222  16.133  0.00  0.00    +0.000 A 
ATOM      6  O   UNL     1       6.886   5.735  15.282  0.00  0.00    +0.000 OA
BRANCH   2   8
ATOM      7  N   UNL     1       7.453   4.737  11.867  0.00  0.00    +0.000 N 
ATOM      8  C   UNL     1       7.802   5.268  13.076  0.00  0.00    +0.000 C 
ATOM      9  O   UNL     1       8.806   5.966  13.174  0.00  0.00    +0.000 OA
ATOM     10  H   UNL     1       8.027   4.945  11.065  0.00  0.00    +0.000 HD
ATOM     11  H   UNL     1       6.618   4.175  11.768  0.00  0.00    +0.000 HD
ENDBRANCH   2   8
ENDBRANCH   1   5
BRANCH   1  12
ATOM     12  N   UNL     1       5.092   5.204  18.439  0.00  0.00    +0.000 NA
ATOM     13  H   UNL     1       5.545   5.438  19.322  0.00  0.00    +0.000 HD
BRANCH  12  14
ATOM     14  C   UNL     1       3.644   5.446  18.572  0.00  0.00    +0.000 C 
ATOM     15  C   UNL     1       3.306   6.266  19.847  0.00  0.00    +0.000 C 
ATOM     16  C   UNL     1       1.815   6.227  20.193  0.00  0.00    +0.000 C 
ATOM     17  C   UNL     1       1.354   4.800  20.502  0.00  0.00    +0.000 C 
ATOM     18  C   UNL     1       1.882   3.853  19.472  0.00  0.00    +0.000 A 
ATOM     19  S   UNL     1       1.232   2.288  19.301  0.00  0.00    +0.000 S 
ATOM     20  C   UNL     1       2.262   1.953  17.979  0.00  0.00    +0.000 A 
ATOM     21  C   UNL     1       3.099   3.010  17.692  0.00  0.00    +0.000 A 
ATOM     22  C   UNL     1       2.919   4.115  18.590  0.00  0.00    +0.000 A 
ENDBRANCH  12  14
ENDBRANCH   1  12
TORSDOF 4
ENDMDL
