MODEL 1
REMARK VINA RESULT:      -8.0      0.000      0.000
REMARK  Name = 
REMARK  11 active torsions:
REMARK  status: ('A' for Active; 'I' for Inactive)
REMARK    1  A    between atoms: C_1  and  C_2
REMARK    2  A    between atoms: C_6  and  C_7
REMARK    3  A    between atoms: C_8  and  O_9
REMARK    4  A    between atoms: O_9  and  C_10
REMARK    5  A    between atoms: C_10  and  C_11
REMARK    6  A    between atoms: C_11  and  O_13
REMARK    7  A    between atoms: O_13  and  C_14
REMARK    8  A    between atoms: C_14  and  C_15
REMARK    9  A    between atoms: C_15  and  O_16
REMARK   10  A    between atoms: C_17  and  C_18
REMARK   11  A    between atoms: C_17  and  C_20
REMARK                            x       y       z     vdW  Elec       q    Type
REMARK                         _______ _______ _______ _____ _____    ______ ____
ROOT
ATOM      1  C   UNL     1       4.651   3.943  18.209  0.00  0.00    +0.000 C 
ATOM      2  C   UNL     1       5.834   4.477  17.812  0.00  0.00    +0.000 C 
ENDROOT
BRANCH   2   3
ATOM      3  C   UNL     1       6.247   4.556  16.451  0.00  0.00    +0.000 A 
ATOM      4  N   UNL     1       7.103   5.383  15.879  0.00  0.00    +0.000 NA
ATOM      5  C   UNL     1       7.146   5.033  14.551  0.00  0.00    +0.000 A 
ATOM      6  C   UNL     1       7.907   5.570  13.505  0.00  0.00    +0.000 A 
ATOM      7  C   UNL     1       7.764   5.028  12.222  0.00  0.00    +0.000 A 
ATOM      8  C   UNL     1       6.878   3.973  11.987  0.00  0.00    +0.000 A 
ATOM      9  C   UNL     1       6.114   3.419  13.020  0.00  0.00    +0.000 A 
ATOM     10  C   UNL     1       6.285   3.974  14.291  0.00  0.00    +0.000 A 
ATOM     11  N   UNL     1       5.742   3.683  15.510  0.00  0.00    +0.000 N 
ATOM     12  H   UNL     1       5.080   2.943  15.715  0.00  0.00    +0.000 HD
ENDBRANCH   2   3
BRANCH   1  13
ATOM     13  O   UNL     1       3.714   3.468  17.295  0.00  0.00    +0.000 OA
ATOM     14  H   UNL     1       3.591   2.513  17.470  0.00  0.00    +0.000 HD
ENDBRANCH   1  13
BRANCH   2  15
ATOM     15  C   UNL     1       6.779   5.010  18.876  0.00  0.00    +0.000 C 
ATOM     16  N   UNL     1       7.564   5.452  19.759  0.00  0.00    +0.000 NA
ENDBRANCH   2  15
BRANCH   1  17
ATOM     17  C   UNL     1       4.264   3.831  19.674  0.00  0.00    +0.000 C 
BRANCH  17  18
ATOM     18  O   UNL     1       2.870   3.518  19.818  0.00  0.00    +0.000 OA
BRANCH  18  19
ATOM     19  C   UNL     1       2.275   4.164  20.868  0.00  0.00    +0.000 C 
ATOM     20  O   UNL     1       2.364   3.788  22.043  0.00  0.00    +0.000 OA
BRANCH  19  21
ATOM     21  C   UNL     1       1.579   5.437  20.414  0.00  0.00    +0.000 C 
BRANCH  21  22
ATOM     22  O   UNL     1       2.410   6.580  20.353  0.00  0.00    +0.000 OA
BRANCH  22  30
ATOM     23  C   UNL     1       0.627   8.662  21.939  0.00  0.00    +0.000 C 
ATOM     24  C   UNL     1       1.124   8.736  20.521  0.00  0.00    +0.000 A 
ATOM     25  C   UNL     1       0.738   9.903  19.820  0.00  0.00    +0.000 A 
ATOM     26  C   UNL     1       1.121  10.132  18.505  0.00  0.00    +0.000 A 
ATOM     27  C   UNL     1       1.906   9.195  17.855  0.00  0.00    +0.000 A 
ATOM     28  C   UNL     1       2.312   8.021  18.515  0.00  0.00    +0.000 A 
ATOM     29  C   UNL     1       3.168   7.050  17.742  0.00  0.00    +0.000 C 
ATOM     30  C   UNL     1       1.925   7.773  19.861  0.00  0.00    +0.000 A 
ENDBRANCH  22  30
ENDBRANCH  21  22
ENDBRANCH  19  21
ENDBRANCH  18  19
ENDBRANCH  17  18
ENDBRANCH   1  17
TORSDOF 9
ENDMDL
MODEL 2
REMARK VINA RESULT:      -7.8      0.817      1.438
REMARK  Name = 
REMARK  11 active torsions:
REMARK  status: ('A' for Active; 'I' for Inactive)
REMARK    1  A    between atoms: C_1  and  C_2
REMARK    2  A    between atoms: C_6  and  C_7
REMARK    3  A    between atoms: C_8  and  O_9
REMARK    4  A    between atoms: O_9  and  C_10
REMARK    5  A    between atoms: C_10  and  C_11
REMARK    6  A    between atoms: C_11  and  O_13
REMARK    7  A    between atoms: O_13  and  C_14
REMARK    8  A    between atoms: C_14  and  C_15
REMARK    9  A    between atoms: C_15  and  O_16
REMARK   10  A    between atoms: C_17  and  C_18
REMARK   11  A    between atoms: C_17  and  C_20
REMARK                            x       y       z     vdW  Elec       q    Type
REMARK                         _______ _______ _______ _____ _____    ______ ____
ROOT
ATOM      1  C   UNL     1       4.689   4.101  18.020  0.00  0.00    +0.000 C 
ATOM      2  C   UNL     1       5.876   4.481  17.486  0.00  0.00    +0.000 C 
ENDROOT
BRANCH   2   3
ATOM      3  C   UNL     1       6.178   4.404  16.096  0.00  0.00    +0.000 A 
ATOM      4  N   UNL     1       5.710   3.577  15.179  0.00  0.00    +0.000 NA
ATOM      5  C   UNL     1       6.318   3.929  13.999  0.00  0.00    +0.000 A 
ATOM      6  C   UNL     1       6.163   3.393  12.714  0.00  0.00    +0.000 A 
ATOM      7  C   UNL     1       6.912   3.938  11.663  0.00  0.00    +0.000 A 
ATOM      8  C   UNL     1       7.799   4.993  11.890  0.00  0.00    +0.000 A 
ATOM      9  C   UNL     1       7.963   5.545  13.165  0.00  0.00    +0.000 A 
ATOM     10  C   UNL     1       7.196   4.988  14.191  0.00  0.00    +0.000 A 
ATOM     11  N   UNL     1       7.077   5.278  15.521  0.00  0.00    +0.000 N 
ATOM     12  H   UNL     1       7.554   6.018  16.023  0.00  0.00    +0.000 HD
ENDBRANCH   2   3
BRANCH   1  13
ATOM     13  O   UNL     1       3.638   3.641  17.228  0.00  0.00    +0.000 OA
ATOM     14  H   UNL     1       3.129   2.997  17.760  0.00  0.00    +0.000 HD
ENDBRANCH   1  13
BRANCH   2  15
ATOM     15  C   UNL     1       6.952   5.010  18.421  0.00  0.00    +0.000 C 
ATOM     16  N   UNL     1       7.845   5.450  19.196  0.00  0.00    +0.000 NA
ENDBRANCH   2  15
BRANCH   1  17
ATOM     17  C   UNL     1       4.418   4.151  19.515  0.00  0.00    +0.000 C 
BRANCH  17  18
ATOM     18  O   UNL     1       3.657   5.317  19.864  0.00  0.00    +0.000 OA
BRANCH  18  19
ATOM     19  C   UNL     1       2.323   5.062  20.032  0.00  0.00    +0.000 C 
ATOM     20  O   UNL     1       1.789   3.984  19.743  0.00  0.00    +0.000 OA
BRANCH  19  21
ATOM     21  C   UNL     1       1.614   6.232  20.698  0.00  0.00    +0.000 C 
BRANCH  21  22
ATOM     22  O   UNL     1       2.170   7.501  20.416  0.00  0.00    +0.000 OA
BRANCH  22  30
ATOM     23  C   UNL     1       0.017   9.077  22.123  0.00  0.00    +0.000 C 
ATOM     24  C   UNL     1       0.394   9.264  20.679  0.00  0.00    +0.000 A 
ATOM     25  C   UNL     1      -0.314  10.292  20.012  0.00  0.00    +0.000 A 
ATOM     26  C   UNL     1      -0.081  10.602  18.679  0.00  0.00    +0.000 A 
ATOM     27  C   UNL     1       0.875   9.889  17.976  0.00  0.00    +0.000 A 
ATOM     28  C   UNL     1       1.602   8.859  18.601  0.00  0.00    +0.000 A 
ATOM     29  C   UNL     1       2.628   8.130  17.770  0.00  0.00    +0.000 C 
ATOM     30  C   UNL     1       1.371   8.530  19.965  0.00  0.00    +0.000 A 
ENDBRANCH  22  30
ENDBRANCH  21  22
ENDBRANCH  19  21
ENDBRANCH  18  19
ENDBRANCH  17  18
ENDBRANCH   1  17
TORSDOF 9
ENDMDL
MODEL 3
REMARK VINA RESULT:      -7.8      3.628      5.424
REMARK  Name = 
REMARK  11 active torsions:
REMARK  status: ('A' for Active; 'I' for Inactive)
REMARK    1  A    between atoms: C_1  and  C_2
REMARK    2  A    between atoms: C_6  and  C_7
REMARK    3  A    between atoms: C_8  and  O_9
REMARK    4  A    between atoms: O_9  and  C_10
REMARK    5  A    between atoms: C_10  and  C_11
REMARK    6  A    between atoms: C_11  and  O_13
REMARK    7  A    between atoms: O_13  and  C_14
REMARK    8  A    between atoms: C_14  and  C_15
REMARK    9  A    between atoms: C_15  and  O_16
REMARK   10  A    between atoms: C_17  and  C_18
REMARK   11  A    between atoms: C_17  and  C_20
REMARK                            x       y       z     vdW  Elec       q    Type
REMARK                         _______ _______ _______ _____ _____    ______ ____
ROOT
ATOM      1  C   UNL     1       7.330   5.925  17.227  0.00  0.00    +0.000 C 
ATOM      2  C   UNL     1       7.793   6.613  18.300  0.00  0.00    +0.000 C 
ENDROOT
BRANCH   2   3
ATOM      3  C   UNL     1       8.094   8.006  18.275  0.00  0.00    +0.000 A 
ATOM      4  N   UNL     1       7.685   8.938  17.435  0.00  0.00    +0.000 NA
ATOM      5  C   UNL     1       8.260  10.113  17.856  0.00  0.00    +0.000 A 
ATOM      6  C   UNL     1       8.140  11.408  17.337  0.00  0.00    +0.000 A 
ATOM      7  C   UNL     1       8.842  12.449  17.957  0.00  0.00    +0.000 A 
ATOM      8  C   UNL     1       9.650  12.202  19.071  0.00  0.00    +0.000 A 
ATOM      9  C   UNL     1       9.777  10.916  19.607  0.00  0.00    +0.000 A 
ATOM     10  C   UNL     1       9.057   9.900  18.973  0.00  0.00    +0.000 A 
ATOM     11  N   UNL     1       8.923   8.564  19.226  0.00  0.00    +0.000 N 
ATOM     12  H   UNL     1       9.346   8.048  19.988  0.00  0.00    +0.000 HD
ENDBRANCH   2   3
BRANCH   1  13
ATOM     13  O   UNL     1       7.064   6.548  16.010  0.00  0.00    +0.000 OA
ATOM     14  H   UNL     1       6.198   6.998  16.093  0.00  0.00    +0.000 HD
ENDBRANCH   1  13
BRANCH   2  15
ATOM     15  C   UNL     1       8.015   5.860  19.601  0.00  0.00    +0.000 C 
ATOM     16  N   UNL     1       8.200   5.234  20.681  0.00  0.00    +0.000 NA
ENDBRANCH   2  15
BRANCH   1  17
ATOM     17  C   UNL     1       7.065   4.428  17.276  0.00  0.00    +0.000 C 
BRANCH  17  18
ATOM     18  O   UNL     1       5.707   4.132  16.919  0.00  0.00    +0.000 OA
BRANCH  18  19
ATOM     19  C   UNL     1       4.980   3.599  17.949  0.00  0.00    +0.000 C 
ATOM     20  O   UNL     1       5.387   3.538  19.115  0.00  0.00    +0.000 OA
BRANCH  19  21
ATOM     21  C   UNL     1       3.590   3.184  17.491  0.00  0.00    +0.000 C 
BRANCH  21  22
ATOM     22  O   UNL     1       2.650   4.238  17.413  0.00  0.00    +0.000 OA
BRANCH  22  30
ATOM     23  C   UNL     1       0.936   2.995  19.768  0.00  0.00    +0.000 C 
ATOM     24  C   UNL     1       1.474   4.393  19.631  0.00  0.00    +0.000 A 
ATOM     25  C   UNL     1       1.168   5.252  20.714  0.00  0.00    +0.000 A 
ATOM     26  C   UNL     1       1.598   6.572  20.751  0.00  0.00    +0.000 A 
ATOM     27  C   UNL     1       2.350   7.068  19.700  0.00  0.00    +0.000 A 
ATOM     28  C   UNL     1       2.676   6.248  18.605  0.00  0.00    +0.000 A 
ATOM     29  C   UNL     1       3.502   6.860  17.500  0.00  0.00    +0.000 C 
ATOM     30  C   UNL     1       2.241   4.895  18.553  0.00  0.00    +0.000 A 
ENDBRANCH  22  30
ENDBRANCH  21  22
ENDBRANCH  19  21
ENDBRANCH  18  19
ENDBRANCH  17  18
ENDBRANCH   1  17
TORSDOF 9
ENDMDL
MODEL 4
REMARK VINA RESULT:      -7.8      0.261      1.127
REMARK  Name = 
REMARK  11 active torsions:
REMARK  status: ('A' for Active; 'I' for Inactive)
REMARK    1  A    between atoms: C_1  and  C_2
REMARK    2  A    between atoms: C_6  and  C_7
REMARK    3  A    between atoms: C_8  and  O_9
REMARK    4  A    between atoms: O_9  and  C_10
REMARK    5  A    between atoms: C_10  and  C_11
REMARK    6  A    between atoms: C_11  and  O_13
REMARK    7  A    between atoms: O_13  and  C_14
REMARK    8  A    between atoms: C_14  and  C_15
REMARK    9  A    between atoms: C_15  and  O_16
REMARK   10  A    between atoms: C_17  and  C_18
REMARK   11  A    between atoms: C_17  and  C_20
REMARK                            x       y       z     vdW  Elec       q    Type
REMARK                         _______ _______ _______ _____ _____    ______ ____
ROOT
ATOM      1  C   UNL     1       4.704   3.706  18.180  0.00  0.00    +0.000 C 
ATOM      2  C   UNL     1       5.812   4.290  17.658  0.00  0.00    +0.000 C 
ENDROOT
BRANCH   2   3
ATOM      3  C   UNL     1       6.125   4.288  16.269  0.00  0.00    +0.000 A 
ATOM      4  N   UNL     1       5.659   3.517  15.303  0.00  0.00    +0.000 NA
ATOM      5  C   UNL     1       6.280   3.930  14.150  0.00  0.00    +0.000 A 
ATOM      6  C   UNL     1       6.132   3.468  12.835  0.00  0.00    +0.000 A 
ATOM      7  C   UNL     1       6.893   4.065  11.822  0.00  0.00    +0.000 A 
ATOM      8  C   UNL     1       7.785   5.100  12.115  0.00  0.00    +0.000 A 
ATOM      9  C   UNL     1       7.941   5.579  13.421  0.00  0.00    +0.000 A 
ATOM     10  C   UNL     1       7.162   4.971  14.408  0.00  0.00    +0.000 A 
ATOM     11  N   UNL     1       7.034   5.187  15.751  0.00  0.00    +0.000 N 
ATOM     12  H   UNL     1       7.512   5.894  16.297  0.00  0.00    +0.000 HD
ENDBRANCH   2   3
BRANCH   1  13
ATOM     13  O   UNL     1       3.747   3.091  17.376  0.00  0.00    +0.000 OA
ATOM     14  H   UNL     1       3.459   3.747  16.708  0.00  0.00    +0.000 HD
ENDBRANCH   1  13
BRANCH   2  15
ATOM     15  C   UNL     1       6.782   4.975  18.607  0.00  0.00    +0.000 C 
ATOM     16  N   UNL     1       7.588   5.543  19.393  0.00  0.00    +0.000 NA
ENDBRANCH   2  15
BRANCH   1  17
ATOM     17  C   UNL     1       4.426   3.684  19.674  0.00  0.00    +0.000 C 
BRANCH  17  18
ATOM     18  O   UNL     1       3.105   3.192  19.948  0.00  0.00    +0.000 OA
BRANCH  18  19
ATOM     19  C   UNL     1       2.390   3.999  20.790  0.00  0.00    +0.000 C 
ATOM     20  O   UNL     1       2.285   3.799  22.006  0.00  0.00    +0.000 OA
BRANCH  19  21
ATOM     21  C   UNL     1       1.825   5.206  20.056  0.00  0.00    +0.000 C 
BRANCH  21  22
ATOM     22  O   UNL     1       2.479   6.429  20.333  0.00  0.00    +0.000 OA
BRANCH  22  30
ATOM     23  C   UNL     1       0.577   8.502  21.788  0.00  0.00    +0.000 C 
ATOM     24  C   UNL     1       1.157   8.568  20.401  0.00  0.00    +0.000 A 
ATOM     25  C   UNL     1       0.798   9.722  19.666  0.00  0.00    +0.000 A 
ATOM     26  C   UNL     1       1.255   9.944  18.374  0.00  0.00    +0.000 A 
ATOM     27  C   UNL     1       2.090   9.012  17.782  0.00  0.00    +0.000 A 
ATOM     28  C   UNL     1       2.471   7.850  18.478  0.00  0.00    +0.000 A 
ATOM     29  C   UNL     1       3.385   6.883  17.767  0.00  0.00    +0.000 C 
ATOM     30  C   UNL     1       2.008   7.610  19.801  0.00  0.00    +0.000 A 
ENDBRANCH  22  30
ENDBRANCH  21  22
ENDBRANCH  19  21
ENDBRANCH  18  19
ENDBRANCH  17  18
ENDBRANCH   1  17
TORSDOF 9
ENDMDL
MODEL 5
REMARK VINA RESULT:      -7.8      0.805      1.865
REMARK  Name = 
REMARK  11 active torsions:
REMARK  status: ('A' for Active; 'I' for Inactive)
REMARK    1  A    between atoms: C_1  and  C_2
REMARK    2  A    between atoms: C_6  and  C_7
REMARK    3  A    between atoms: C_8  and  O_9
REMARK    4  A    between atoms: O_9  and  C_10
REMARK    5  A    between atoms: C_10  and  C_11
REMARK    6  A    between atoms: C_11  and  O_13
REMARK    7  A    between atoms: O_13  and  C_14
REMARK    8  A    between atoms: C_14  and  C_15
REMARK    9  A    between atoms: C_15  and  O_16
REMARK   10  A    between atoms: C_17  and  C_18
REMARK   11  A    between atoms: C_17  and  C_20
REMARK                            x       y       z     vdW  Elec       q    Type
REMARK                         _______ _______ _______ _____ _____    ______ ____
ROOT
ATOM      1  C   UNL     1       4.496   3.932  18.056  0.00  0.00    +0.000 C 
ATOM      2  C   UNL     1       5.684   4.485  17.705  0.00  0.00    +0.000 C 
ENDROOT
BRANCH   2   3
ATOM      3  C   UNL     1       6.149   4.570  16.361  0.00  0.00    +0.000 A 
ATOM      4  N   UNL     1       7.031   5.395  15.828  0.00  0.00    +0.000 NA
ATOM      5  C   UNL     1       7.122   5.053  14.500  0.00  0.00    +0.000 A 
ATOM      6  C   UNL     1       7.926   5.592  13.487  0.00  0.00    +0.000 A 
ATOM      7  C   UNL     1       7.828   5.059  12.196  0.00  0.00    +0.000 A 
ATOM      8  C   UNL     1       6.944   4.012  11.920  0.00  0.00    +0.000 A 
ATOM      9  C   UNL     1       6.137   3.458  12.920  0.00  0.00    +0.000 A 
ATOM     10  C   UNL     1       6.264   4.003  14.200  0.00  0.00    +0.000 A 
ATOM     11  N   UNL     1       5.672   3.708  15.396  0.00  0.00    +0.000 N 
ATOM     12  H   UNL     1       4.998   2.972  15.570  0.00  0.00    +0.000 HD
ENDBRANCH   2   3
BRANCH   1  13
ATOM     13  O   UNL     1       3.604   3.438  17.106  0.00  0.00    +0.000 OA
ATOM     14  H   UNL     1       3.123   4.203  16.729  0.00  0.00    +0.000 HD
ENDBRANCH   1  13
BRANCH   2  15
ATOM     15  C   UNL     1       6.576   5.037  18.804  0.00  0.00    +0.000 C 
ATOM     16  N   UNL     1       7.316   5.495  19.718  0.00  0.00    +0.000 NA
ENDBRANCH   2  15
BRANCH   1  17
ATOM     17  C   UNL     1       4.053   3.814  19.505  0.00  0.00    +0.000 C 
BRANCH  17  18
ATOM     18  O   UNL     1       3.474   5.042  19.970  0.00  0.00    +0.000 OA
BRANCH  18  19
ATOM     19  C   UNL     1       2.112   5.080  19.844  0.00  0.00    +0.000 C 
ATOM     20  O   UNL     1       1.475   4.364  19.062  0.00  0.00    +0.000 OA
BRANCH  19  21
ATOM     21  C   UNL     1       1.488   6.041  20.845  0.00  0.00    +0.000 C 
BRANCH  21  22
ATOM     22  O   UNL     1       2.030   7.347  20.831  0.00  0.00    +0.000 OA
BRANCH  22  30
ATOM     23  C   UNL     1       2.912   7.811  17.824  0.00  0.00    +0.000 C 
ATOM     24  C   UNL     1       1.884   8.558  18.630  0.00  0.00    +0.000 A 
ATOM     25  C   UNL     1       1.229   9.600  17.931  0.00  0.00    +0.000 A 
ATOM     26  C   UNL     1       0.247  10.381  18.525  0.00  0.00    +0.000 A 
ATOM     27  C   UNL     1      -0.109  10.136  19.840  0.00  0.00    +0.000 A 
ATOM     28  C   UNL     1       0.517   9.110  20.571  0.00  0.00    +0.000 A 
ATOM     29  C   UNL     1       0.073   8.903  21.997  0.00  0.00    +0.000 C 
ATOM     30  C   UNL     1       1.526   8.304  19.975  0.00  0.00    +0.000 A 
ENDBRANCH  22  30
ENDBRANCH  21  22
ENDBRANCH  19  21
ENDBRANCH  18  19
ENDBRANCH  17  18
ENDBRANCH   1  17
TORSDOF 9
ENDMDL
MODEL 6
REMARK VINA RESULT:      -7.7      0.883      2.203
REMARK  Name = 
REMARK  11 active torsions:
REMARK  status: ('A' for Active; 'I' for Inactive)
REMARK    1  A    between atoms: C_1  and  C_2
REMARK    2  A    between atoms: C_6  and  C_7
REMARK    3  A    between atoms: C_8  and  O_9
REMARK    4  A    between atoms: O_9  and  C_10
REMARK    5  A    between atoms: C_10  and  C_11
REMARK    6  A    between atoms: C_11  and  O_13
REMARK    7  A    between atoms: O_13  and  C_14
REMARK    8  A    between atoms: C_14  and  C_15
REMARK    9  A    between atoms: C_15  and  O_16
REMARK   10  A    between atoms: C_17  and  C_18
REMARK   11  A    between atoms: C_17  and  C_20
REMARK                            x       y       z     vdW  Elec       q    Type
REMARK                         _______ _______ _______ _____ _____    ______ ____
ROOT
ATOM      1  C   UNL     1       5.446   4.290  18.087  0.00  0.00    +0.000 C 
ATOM      2  C   UNL     1       6.295   4.974  17.280  0.00  0.00    +0.000 C 
ENDROOT
BRANCH   2   3
ATOM      3  C   UNL     1       6.453   4.703  15.890  0.00  0.00    +0.000 A 
ATOM      4  N   UNL     1       5.864   3.790  15.140  0.00  0.00    +0.000 NA
ATOM      5  C   UNL     1       6.363   3.956  13.871  0.00  0.00    +0.000 A 
ATOM      6  C   UNL     1       6.060   3.267  12.689  0.00  0.00    +0.000 A 
ATOM      7  C   UNL     1       6.719   3.634  11.509  0.00  0.00    +0.000 A 
ATOM      8  C   UNL     1       7.663   4.664  11.508  0.00  0.00    +0.000 A 
ATOM      9  C   UNL     1       7.974   5.367  12.677  0.00  0.00    +0.000 A 
ATOM     10  C   UNL     1       7.294   4.986  13.837  0.00  0.00    +0.000 A 
ATOM     11  N   UNL     1       7.321   5.450  15.121  0.00  0.00    +0.000 N 
ATOM     12  H   UNL     1       7.873   6.223  15.472  0.00  0.00    +0.000 HD
ENDBRANCH   2   3
BRANCH   1  13
ATOM     13  O   UNL     1       4.614   3.285  17.599  0.00  0.00    +0.000 OA
ATOM     14  H   UNL     1       5.017   2.945  16.775  0.00  0.00    +0.000 HD
ENDBRANCH   1  13
BRANCH   2  15
ATOM     15  C   UNL     1       7.136   6.084  17.889  0.00  0.00    +0.000 C 
ATOM     16  N   UNL     1       7.834   7.005  18.395  0.00  0.00    +0.000 NA
ENDBRANCH   2  15
BRANCH   1  17
ATOM     17  C   UNL     1       5.340   4.573  19.577  0.00  0.00    +0.000 C 
BRANCH  17  18
ATOM     18  O   UNL     1       4.219   5.423  19.863  0.00  0.00    +0.000 OA
BRANCH  18  19
ATOM     19  C   UNL     1       3.075   4.731  20.156  0.00  0.00    +0.000 C 
ATOM     20  O   UNL     1       3.038   3.505  20.316  0.00  0.00    +0.000 OA
BRANCH  19  21
ATOM     21  C   UNL     1       1.892   5.668  20.344  0.00  0.00    +0.000 C 
BRANCH  21  22
ATOM     22  O   UNL     1       2.236   7.006  20.644  0.00  0.00    +0.000 OA
BRANCH  22  30
ATOM     23  C   UNL     1       3.195   7.546  17.674  0.00  0.00    +0.000 C 
ATOM     24  C   UNL     1       2.211   8.326  18.503  0.00  0.00    +0.000 A 
ATOM     25  C   UNL     1       1.643   9.444  17.847  0.00  0.00    +0.000 A 
ATOM     26  C   UNL     1       0.710  10.265  18.465  0.00  0.00    +0.000 A 
ATOM     27  C   UNL     1       0.317   9.985  19.763  0.00  0.00    +0.000 A 
ATOM     28  C   UNL     1       0.857   8.884  20.451  0.00  0.00    +0.000 A 
ATOM     29  C   UNL     1       0.377   8.642  21.860  0.00  0.00    +0.000 C 
ATOM     30  C   UNL     1       1.816   8.036  19.830  0.00  0.00    +0.000 A 
ENDBRANCH  22  30
ENDBRANCH  21  22
ENDBRANCH  19  21
ENDBRANCH  18  19
ENDBRANCH  17  18
ENDBRANCH   1  17
TORSDOF 9
ENDMDL
MODEL 7
REMARK VINA RESULT:      -7.6      5.848      7.774
REMARK  Name = 
REMARK  11 active torsions:
REMARK  status: ('A' for Active; 'I' for Inactive)
REMARK    1  A    between atoms: C_1  and  C_2
REMARK    2  A    between atoms: C_6  and  C_7
REMARK    3  A    between atoms: C_8  and  O_9
REMARK    4  A    between atoms: O_9  and  C_10
REMARK    5  A    between atoms: C_10  and  C_11
REMARK    6  A    between atoms: C_11  and  O_13
REMARK    7  A    between atoms: O_13  and  C_14
REMARK    8  A    between atoms: C_14  and  C_15
REMARK    9  A    between atoms: C_15  and  O_16
REMARK   10  A    between atoms: C_17  and  C_18
REMARK   11  A    between atoms: C_17  and  C_20
REMARK                            x       y       z     vdW  Elec       q    Type
REMARK                         _______ _______ _______ _____ _____    ______ ____
ROOT
ATOM      1  C   UNL     1       6.211   6.540  17.358  0.00  0.00    +0.000 C 
ATOM      2  C   UNL     1       5.986   5.697  18.396  0.00  0.00    +0.000 C 
ENDROOT
BRANCH   2   3
ATOM      3  C   UNL     1       4.766   4.986  18.585  0.00  0.00    +0.000 A 
ATOM      4  N   UNL     1       4.214   4.050  17.835  0.00  0.00    +0.000 NA
ATOM      5  C   UNL     1       3.047   3.693  18.464  0.00  0.00    +0.000 A 
ATOM      6  C   UNL     1       2.093   2.730  18.109  0.00  0.00    +0.000 A 
ATOM      7  C   UNL     1       0.973   2.557  18.931  0.00  0.00    +0.000 A 
ATOM      8  C   UNL     1       0.806   3.331  20.083  0.00  0.00    +0.000 A 
ATOM      9  C   UNL     1       1.751   4.292  20.458  0.00  0.00    +0.000 A 
ATOM     10  C   UNL     1       2.863   4.435  19.623  0.00  0.00    +0.000 A 
ATOM     11  N   UNL     1       3.970   5.234  19.684  0.00  0.00    +0.000 N 
ATOM     12  H   UNL     1       4.194   5.900  20.413  0.00  0.00    +0.000 HD
ENDBRANCH   2   3
BRANCH   1  13
ATOM     13  O   UNL     1       5.267   6.742  16.353  0.00  0.00    +0.000 OA
ATOM     14  H   UNL     1       4.492   6.182  16.562  0.00  0.00    +0.000 HD
ENDBRANCH   1  13
BRANCH   2  15
ATOM     15  C   UNL     1       7.089   5.506  19.424  0.00  0.00    +0.000 C 
ATOM     16  N   UNL     1       8.003   5.347  20.279  0.00  0.00    +0.000 NA
ENDBRANCH   2  15
BRANCH   1  17
ATOM     17  C   UNL     1       7.508   7.321  17.214  0.00  0.00    +0.000 C 
BRANCH  17  18
ATOM     18  O   UNL     1       7.284   8.730  17.375  0.00  0.00    +0.000 OA
BRANCH  18  19
ATOM     19  C   UNL     1       8.233   9.345  18.144  0.00  0.00    +0.000 C 
ATOM     20  O   UNL     1       8.958   8.746  18.949  0.00  0.00    +0.000 OA
BRANCH  19  21
ATOM     21  C   UNL     1       8.339  10.827  17.816  0.00  0.00    +0.000 C 
BRANCH  21  22
ATOM     22  O   UNL     1       8.976  11.610  18.806  0.00  0.00    +0.000 OA
BRANCH  22  30
ATOM     23  C   UNL     1       7.512  14.303  18.006  0.00  0.00    +0.000 C 
ATOM     24  C   UNL     1       8.987  14.026  18.103  0.00  0.00    +0.000 A 
ATOM     25  C   UNL     1       9.816  15.132  17.799  0.00  0.00    +0.000 A 
ATOM     26  C   UNL     1      11.201  15.050  17.849  0.00  0.00    +0.000 A 
ATOM     27  C   UNL     1      11.795  13.852  18.210  0.00  0.00    +0.000 A 
ATOM     28  C   UNL     1      11.008  12.729  18.521  0.00  0.00    +0.000 A 
ATOM     29  C   UNL     1      11.729  11.462  18.908  0.00  0.00    +0.000 C 
ATOM     30  C   UNL     1       9.588  12.799  18.471  0.00  0.00    +0.000 A 
ENDBRANCH  22  30
ENDBRANCH  21  22
ENDBRANCH  19  21
ENDBRANCH  18  19
ENDBRANCH  17  18
ENDBRANCH   1  17
TORSDOF 9
ENDMDL
MODEL 8
REMARK VINA RESULT:      -7.6      0.960      1.975
REMARK  Name = 
REMARK  11 active torsions:
REMARK  status: ('A' for Active; 'I' for Inactive)
REMARK    1  A    between atoms: C_1  and  C_2
REMARK    2  A    between atoms: C_6  and  C_7
REMARK    3  A    between atoms: C_8  and  O_9
REMARK    4  A    between atoms: O_9  and  C_10
REMARK    5  A    between atoms: C_10  and  C_11
REMARK    6  A    between atoms: C_11  and  O_13
REMARK    7  A    between atoms: O_13  and  C_14
REMARK    8  A    between atoms: C_14  and  C_15
REMARK    9  A    between atoms: C_15  and  O_16
REMARK   10  A    between atoms: C_17  and  C_18
REMARK   11  A    between atoms: C_17  and  C_20
REMARK                            x       y       z     vdW  Elec       q    Type
REMARK                         _______ _______ _______ _____ _____    ______ ____
ROOT
ATOM      1  C   UNL     1       5.600   4.456  18.044  0.00  0.00    +0.000 C 
ATOM      2  C   UNL     1       6.450   5.160  17.255  0.00  0.00    +0.000 C 
ENDROOT
BRANCH   2   3
ATOM      3  C   UNL     1       6.613   4.922  15.860  0.00  0.00    +0.000 A 
ATOM      4  N   UNL     1       7.459   5.470  15.007  0.00  0.00    +0.000 NA
ATOM      5  C   UNL     1       7.206   4.887  13.789  0.00  0.00    +0.000 A 
ATOM      6  C   UNL     1       7.831   5.087  12.551  0.00  0.00    +0.000 A 
ATOM      7  C   UNL     1       7.378   4.359  11.443  0.00  0.00    +0.000 A 
ATOM      8  C   UNL     1       6.322   3.452  11.568  0.00  0.00    +0.000 A 
ATOM      9  C   UNL     1       5.690   3.235  12.797  0.00  0.00    +0.000 A 
ATOM     10  C   UNL     1       6.169   3.968  13.886  0.00  0.00    +0.000 A 
ATOM     11  N   UNL     1       5.823   3.999  15.207  0.00  0.00    +0.000 N 
ATOM     12  H   UNL     1       5.111   3.436  15.658  0.00  0.00    +0.000 HD
ENDBRANCH   2   3
BRANCH   1  13
ATOM     13  O   UNL     1       4.771   3.461  17.530  0.00  0.00    +0.000 OA
ATOM     14  H   UNL     1       4.634   3.655  16.580  0.00  0.00    +0.000 HD
ENDBRANCH   1  13
BRANCH   2  15
ATOM     15  C   UNL     1       7.287   6.257  17.893  0.00  0.00    +0.000 C 
ATOM     16  N   UNL     1       7.980   7.168  18.424  0.00  0.00    +0.000 NA
ENDBRANCH   2  15
BRANCH   1  17
ATOM     17  C   UNL     1       5.487   4.705  19.539  0.00  0.00    +0.000 C 
BRANCH  17  18
ATOM     18  O   UNL     1       4.338   5.509  19.845  0.00  0.00    +0.000 OA
BRANCH  18  19
ATOM     19  C   UNL     1       3.203   4.775  20.054  0.00  0.00    +0.000 C 
ATOM     20  O   UNL     1       3.203   3.554  20.251  0.00  0.00    +0.000 OA
BRANCH  19  21
ATOM     21  C   UNL     1       1.969   5.663  20.103  0.00  0.00    +0.000 C 
BRANCH  21  22
ATOM     22  O   UNL     1       2.209   6.991  20.526  0.00  0.00    +0.000 OA
BRANCH  22  30
ATOM     23  C   UNL     1       3.202   7.638  17.588  0.00  0.00    +0.000 C 
ATOM     24  C   UNL     1       2.217   8.394  18.438  0.00  0.00    +0.000 A 
ATOM     25  C   UNL     1       1.666   9.543  17.821  0.00  0.00    +0.000 A 
ATOM     26  C   UNL     1       0.734  10.347  18.462  0.00  0.00    +0.000 A 
ATOM     27  C   UNL     1       0.326  10.020  19.744  0.00  0.00    +0.000 A 
ATOM     28  C   UNL     1       0.849   8.888  20.394  0.00  0.00    +0.000 A 
ATOM     29  C   UNL     1       0.353   8.595  21.788  0.00  0.00    +0.000 C 
ATOM     30  C   UNL     1       1.806   8.056  19.748  0.00  0.00    +0.000 A 
ENDBRANCH  22  30
ENDBRANCH  21  22
ENDBRANCH  19  21
ENDBRANCH  18  19
ENDBRANCH  17  18
ENDBRANCH   1  17
TORSDOF 9
ENDMDL
MODEL 9
REMARK VINA RESULT:      -7.6      5.576      7.653
REMARK  Name = 
REMARK  11 active torsions:
REMARK  status: ('A' for Active; 'I' for Inactive)
REMARK    1  A    between atoms: C_1  and  C_2
REMARK    2  A    between atoms: C_6  and  C_7
REMARK    3  A    between atoms: C_8  and  O_9
REMARK    4  A    between atoms: O_9  and  C_10
REMARK    5  A    between atoms: C_10  and  C_11
REMARK    6  A    between atoms: C_11  and  O_13
REMARK    7  A    between atoms: O_13  and  C_14
REMARK    8  A    between atoms: C_14  and  C_15
REMARK    9  A    between atoms: C_15  and  O_16
REMARK   10  A    between atoms: C_17  and  C_18
REMARK   11  A    between atoms: C_17  and  C_20
REMARK                            x       y       z     vdW  Elec       q    Type
REMARK                         _______ _______ _______ _____ _____    ______ ____
ROOT
ATOM      1  C   UNL     1       6.709   5.978  18.539  0.00  0.00    +0.000 C 
ATOM      2  C   UNL     1       5.514   5.826  17.914  0.00  0.00    +0.000 C 
ENDROOT
BRANCH   2   3
ATOM      3  C   UNL     1       4.400   5.155  18.494  0.00  0.00    +0.000 A 
ATOM      4  N   UNL     1       3.989   5.138  19.749  0.00  0.00    +0.000 NA
ATOM      5  C   UNL     1       2.868   4.345  19.774  0.00  0.00    +0.000 A 
ATOM      6  C   UNL     1       2.028   4.011  20.845  0.00  0.00    +0.000 A 
ATOM      7  C   UNL     1       0.934   3.170  20.605  0.00  0.00    +0.000 A 
ATOM      8  C   UNL     1       0.685   2.670  19.324  0.00  0.00    +0.000 A 
ATOM      9  C   UNL     1       1.509   2.998  18.242  0.00  0.00    +0.000 A 
ATOM     10  C   UNL     1       2.586   3.846  18.509  0.00  0.00    +0.000 A 
ATOM     11  N   UNL     1       3.560   4.385  17.717  0.00  0.00    +0.000 N 
ATOM     12  H   UNL     1       3.662   4.260  16.717  0.00  0.00    +0.000 HD
ENDBRANCH   2   3
BRANCH   1  13
ATOM     13  O   UNL     1       6.925   5.521  19.837  0.00  0.00    +0.000 OA
ATOM     14  H   UNL     1       6.336   6.031  20.430  0.00  0.00    +0.000 HD
ENDBRANCH   1  13
BRANCH   2  15
ATOM     15  C   UNL     1       5.355   6.393  16.513  0.00  0.00    +0.000 C 
ATOM     16  N   UNL     1       5.221   6.863  15.350  0.00  0.00    +0.000 NA
ENDBRANCH   2  15
BRANCH   1  17
ATOM     17  C   UNL     1       7.893   6.658  17.870  0.00  0.00    +0.000 C 
BRANCH  17  18
ATOM     18  O   UNL     1       8.368   7.761  18.657  0.00  0.00    +0.000 OA
BRANCH  18  19
ATOM     19  C   UNL     1       8.219   8.972  18.037  0.00  0.00    +0.000 C 
ATOM     20  O   UNL     1       7.258   9.258  17.313  0.00  0.00    +0.000 OA
BRANCH  19  21
ATOM     21  C   UNL     1       9.330   9.935  18.426  0.00  0.00    +0.000 C 
BRANCH  21  22
ATOM     22  O   UNL     1       8.934  10.980  19.292  0.00  0.00    +0.000 OA
BRANCH  22  30
ATOM     23  C   UNL     1       7.510  12.789  17.117  0.00  0.00    +0.000 C 
ATOM     24  C   UNL     1       8.647  13.141  18.036  0.00  0.00    +0.000 A 
ATOM     25  C   UNL     1       9.128  14.465  17.900  0.00  0.00    +0.000 A 
ATOM     26  C   UNL     1      10.167  14.955  18.679  0.00  0.00    +0.000 A 
ATOM     27  C   UNL     1      10.754  14.128  19.621  0.00  0.00    +0.000 A 
ATOM     28  C   UNL     1      10.307  12.805  19.789  0.00  0.00    +0.000 A 
ATOM     29  C   UNL     1      10.995  11.967  20.837  0.00  0.00    +0.000 C 
ATOM     30  C   UNL     1       9.245  12.290  18.995  0.00  0.00    +0.000 A 
ENDBRANCH  22  30
ENDBRANCH  21  22
ENDBRANCH  19  21
ENDBRANCH  18  19
ENDBRANCH  17  18
ENDBRANCH   1  17
TORSDOF 9
ENDMDL
