MODEL 1
REMARK VINA RESULT:      -7.8      0.000      0.000
REMARK  Name = 
REMARK  10 active torsions:
REMARK  status: ('A' for Active; 'I' for Inactive)
REMARK    1  A    between atoms: C_1  and  C_2
REMARK    2  A    between atoms: C_2  and  C_3
REMARK    3  A    between atoms: C_3  and  C_4
REMARK    4  A    between atoms: C_4  and  C_5
REMARK    5  A    between atoms: C_5  and  C_6
REMARK    6  A    between atoms: C_6  and  C_7
REMARK    7  A    between atoms: C_7  and  C_8
REMARK    8  A    between atoms: C_10  and  C_11
REMARK    9  A    between atoms: C_21  and  C_22
REMARK   10  A    between atoms: C_28  and  O_29
REMARK                            x       y       z     vdW  Elec       q    Type
REMARK                         _______ _______ _______ _____ _____    ______ ____
ROOT
ATOM      1  C   UNL     1       3.959   3.053  18.121  0.00  0.00    +0.000 C 
ATOM      2  C   UNL     1       2.990   2.285  17.198  0.00  0.00    +0.000 C 
ATOM      3  N   UNL     1       3.303   4.296  18.464  0.00  0.00    +0.000 N 
ATOM      4  C   UNL     1       3.850   5.513  18.184  0.00  0.00    +0.000 C 
ATOM      5  C   UNL     1       5.068   5.604  17.640  0.00  0.00    +0.000 C 
ATOM      6  C   UNL     1       5.857   4.389  17.232  0.00  0.00    +0.000 C 
ATOM      7  N   UNL     1       5.204   3.085  17.362  0.00  0.00    +0.000 NA
ATOM      8  H   UNL     1       2.319   4.275  18.707  0.00  0.00    +0.000 HD
ATOM      9  H   UNL     1       5.875   2.408  17.710  0.00  0.00    +0.000 HD
ENDROOT
BRANCH   4  10
ATOM     10  C   UNL     1       3.057   6.720  18.427  0.00  0.00    +0.000 A 
ATOM     11  C   UNL     1       2.972   7.699  17.410  0.00  0.00    +0.000 A 
ATOM     12  C   UNL     1       2.267   8.888  17.613  0.00  0.00    +0.000 A 
ATOM     13  C   UNL     1       1.666   9.069  18.838  0.00  0.00    +0.000 A 
ATOM     14  C   UNL     1       1.742   8.120  19.833  0.00  0.00    +0.000 A 
ATOM     15  C   UNL     1       2.425   6.934  19.659  0.00  0.00    +0.000 A 
ATOM     16  O   UNL     1       1.088   8.506  20.962  0.00  0.00    +0.000 OA
ATOM     17  C   UNL     1       0.636   9.822  20.581  0.00  0.00    +0.000 C 
ATOM     18  O   UNL     1       0.957  10.165  19.216  0.00  0.00    +0.000 OA
ENDBRANCH   4  10
BRANCH   6  19
ATOM     19  C   UNL     1       6.303   4.552  15.781  0.00  0.00    +0.000 A 
ATOM     20  C   UNL     1       5.719   3.742  14.781  0.00  0.00    +0.000 A 
ATOM     21  C   UNL     1       6.050   3.920  13.442  0.00  0.00    +0.000 A 
ATOM     22 BR   UNL     1       5.234   2.837  12.123  0.00  0.00    +0.000 Br
ATOM     23  C   UNL     1       6.969   4.895  13.065  0.00  0.00    +0.000 A 
ATOM     24  C   UNL     1       7.575   5.686  14.043  0.00  0.00    +0.000 A 
ATOM     25  C   UNL     1       7.242   5.512  15.389  0.00  0.00    +0.000 A 
BRANCH  25  26
ATOM     26  O   UNL     1       7.828   6.298  16.340  0.00  0.00    +0.000 OA
ATOM     27  H   UNL     1       8.488   6.869  15.913  0.00  0.00    +0.000 HD
ENDBRANCH  25  26
ENDBRANCH   6  19
BRANCH   1  28
ATOM     28  C   UNL     1       4.130   2.222  19.427  0.00  0.00    +0.000 C 
BRANCH  28  29
ATOM     29  C   UNL     1       3.646   2.937  20.694  0.00  0.00    +0.000 C 
BRANCH  29  30
ATOM     30  C   UNL     1       2.570   2.132  21.429  0.00  0.00    +0.000 C 
BRANCH  30  31
ATOM     31  C   UNL     1       1.339   3.005  21.677  0.00  0.00    +0.000 C 
BRANCH  31  33
ATOM     32  C   UNL     1       0.369   2.817  19.372  0.00  0.00    +0.000 C 
ATOM     33  C   UNL     1       0.911   3.769  20.427  0.00  0.00    +0.000 C 
ENDBRANCH  31  33
ENDBRANCH  30  31
ENDBRANCH  29  30
ENDBRANCH  28  29
ENDBRANCH   1  28
TORSDOF 8
ENDMDL
MODEL 2
REMARK VINA RESULT:      -7.6      0.589      1.273
REMARK  Name = 
REMARK  10 active torsions:
REMARK  status: ('A' for Active; 'I' for Inactive)
REMARK    1  A    between atoms: C_1  and  C_2
REMARK    2  A    between atoms: C_2  and  C_3
REMARK    3  A    between atoms: C_3  and  C_4
REMARK    4  A    between atoms: C_4  and  C_5
REMARK    5  A    between atoms: C_5  and  C_6
REMARK    6  A    between atoms: C_6  and  C_7
REMARK    7  A    between atoms: C_7  and  C_8
REMARK    8  A    between atoms: C_10  and  C_11
REMARK    9  A    between atoms: C_21  and  C_22
REMARK   10  A    between atoms: C_28  and  O_29
REMARK                            x       y       z     vdW  Elec       q    Type
REMARK                         _______ _______ _______ _____ _____    ______ ____
ROOT
ATOM      1  C   UNL     1       3.868   2.903  18.008  0.00  0.00    +0.000 C 
ATOM      2  C   UNL     1       2.849   2.252  17.050  0.00  0.00    +0.000 C 
ATOM      3  N   UNL     1       3.283   4.152  18.446  0.00  0.00    +0.000 N 
ATOM      4  C   UNL     1       3.890   5.355  18.243  0.00  0.00    +0.000 C 
ATOM      5  C   UNL     1       5.104   5.421  17.687  0.00  0.00    +0.000 C 
ATOM      6  C   UNL     1       5.823   4.198  17.184  0.00  0.00    +0.000 C 
ATOM      7  N   UNL     1       5.103   2.923  17.234  0.00  0.00    +0.000 NA
ATOM      8  H   UNL     1       2.302   4.165  18.703  0.00  0.00    +0.000 HD
ATOM      9  H   UNL     1       5.742   2.190  17.522  0.00  0.00    +0.000 HD
ENDROOT
BRANCH   4  10
ATOM     10  C   UNL     1       3.165   6.581  18.581  0.00  0.00    +0.000 A 
ATOM     11  C   UNL     1       2.464   6.645  19.808  0.00  0.00    +0.000 A 
ATOM     12  C   UNL     1       1.718   7.774  20.153  0.00  0.00    +0.000 A 
ATOM     13  C   UNL     1       1.690   8.817  19.254  0.00  0.00    +0.000 A 
ATOM     14  C   UNL     1       2.372   8.764  18.058  0.00  0.00    +0.000 A 
ATOM     15  C   UNL     1       3.122   7.665  17.694  0.00  0.00    +0.000 A 
ATOM     16  O   UNL     1       2.201   9.894  17.319  0.00  0.00    +0.000 OA
ATOM     17  C   UNL     1       1.296  10.637  18.162  0.00  0.00    +0.000 C 
ATOM     18  O   UNL     1       1.008   9.981  19.414  0.00  0.00    +0.000 OA
ENDBRANCH   4  10
BRANCH   6  19
ATOM     19  C   UNL     1       6.259   4.439  15.740  0.00  0.00    +0.000 A 
ATOM     20  C   UNL     1       5.682   3.671  14.704  0.00  0.00    +0.000 A 
ATOM     21  C   UNL     1       6.002   3.919  13.374  0.00  0.00    +0.000 A 
ATOM     22 BR   UNL     1       5.195   2.891  12.006  0.00  0.00    +0.000 Br
ATOM     23  C   UNL     1       6.906   4.925  13.042  0.00  0.00    +0.000 A 
ATOM     24  C   UNL     1       7.506   5.675  14.055  0.00  0.00    +0.000 A 
ATOM     25  C   UNL     1       7.182   5.430  15.392  0.00  0.00    +0.000 A 
BRANCH  25  26
ATOM     26  O   UNL     1       7.762   6.177  16.378  0.00  0.00    +0.000 OA
ATOM     27  H   UNL     1       8.727   6.135  16.276  0.00  0.00    +0.000 HD
ENDBRANCH  25  26
ENDBRANCH   6  19
BRANCH   1  28
ATOM     28  C   UNL     1       4.011   1.975  19.250  0.00  0.00    +0.000 C 
BRANCH  28  29
ATOM     29  C   UNL     1       3.740   2.672  20.589  0.00  0.00    +0.000 C 
BRANCH  29  30
ATOM     30  C   UNL     1       2.426   2.203  21.220  0.00  0.00    +0.000 C 
BRANCH  30  31
ATOM     31  C   UNL     1       1.544   3.409  21.552  0.00  0.00    +0.000 C 
BRANCH  31  33
ATOM     32  C   UNL     1       0.411   2.674  19.438  0.00  0.00    +0.000 C 
ATOM     33  C   UNL     1       0.695   3.848  20.363  0.00  0.00    +0.000 C 
ENDBRANCH  31  33
ENDBRANCH  30  31
ENDBRANCH  29  30
ENDBRANCH  28  29
ENDBRANCH   1  28
TORSDOF 8
ENDMDL
MODEL 3
REMARK VINA RESULT:      -7.5      3.251      5.740
REMARK  Name = 
REMARK  10 active torsions:
REMARK  status: ('A' for Active; 'I' for Inactive)
REMARK    1  A    between atoms: C_1  and  C_2
REMARK    2  A    between atoms: C_2  and  C_3
REMARK    3  A    between atoms: C_3  and  C_4
REMARK    4  A    between atoms: C_4  and  C_5
REMARK    5  A    between atoms: C_5  and  C_6
REMARK    6  A    between atoms: C_6  and  C_7
REMARK    7  A    between atoms: C_7  and  C_8
REMARK    8  A    between atoms: C_10  and  C_11
REMARK    9  A    between atoms: C_21  and  C_22
REMARK   10  A    between atoms: C_28  and  O_29
REMARK                            x       y       z     vdW  Elec       q    Type
REMARK                         _______ _______ _______ _____ _____    ______ ____
ROOT
ATOM      1  C   UNL     1       7.349   5.605  17.648  0.00  0.00    +0.000 C 
ATOM      2  C   UNL     1       8.380   4.478  17.865  0.00  0.00    +0.000 C 
ATOM      3  N   UNL     1       6.108   5.147  18.234  0.00  0.00    +0.000 N 
ATOM      4  C   UNL     1       4.959   5.027  17.511  0.00  0.00    +0.000 C 
ATOM      5  C   UNL     1       4.917   5.406  16.230  0.00  0.00    +0.000 C 
ATOM      6  C   UNL     1       6.137   5.897  15.498  0.00  0.00    +0.000 C 
ATOM      7  N   UNL     1       7.414   5.859  16.214  0.00  0.00    +0.000 NA
ATOM      8  H   UNL     1       6.138   4.687  19.137  0.00  0.00    +0.000 HD
ATOM      9  H   UNL     1       7.941   6.700  16.002  0.00  0.00    +0.000 HD
ENDROOT
BRANCH   4  10
ATOM     10  C   UNL     1       3.786   4.416  18.140  0.00  0.00    +0.000 A 
ATOM     11  C   UNL     1       2.581   4.332  17.404  0.00  0.00    +0.000 A 
ATOM     12  C   UNL     1       1.423   3.801  17.978  0.00  0.00    +0.000 A 
ATOM     13  C   UNL     1       1.501   3.370  19.283  0.00  0.00    +0.000 A 
ATOM     14  C   UNL     1       2.671   3.446  20.006  0.00  0.00    +0.000 A 
ATOM     15  C   UNL     1       3.831   3.959  19.464  0.00  0.00    +0.000 A 
ATOM     16  O   UNL     1       2.523   2.975  21.274  0.00  0.00    +0.000 OA
ATOM     17  C   UNL     1       1.118   2.643  21.280  0.00  0.00    +0.000 C 
ATOM     18  O   UNL     1       0.476   2.844  20.004  0.00  0.00    +0.000 OA
ENDBRANCH   4  10
BRANCH   6  19
ATOM     19  C   UNL     1       6.295   5.099  14.206  0.00  0.00    +0.000 A 
ATOM     20  C   UNL     1       5.179   4.412  13.674  0.00  0.00    +0.000 A 
ATOM     21  C   UNL     1       5.272   3.741  12.461  0.00  0.00    +0.000 A 
ATOM     22 BR   UNL     1       3.756   2.852  11.762  0.00  0.00    +0.000 Br
ATOM     23  C   UNL     1       6.470   3.726  11.752  0.00  0.00    +0.000 A 
ATOM     24  C   UNL     1       7.590   4.377  12.275  0.00  0.00    +0.000 A 
ATOM     25  C   UNL     1       7.498   5.056  13.493  0.00  0.00    +0.000 A 
BRANCH  25  26
ATOM     26  O   UNL     1       8.592   5.702  13.994  0.00  0.00    +0.000 OA
ATOM     27  H   UNL     1       9.388   5.352  13.561  0.00  0.00    +0.000 HD
ENDBRANCH  25  26
ENDBRANCH   6  19
BRANCH   1  28
ATOM     28  C   UNL     1       7.831   6.849  18.450  0.00  0.00    +0.000 C 
BRANCH  28  29
ATOM     29  C   UNL     1       7.798   8.160  17.656  0.00  0.00    +0.000 C 
BRANCH  29  30
ATOM     30  C   UNL     1       8.613   9.263  18.339  0.00  0.00    +0.000 C 
BRANCH  30  31
ATOM     31  C   UNL     1       8.285  10.621  17.716  0.00  0.00    +0.000 C 
BRANCH  31  33
ATOM     32  C   UNL     1      10.637  11.453  17.969  0.00  0.00    +0.000 C 
ATOM     33  C   UNL     1       9.171  11.736  18.261  0.00  0.00    +0.000 C 
ENDBRANCH  31  33
ENDBRANCH  30  31
ENDBRANCH  29  30
ENDBRANCH  28  29
ENDBRANCH   1  28
TORSDOF 8
ENDMDL
MODEL 4
REMARK VINA RESULT:      -7.4      5.586      9.986
REMARK  Name = 
REMARK  10 active torsions:
REMARK  status: ('A' for Active; 'I' for Inactive)
REMARK    1  A    between atoms: C_1  and  C_2
REMARK    2  A    between atoms: C_2  and  C_3
REMARK    3  A    between atoms: C_3  and  C_4
REMARK    4  A    between atoms: C_4  and  C_5
REMARK    5  A    between atoms: C_5  and  C_6
REMARK    6  A    between atoms: C_6  and  C_7
REMARK    7  A    between atoms: C_7  and  C_8
REMARK    8  A    between atoms: C_10  and  C_11
REMARK    9  A    between atoms: C_21  and  C_22
REMARK   10  A    between atoms: C_28  and  O_29
REMARK                            x       y       z     vdW  Elec       q    Type
REMARK                         _______ _______ _______ _____ _____    ______ ____
ROOT
ATOM      1  C   UNL     1      -2.146  12.565  20.157  0.00  0.00    +0.000 C 
ATOM      2  C   UNL     1      -2.170  12.924  21.657  0.00  0.00    +0.000 C 
ATOM      3  N   UNL     1      -1.380  11.343  20.038  0.00  0.00    +0.000 N 
ATOM      4  C   UNL     1      -0.256  11.257  19.272  0.00  0.00    +0.000 C 
ATOM      5  C   UNL     1       0.146  12.294  18.532  0.00  0.00    +0.000 C 
ATOM      6  C   UNL     1      -0.557  13.624  18.566  0.00  0.00    +0.000 C 
ATOM      7  N   UNL     1      -1.657  13.782  19.520  0.00  0.00    +0.000 NA
ATOM      8  H   UNL     1      -1.542  10.601  20.710  0.00  0.00    +0.000 HD
ATOM      9  H   UNL     1      -2.407  14.306  19.082  0.00  0.00    +0.000 HD
ENDROOT
BRANCH   4  10
ATOM     10  C   UNL     1       0.544  10.031  19.323  0.00  0.00    +0.000 A 
ATOM     11  C   UNL     1       0.607   9.305  20.535  0.00  0.00    +0.000 A 
ATOM     12  C   UNL     1       1.395   8.157  20.646  0.00  0.00    +0.000 A 
ATOM     13  C   UNL     1       2.107   7.764  19.534  0.00  0.00    +0.000 A 
ATOM     14  C   UNL     1       2.049   8.464  18.350  0.00  0.00    +0.000 A 
ATOM     15  C   UNL     1       1.275   9.598  18.208  0.00  0.00    +0.000 A 
ATOM     16  O   UNL     1       2.835   7.910  17.387  0.00  0.00    +0.000 OA
ATOM     17  C   UNL     1       3.430   6.816  18.115  0.00  0.00    +0.000 C 
ATOM     18  O   UNL     1       2.934   6.688  19.464  0.00  0.00    +0.000 OA
ENDBRANCH   4  10
BRANCH   6  19
ATOM     19  C   UNL     1       0.469  14.721  18.842  0.00  0.00    +0.000 A 
ATOM     20  C   UNL     1       1.825  14.370  19.031  0.00  0.00    +0.000 A 
ATOM     21  C   UNL     1       2.793  15.352  19.208  0.00  0.00    +0.000 A 
ATOM     22 BR   UNL     1       4.604  14.854  19.435  0.00  0.00    +0.000 Br
ATOM     23  C   UNL     1       2.441  16.699  19.209  0.00  0.00    +0.000 A 
ATOM     24  C   UNL     1       1.102  17.062  19.050  0.00  0.00    +0.000 A 
ATOM     25  C   UNL     1       0.128  16.078  18.868  0.00  0.00    +0.000 A 
BRANCH  25  26
ATOM     26  O   UNL     1      -1.179  16.439  18.700  0.00  0.00    +0.000 OA
ATOM     27  H   UNL     1      -1.559  16.657  19.566  0.00  0.00    +0.000 HD
ENDBRANCH  25  26
ENDBRANCH   6  19
BRANCH   1  28
ATOM     28  C   UNL     1      -3.609  12.262  19.718  0.00  0.00    +0.000 C 
BRANCH  28  29
ATOM     29  C   UNL     1      -3.760  11.918  18.232  0.00  0.00    +0.000 C 
BRANCH  29  30
ATOM     30  C   UNL     1      -4.203  10.467  18.024  0.00  0.00    +0.000 C 
BRANCH  30  31
ATOM     31  C   UNL     1      -3.086   9.669  17.348  0.00  0.00    +0.000 C 
BRANCH  31  33
ATOM     32  C   UNL     1      -3.006  10.133  14.885  0.00  0.00    +0.000 C 
ATOM     33  C   UNL     1      -2.399  10.461  16.240  0.00  0.00    +0.000 C 
ENDBRANCH  31  33
ENDBRANCH  30  31
ENDBRANCH  29  30
ENDBRANCH  28  29
ENDBRANCH   1  28
TORSDOF 8
ENDMDL
MODEL 5
REMARK VINA RESULT:      -7.3      2.573      5.694
REMARK  Name = 
REMARK  10 active torsions:
REMARK  status: ('A' for Active; 'I' for Inactive)
REMARK    1  A    between atoms: C_1  and  C_2
REMARK    2  A    between atoms: C_2  and  C_3
REMARK    3  A    between atoms: C_3  and  C_4
REMARK    4  A    between atoms: C_4  and  C_5
REMARK    5  A    between atoms: C_5  and  C_6
REMARK    6  A    between atoms: C_6  and  C_7
REMARK    7  A    between atoms: C_7  and  C_8
REMARK    8  A    between atoms: C_10  and  C_11
REMARK    9  A    between atoms: C_21  and  C_22
REMARK   10  A    between atoms: C_28  and  O_29
REMARK                            x       y       z     vdW  Elec       q    Type
REMARK                         _______ _______ _______ _____ _____    ______ ____
ROOT
ATOM      1  C   UNL     1       4.928   6.285  16.939  0.00  0.00    +0.000 C 
ATOM      2  C   UNL     1       6.303   6.553  17.584  0.00  0.00    +0.000 C 
ATOM      3  N   UNL     1       4.053   7.352  17.376  0.00  0.00    +0.000 N 
ATOM      4  C   UNL     1       2.899   7.116  18.062  0.00  0.00    +0.000 C 
ATOM      5  C   UNL     1       2.489   5.866  18.297  0.00  0.00    +0.000 C 
ATOM      6  C   UNL     1       3.306   4.666  17.899  0.00  0.00    +0.000 C 
ATOM      7  N   UNL     1       4.630   4.911  17.323  0.00  0.00    +0.000 NA
ATOM      8  H   UNL     1       4.409   8.302  17.379  0.00  0.00    +0.000 HD
ATOM      9  H   UNL     1       4.787   4.263  16.559  0.00  0.00    +0.000 HD
ENDROOT
BRANCH   4  10
ATOM     10  C   UNL     1       2.148   8.253  18.598  0.00  0.00    +0.000 A 
ATOM     11  C   UNL     1       1.994   9.409  17.798  0.00  0.00    +0.000 A 
ATOM     12  C   UNL     1       1.327  10.537  18.282  0.00  0.00    +0.000 A 
ATOM     13  C   UNL     1       0.832  10.479  19.566  0.00  0.00    +0.000 A 
ATOM     14  C   UNL     1       0.975   9.356  20.351  0.00  0.00    +0.000 A 
ATOM     15  C   UNL     1       1.623   8.226  19.897  0.00  0.00    +0.000 A 
ATOM     16  O   UNL     1       0.422   9.518  21.584  0.00  0.00    +0.000 OA
ATOM     17  C   UNL     1      -0.039  10.883  21.501  0.00  0.00    +0.000 C 
ATOM     18  O   UNL     1       0.174  11.482  20.205  0.00  0.00    +0.000 OA
ENDBRANCH   4  10
BRANCH   6  19
ATOM     19  C   UNL     1       3.480   3.760  19.116  0.00  0.00    +0.000 A 
ATOM     20  C   UNL     1       2.391   3.563  19.995  0.00  0.00    +0.000 A 
ATOM     21  C   UNL     1       2.495   2.685  21.068  0.00  0.00    +0.000 A 
ATOM     22 BR   UNL     1       1.014   2.423  22.214  0.00  0.00    +0.000 Br
ATOM     23  C   UNL     1       3.679   1.990  21.299  0.00  0.00    +0.000 A 
ATOM     24  C   UNL     1       4.774   2.193  20.456  0.00  0.00    +0.000 A 
ATOM     25  C   UNL     1       4.670   3.071  19.374  0.00  0.00    +0.000 A 
BRANCH  25  26
ATOM     26  O   UNL     1       5.740   3.256  18.545  0.00  0.00    +0.000 OA
ATOM     27  H   UNL     1       6.111   4.139  18.703  0.00  0.00    +0.000 HD
ENDBRANCH  25  26
ENDBRANCH   6  19
BRANCH   1  28
ATOM     28  C   UNL     1       5.098   6.402  15.395  0.00  0.00    +0.000 C 
BRANCH  28  29
ATOM     29  C   UNL     1       6.115   5.422  14.800  0.00  0.00    +0.000 C 
BRANCH  29  30
ATOM     30  C   UNL     1       5.436   4.326  13.973  0.00  0.00    +0.000 C 
BRANCH  30  31
ATOM     31  C   UNL     1       6.416   3.763  12.942  0.00  0.00    +0.000 C 
BRANCH  31  33
ATOM     32  C   UNL     1       4.340   3.367  11.591  0.00  0.00    +0.000 C 
ATOM     33  C   UNL     1       5.729   2.849  11.932  0.00  0.00    +0.000 C 
ENDBRANCH  31  33
ENDBRANCH  30  31
ENDBRANCH  29  30
ENDBRANCH  28  29
ENDBRANCH   1  28
TORSDOF 8
ENDMDL
MODEL 6
REMARK VINA RESULT:      -7.2      5.495     10.008
REMARK  Name = 
REMARK  10 active torsions:
REMARK  status: ('A' for Active; 'I' for Inactive)
REMARK    1  A    between atoms: C_1  and  C_2
REMARK    2  A    between atoms: C_2  and  C_3
REMARK    3  A    between atoms: C_3  and  C_4
REMARK    4  A    between atoms: C_4  and  C_5
REMARK    5  A    between atoms: C_5  and  C_6
REMARK    6  A    between atoms: C_6  and  C_7
REMARK    7  A    between atoms: C_7  and  C_8
REMARK    8  A    between atoms: C_10  and  C_11
REMARK    9  A    between atoms: C_21  and  C_22
REMARK   10  A    between atoms: C_28  and  O_29
REMARK                            x       y       z     vdW  Elec       q    Type
REMARK                         _______ _______ _______ _____ _____    ______ ____
ROOT
ATOM      1  C   UNL     1      -1.640  12.757  21.108  0.00  0.00    +0.000 C 
ATOM      2  C   UNL     1      -1.155  13.237  22.492  0.00  0.00    +0.000 C 
ATOM      3  N   UNL     1      -0.967  11.503  20.848  0.00  0.00    +0.000 N 
ATOM      4  C   UNL     1      -0.167  11.315  19.760  0.00  0.00    +0.000 C 
ATOM      5  C   UNL     1      -0.032  12.274  18.839  0.00  0.00    +0.000 C 
ATOM      6  C   UNL     1      -0.675  13.627  18.990  0.00  0.00    +0.000 C 
ATOM      7  N   UNL     1      -1.388  13.900  20.240  0.00  0.00    +0.000 NA
ATOM      8  H   UNL     1      -0.897  10.824  21.598  0.00  0.00    +0.000 HD
ATOM      9  H   UNL     1      -2.238  14.413  20.034  0.00  0.00    +0.000 HD
ENDROOT
BRANCH   4  10
ATOM     10  C   UNL     1       0.596  10.070  19.648  0.00  0.00    +0.000 A 
ATOM     11  C   UNL     1       0.683   9.217  20.773  0.00  0.00    +0.000 A 
ATOM     12  C   UNL     1       1.438   8.043  20.729  0.00  0.00    +0.000 A 
ATOM     13  C   UNL     1       2.095   7.753  19.554  0.00  0.00    +0.000 A 
ATOM     14  C   UNL     1       2.013   8.576  18.453  0.00  0.00    +0.000 A 
ATOM     15  C   UNL     1       1.270   9.739  18.465  0.00  0.00    +0.000 A 
ATOM     16  O   UNL     1       2.744   8.107  17.405  0.00  0.00    +0.000 OA
ATOM     17  C   UNL     1       3.332   6.926  17.989  0.00  0.00    +0.000 C 
ATOM     18  O   UNL     1       2.884   6.668  19.336  0.00  0.00    +0.000 OA
ENDBRANCH   4  10
BRANCH   6  19
ATOM     19  C   UNL     1       0.390  14.705  18.807  0.00  0.00    +0.000 A 
ATOM     20  C   UNL     1       1.745  14.326  18.670  0.00  0.00    +0.000 A 
ATOM     21  C   UNL     1       2.727  15.279  18.426  0.00  0.00    +0.000 A 
ATOM     22 BR   UNL     1       4.528  14.739  18.222  0.00  0.00    +0.000 Br
ATOM     23  C   UNL     1       2.393  16.626  18.321  0.00  0.00    +0.000 A 
ATOM     24  C   UNL     1       1.063  17.021  18.480  0.00  0.00    +0.000 A 
ATOM     25  C   UNL     1       0.073  16.065  18.721  0.00  0.00    +0.000 A 
BRANCH  25  26
ATOM     26  O   UNL     1      -1.228  16.456  18.863  0.00  0.00    +0.000 OA
ATOM     27  H   UNL     1      -1.692  16.313  18.022  0.00  0.00    +0.000 HD
ENDBRANCH  25  26
ENDBRANCH   6  19
BRANCH   1  28
ATOM     28  C   UNL     1      -3.168  12.471  21.215  0.00  0.00    +0.000 C 
BRANCH  28  29
ATOM     29  C   UNL     1      -3.991  13.016  20.041  0.00  0.00    +0.000 C 
BRANCH  29  30
ATOM     30  C   UNL     1      -4.521  11.892  19.146  0.00  0.00    +0.000 C 
BRANCH  30  31
ATOM     31  C   UNL     1      -3.529  11.608  18.017  0.00  0.00    +0.000 C 
BRANCH  31  33
ATOM     32  C   UNL     1      -2.149   9.878  16.836  0.00  0.00    +0.000 C 
ATOM     33  C   UNL     1      -3.262  10.115  17.845  0.00  0.00    +0.000 C 
ENDBRANCH  31  33
ENDBRANCH  30  31
ENDBRANCH  29  30
ENDBRANCH  28  29
ENDBRANCH   1  28
TORSDOF 8
ENDMDL
MODEL 7
REMARK VINA RESULT:      -7.2      2.581      5.783
REMARK  Name = 
REMARK  10 active torsions:
REMARK  status: ('A' for Active; 'I' for Inactive)
REMARK    1  A    between atoms: C_1  and  C_2
REMARK    2  A    between atoms: C_2  and  C_3
REMARK    3  A    between atoms: C_3  and  C_4
REMARK    4  A    between atoms: C_4  and  C_5
REMARK    5  A    between atoms: C_5  and  C_6
REMARK    6  A    between atoms: C_6  and  C_7
REMARK    7  A    between atoms: C_7  and  C_8
REMARK    8  A    between atoms: C_10  and  C_11
REMARK    9  A    between atoms: C_21  and  C_22
REMARK   10  A    between atoms: C_28  and  O_29
REMARK                            x       y       z     vdW  Elec       q    Type
REMARK                         _______ _______ _______ _____ _____    ______ ____
ROOT
ATOM      1  C   UNL     1       4.855   5.708  17.267  0.00  0.00    +0.000 C 
ATOM      2  C   UNL     1       6.174   5.805  18.060  0.00  0.00    +0.000 C 
ATOM      3  N   UNL     1       4.094   6.897  17.586  0.00  0.00    +0.000 N 
ATOM      4  C   UNL     1       2.849   6.841  18.140  0.00  0.00    +0.000 C 
ATOM      5  C   UNL     1       2.246   5.666  18.344  0.00  0.00    +0.000 C 
ATOM      6  C   UNL     1       2.928   4.354  18.059  0.00  0.00    +0.000 C 
ATOM      7  N   UNL     1       4.328   4.400  17.634  0.00  0.00    +0.000 NA
ATOM      8  H   UNL     1       4.575   7.789  17.615  0.00  0.00    +0.000 HD
ATOM      9  H   UNL     1       4.477   3.713  16.902  0.00  0.00    +0.000 HD
ENDROOT
BRANCH   4  10
ATOM     10  C   UNL     1       2.209   8.086  18.570  0.00  0.00    +0.000 A 
ATOM     11  C   UNL     1       2.227   9.201  17.701  0.00  0.00    +0.000 A 
ATOM     12  C   UNL     1       1.672  10.423  18.086  0.00  0.00    +0.000 A 
ATOM     13  C   UNL     1       1.112  10.499  19.342  0.00  0.00    +0.000 A 
ATOM     14  C   UNL     1       1.088   9.417  20.193  0.00  0.00    +0.000 A 
ATOM     15  C   UNL     1       1.622   8.196  19.838  0.00  0.00    +0.000 A 
ATOM     16  O   UNL     1       0.497   9.714  21.383  0.00  0.00    +0.000 OA
ATOM     17  C   UNL     1       0.201  11.115  21.201  0.00  0.00    +0.000 C 
ATOM     18  O   UNL     1       0.544  11.606  19.888  0.00  0.00    +0.000 OA
ENDBRANCH   4  10
BRANCH   6  19
ATOM     19  C   UNL     1       2.838   3.470  19.301  0.00  0.00    +0.000 A 
ATOM     20  C   UNL     1       3.973   2.735  19.712  0.00  0.00    +0.000 A 
ATOM     21  C   UNL     1       3.945   1.980  20.879  0.00  0.00    +0.000 A 
ATOM     22 BR   UNL     1       5.487   1.027  21.418  0.00  0.00    +0.000 Br
ATOM     23  C   UNL     1       2.794   1.931  21.660  0.00  0.00    +0.000 A 
ATOM     24  C   UNL     1       1.654   2.630  21.255  0.00  0.00    +0.000 A 
ATOM     25  C   UNL     1       1.682   3.391  20.083  0.00  0.00    +0.000 A 
BRANCH  25  26
ATOM     26  O   UNL     1       0.569   4.084  19.699  0.00  0.00    +0.000 OA
ATOM     27  H   UNL     1       0.712   5.029  19.870  0.00  0.00    +0.000 HD
ENDBRANCH  25  26
ENDBRANCH   6  19
BRANCH   1  28
ATOM     28  C   UNL     1       5.209   5.755  15.751  0.00  0.00    +0.000 C 
BRANCH  28  29
ATOM     29  C   UNL     1       6.611   5.231  15.418  0.00  0.00    +0.000 C 
BRANCH  29  30
ATOM     30  C   UNL     1       6.558   3.993  14.517  0.00  0.00    +0.000 C 
BRANCH  30  31
ATOM     31  C   UNL     1       5.394   4.110  13.532  0.00  0.00    +0.000 C 
BRANCH  31  33
ATOM     32  C   UNL     1       4.351   3.254  11.418  0.00  0.00    +0.000 C 
ATOM     33  C   UNL     1       5.592   3.236  12.297  0.00  0.00    +0.000 C 
ENDBRANCH  31  33
ENDBRANCH  30  31
ENDBRANCH  29  30
ENDBRANCH  28  29
ENDBRANCH   1  28
TORSDOF 8
ENDMDL
MODEL 8
REMARK VINA RESULT:      -7.2      4.774      9.480
REMARK  Name = 
REMARK  10 active torsions:
REMARK  status: ('A' for Active; 'I' for Inactive)
REMARK    1  A    between atoms: C_1  and  C_2
REMARK    2  A    between atoms: C_2  and  C_3
REMARK    3  A    between atoms: C_3  and  C_4
REMARK    4  A    between atoms: C_4  and  C_5
REMARK    5  A    between atoms: C_5  and  C_6
REMARK    6  A    between atoms: C_6  and  C_7
REMARK    7  A    between atoms: C_7  and  C_8
REMARK    8  A    between atoms: C_10  and  C_11
REMARK    9  A    between atoms: C_21  and  C_22
REMARK   10  A    between atoms: C_28  and  O_29
REMARK                            x       y       z     vdW  Elec       q    Type
REMARK                         _______ _______ _______ _____ _____    ______ ____
ROOT
ATOM      1  C   UNL     1       0.315  12.960  19.609  0.00  0.00    +0.000 C 
ATOM      2  C   UNL     1       0.789  13.866  18.453  0.00  0.00    +0.000 C 
ATOM      3  N   UNL     1       1.068  11.729  19.503  0.00  0.00    +0.000 N 
ATOM      4  C   UNL     1       0.467  10.516  19.350  0.00  0.00    +0.000 C 
ATOM      5  C   UNL     1      -0.865  10.408  19.367  0.00  0.00    +0.000 C 
ATOM      6  C   UNL     1      -1.766  11.610  19.468  0.00  0.00    +0.000 C 
ATOM      7  N   UNL     1      -1.134  12.931  19.451  0.00  0.00    +0.000 NA
ATOM      8  H   UNL     1       2.062  11.783  19.307  0.00  0.00    +0.000 HD
ATOM      9  H   UNL     1      -1.599  13.533  20.122  0.00  0.00    +0.000 HD
ENDROOT
BRANCH   4  10
ATOM     10  C   UNL     1       1.300   9.338  19.100  0.00  0.00    +0.000 A 
ATOM     11  C   UNL     1       1.960   9.218  17.855  0.00  0.00    +0.000 A 
ATOM     12  C   UNL     1       2.726   8.091  17.552  0.00  0.00    +0.000 A 
ATOM     13  C   UNL     1       2.810   7.103  18.509  0.00  0.00    +0.000 A 
ATOM     14  C   UNL     1       2.174   7.214  19.725  0.00  0.00    +0.000 A 
ATOM     15  C   UNL     1       1.415   8.318  20.054  0.00  0.00    +0.000 A 
ATOM     16  O   UNL     1       2.381   6.124  20.513  0.00  0.00    +0.000 OA
ATOM     17  C   UNL     1       3.176   5.299  19.637  0.00  0.00    +0.000 C 
ATOM     18  O   UNL     1       3.494   5.936  18.382  0.00  0.00    +0.000 OA
ENDBRANCH   4  10
BRANCH   6  19
ATOM     19  C   UNL     1      -2.788  11.560  18.334  0.00  0.00    +0.000 A 
ATOM     20  C   UNL     1      -2.453  10.905  17.127  0.00  0.00    +0.000 A 
ATOM     21  C   UNL     1      -3.389  10.777  16.107  0.00  0.00    +0.000 A 
ATOM     22 BR   UNL     1      -2.921   9.873  14.513  0.00  0.00    +0.000 Br
ATOM     23  C   UNL     1      -4.670  11.302  16.254  0.00  0.00    +0.000 A 
ATOM     24  C   UNL     1      -5.009  11.976  17.429  0.00  0.00    +0.000 A 
ATOM     25  C   UNL     1      -4.072  12.102  18.457  0.00  0.00    +0.000 A 
BRANCH  25  26
ATOM     26  O   UNL     1      -4.413  12.751  19.610  0.00  0.00    +0.000 OA
ATOM     27  H   UNL     1      -3.774  12.518  20.303  0.00  0.00    +0.000 HD
ENDBRANCH  25  26
ENDBRANCH   6  19
BRANCH   1  28
ATOM     28  C   UNL     1       0.710  13.654  20.947  0.00  0.00    +0.000 C 
BRANCH  28  29
ATOM     29  C   UNL     1      -0.472  14.256  21.715  0.00  0.00    +0.000 C 
BRANCH  29  30
ATOM     30  C   UNL     1      -0.967  13.322  22.824  0.00  0.00    +0.000 C 
BRANCH  30  31
ATOM     31  C   UNL     1      -0.334  11.939  22.666  0.00  0.00    +0.000 C 
BRANCH  31  33
ATOM     32  C   UNL     1      -0.567   9.474  23.067  0.00  0.00    +0.000 C 
ATOM     33  C   UNL     1      -1.273  10.820  23.109  0.00  0.00    +0.000 C 
ENDBRANCH  31  33
ENDBRANCH  30  31
ENDBRANCH  29  30
ENDBRANCH  28  29
ENDBRANCH   1  28
TORSDOF 8
ENDMDL
MODEL 9
REMARK VINA RESULT:      -7.1      4.021      7.085
REMARK  Name = 
REMARK  10 active torsions:
REMARK  status: ('A' for Active; 'I' for Inactive)
REMARK    1  A    between atoms: C_1  and  C_2
REMARK    2  A    between atoms: C_2  and  C_3
REMARK    3  A    between atoms: C_3  and  C_4
REMARK    4  A    between atoms: C_4  and  C_5
REMARK    5  A    between atoms: C_5  and  C_6
REMARK    6  A    between atoms: C_6  and  C_7
REMARK    7  A    between atoms: C_7  and  C_8
REMARK    8  A    between atoms: C_10  and  C_11
REMARK    9  A    between atoms: C_21  and  C_22
REMARK   10  A    between atoms: C_28  and  O_29
REMARK                            x       y       z     vdW  Elec       q    Type
REMARK                         _______ _______ _______ _____ _____    ______ ____
ROOT
ATOM      1  C   UNL     1       6.793   5.383  16.224  0.00  0.00    +0.000 C 
ATOM      2  C   UNL     1       7.393   4.208  17.024  0.00  0.00    +0.000 C 
ATOM      3  N   UNL     1       7.512   6.570  16.634  0.00  0.00    +0.000 N 
ATOM      4  C   UNL     1       6.886   7.651  17.181  0.00  0.00    +0.000 C 
ATOM      5  C   UNL     1       5.555   7.684  17.293  0.00  0.00    +0.000 C 
ATOM      6  C   UNL     1       4.689   6.514  16.907  0.00  0.00    +0.000 C 
ATOM      7  N   UNL     1       5.363   5.284  16.488  0.00  0.00    +0.000 NA
ATOM      8  H   UNL     1       8.520   6.518  16.734  0.00  0.00    +0.000 HD
ATOM      9  H   UNL     1       4.862   4.878  15.705  0.00  0.00    +0.000 HD
ENDROOT
BRANCH   4  10
ATOM     10  C   UNL     1       7.699   8.750  17.707  0.00  0.00    +0.000 A 
ATOM     11  C   UNL     1       8.601   8.489  18.765  0.00  0.00    +0.000 A 
ATOM     12  C   UNL     1       9.362   9.514  19.331  0.00  0.00    +0.000 A 
ATOM     13  C   UNL     1       9.197  10.784  18.823  0.00  0.00    +0.000 A 
ATOM     14  C   UNL     1       8.323  11.045  17.791  0.00  0.00    +0.000 A 
ATOM     15  C   UNL     1       7.564  10.052  17.208  0.00  0.00    +0.000 A 
ATOM     16  O   UNL     1       8.310  12.363  17.452  0.00  0.00    +0.000 OA
ATOM     17  C   UNL     1       9.234  12.904  18.419  0.00  0.00    +0.000 C 
ATOM     18  O   UNL     1       9.838  11.899  19.259  0.00  0.00    +0.000 OA
ENDBRANCH   4  10
BRANCH   6  19
ATOM     19  C   UNL     1       3.767   6.174  18.076  0.00  0.00    +0.000 A 
ATOM     20  C   UNL     1       3.837   4.891  18.664  0.00  0.00    +0.000 A 
ATOM     21  C   UNL     1       3.064   4.578  19.776  0.00  0.00    +0.000 A 
ATOM     22 BR   UNL     1       3.197   2.860  20.557  0.00  0.00    +0.000 Br
ATOM     23  C   UNL     1       2.201   5.522  20.325  0.00  0.00    +0.000 A 
ATOM     24  C   UNL     1       2.100   6.786  19.740  0.00  0.00    +0.000 A 
ATOM     25  C   UNL     1       2.878   7.105  18.625  0.00  0.00    +0.000 A 
BRANCH  25  26
ATOM     26  O   UNL     1       2.785   8.347  18.065  0.00  0.00    +0.000 OA
ATOM     27  H   UNL     1       3.648   8.589  17.691  0.00  0.00    +0.000 HD
ENDBRANCH  25  26
ENDBRANCH   6  19
BRANCH   1  28
ATOM     28  C   UNL     1       7.095   5.133  14.717  0.00  0.00    +0.000 C 
BRANCH  28  29
ATOM     29  C   UNL     1       6.326   3.954  14.110  0.00  0.00    +0.000 C 
BRANCH  29  30
ATOM     30  C   UNL     1       6.559   3.836  12.601  0.00  0.00    +0.000 C 
BRANCH  30  31
ATOM     31  C   UNL     1       5.361   3.154  11.937  0.00  0.00    +0.000 C 
BRANCH  31  33
ATOM     32  C   UNL     1       7.160   1.676  11.004  0.00  0.00    +0.000 C 
ATOM     33  C   UNL     1       5.702   1.756  11.429  0.00  0.00    +0.000 C 
ENDBRANCH  31  33
ENDBRANCH  30  31
ENDBRANCH  29  30
ENDBRANCH  28  29
ENDBRANCH   1  28
TORSDOF 8
ENDMDL
