MODEL 1
REMARK VINA RESULT:      -7.6      0.000      0.000
REMARK  Name = 
REMARK  6 active torsions:
REMARK  status: ('A' for Active; 'I' for Inactive)
REMARK    1  A    between atoms: C_1  and  C_2
REMARK    2  A    between atoms: C_2  and  C_3
REMARK    3  A    between atoms: N_5  and  C_6
REMARK    4  A    between atoms: C_9  and  N_10
REMARK    5  A    between atoms: N_14  and  C_15
REMARK    6  A    between atoms: C_21  and  C_22
REMARK                            x       y       z     vdW  Elec       q    Type
REMARK                         _______ _______ _______ _____ _____    ______ ____
ROOT
ATOM      1  N   UNL     1       2.532  10.283  18.058  0.00  0.00    +0.000 N 
ATOM      2  C   UNL     1       1.868  11.421  18.420  0.00  0.00    +0.000 A 
ATOM      3  N   UNL     1       2.669  12.514  18.674  0.00  0.00    +0.000 NA
ATOM      4  C   UNL     1       2.127  13.632  19.073  0.00  0.00    +0.000 A 
ATOM      5  N   UNL     1       2.822  14.780  19.406  0.00  0.00    +0.000 N 
ATOM      6  N   UNL     1       0.733  13.681  19.183  0.00  0.00    +0.000 N 
ATOM      7  N   UNL     1       0.028  14.778  19.553  0.00  0.00    +0.000 NA
ATOM      8  C   UNL     1      -1.239  14.347  19.483  0.00  0.00    +0.000 A 
ATOM      9  C   UNL     1      -1.338  12.988  19.091  0.00  0.00    +0.000 A 
ATOM     10  C   UNL     1      -0.032  12.583  18.908  0.00  0.00    +0.000 A 
ATOM     11  N   UNL     1       0.566  11.420  18.541  0.00  0.00    +0.000 NA
ATOM     12  H   UNL     1       3.538  10.404  18.063  0.00  0.00    +0.000 HD
ATOM     13  H   UNL     1       2.260  15.612  19.583  0.00  0.00    +0.000 HD
ENDROOT
BRANCH   9  14
ATOM     14  C   UNL     1      -2.528  12.218  18.903  0.00  0.00    +0.000 C 
ATOM     15  C   UNL     1      -2.915  11.580  17.794  0.00  0.00    +0.000 C 
ATOM     16  N   UNL     1      -2.268  11.491  16.600  0.00  0.00    +0.000 N 
ATOM     17  C   UNL     1      -2.992  10.705  15.722  0.00  0.00    +0.000 C 
ATOM     18  O   UNL     1      -2.703  10.422  14.573  0.00  0.00    +0.000 OA
ATOM     19  N   UNL     1      -4.122  10.291  16.372  0.00  0.00    +0.000 N 
ATOM     20  C   UNL     1      -4.171  10.785  17.646  0.00  0.00    +0.000 C 
ATOM     21  O   UNL     1      -5.042  10.620  18.477  0.00  0.00    +0.000 OA
ATOM     22  H   UNL     1      -1.421  11.997  16.368  0.00  0.00    +0.000 HD
ATOM     23  H   UNL     1      -4.829   9.724  15.944  0.00  0.00    +0.000 HD
ENDBRANCH   9  14
BRANCH   1  27
ATOM     24  C   UNL     1       2.425   6.242  19.571  0.00  0.00    +0.000 C 
ATOM     25  C   UNL     1       2.519   6.473  18.058  0.00  0.00    +0.000 C 
ATOM     26  C   UNL     1       2.987   7.897  17.743  0.00  0.00    +0.000 C 
ATOM     27  C   UNL     1       2.040   8.943  18.352  0.00  0.00    +0.000 C 
ATOM     28  C   UNL     1       1.942   8.723  19.870  0.00  0.00    +0.000 C 
ATOM     29  C   UNL     1       1.527   7.297  20.215  0.00  0.00    +0.000 C 
BRANCH  24  32
ATOM     30  C   UNL     1       2.729   3.796  19.876  0.00  0.00    +0.000 C 
ATOM     31  O   UNL     1       3.921   3.828  19.590  0.00  0.00    +0.000 OA
ATOM     32  N   UNL     1       1.924   4.915  19.891  0.00  0.00    +0.000 N 
ATOM     33  H   UNL     1       0.934   4.805  20.079  0.00  0.00    +0.000 HD
BRANCH  30  35
ATOM     34  C   UNL     1       1.394   2.607  21.658  0.00  0.00    +0.000 C 
ATOM     35  C   UNL     1       1.990   2.527  20.263  0.00  0.00    +0.000 C 
ENDBRANCH  30  35
ENDBRANCH  24  32
ENDBRANCH   1  27
BRANCH   5  36
ATOM     36  C   UNL     1       4.267  14.837  19.266  0.00  0.00    +0.000 C 
ATOM     37  C   UNL     1       4.917  15.103  17.938  0.00  0.00    +0.000 C 
ATOM     38  C   UNL     1       4.958  16.148  19.012  0.00  0.00    +0.000 C 
ENDBRANCH   5  36
TORSDOF 5
ENDMDL
MODEL 2
REMARK VINA RESULT:      -7.4      3.499      6.496
REMARK  Name = 
REMARK  6 active torsions:
REMARK  status: ('A' for Active; 'I' for Inactive)
REMARK    1  A    between atoms: C_1  and  C_2
REMARK    2  A    between atoms: C_2  and  C_3
REMARK    3  A    between atoms: N_5  and  C_6
REMARK    4  A    between atoms: C_9  and  N_10
REMARK    5  A    between atoms: N_14  and  C_15
REMARK    6  A    between atoms: C_21  and  C_22
REMARK                            x       y       z     vdW  Elec       q    Type
REMARK                         _______ _______ _______ _____ _____    ______ ____
ROOT
ATOM      1  N   UNL     1       0.220   9.995  20.371  0.00  0.00    +0.000 N 
ATOM      2  C   UNL     1      -0.006  11.324  20.150  0.00  0.00    +0.000 A 
ATOM      3  N   UNL     1      -1.332  11.699  20.127  0.00  0.00    +0.000 NA
ATOM      4  C   UNL     1      -1.648  12.940  19.875  0.00  0.00    +0.000 A 
ATOM      5  N   UNL     1      -2.937  13.430  19.776  0.00  0.00    +0.000 N 
ATOM      6  N   UNL     1      -0.605  13.854  19.679  0.00  0.00    +0.000 N 
ATOM      7  N   UNL     1      -0.777  15.177  19.441  0.00  0.00    +0.000 NA
ATOM      8  C   UNL     1       0.484  15.622  19.354  0.00  0.00    +0.000 A 
ATOM      9  C   UNL     1       1.445  14.593  19.519  0.00  0.00    +0.000 A 
ATOM     10  C   UNL     1       0.699  13.451  19.724  0.00  0.00    +0.000 A 
ATOM     11  N   UNL     1       0.993  12.143  19.941  0.00  0.00    +0.000 NA
ATOM     12  H   UNL     1      -0.639   9.465  20.454  0.00  0.00    +0.000 HD
ATOM     13  H   UNL     1      -3.029  14.442  19.696  0.00  0.00    +0.000 HD
ENDROOT
BRANCH   9  14
ATOM     14  C   UNL     1       2.869  14.717  19.500  0.00  0.00    +0.000 C 
ATOM     15  C   UNL     1       3.697  14.723  20.550  0.00  0.00    +0.000 C 
ATOM     16  N   UNL     1       3.390  14.592  21.870  0.00  0.00    +0.000 N 
ATOM     17  C   UNL     1       4.544  14.615  22.632  0.00  0.00    +0.000 C 
ATOM     18  O   UNL     1       4.630  14.525  23.844  0.00  0.00    +0.000 OA
ATOM     19  N   UNL     1       5.601  14.768  21.779  0.00  0.00    +0.000 N 
ATOM     20  C   UNL     1       5.183  14.855  20.481  0.00  0.00    +0.000 C 
ATOM     21  O   UNL     1       5.864  15.008  19.486  0.00  0.00    +0.000 OA
ATOM     22  H   UNL     1       2.446  14.565  22.238  0.00  0.00    +0.000 HD
ATOM     23  H   UNL     1       6.553  14.838  22.086  0.00  0.00    +0.000 HD
ENDBRANCH   9  14
BRANCH   1  27
ATOM     24  C   UNL     1       2.528   6.991  18.303  0.00  0.00    +0.000 C 
ATOM     25  C   UNL     1       2.587   7.058  19.833  0.00  0.00    +0.000 C 
ATOM     26  C   UNL     1       1.405   7.852  20.398  0.00  0.00    +0.000 C 
ATOM     27  C   UNL     1       1.372   9.281  19.835  0.00  0.00    +0.000 C 
ATOM     28  C   UNL     1       1.309   9.226  18.301  0.00  0.00    +0.000 C 
ATOM     29  C   UNL     1       2.446   8.398  17.712  0.00  0.00    +0.000 C 
BRANCH  24  32
ATOM     30  C   UNL     1       3.632   4.960  17.395  0.00  0.00    +0.000 C 
ATOM     31  O   UNL     1       2.635   4.260  17.533  0.00  0.00    +0.000 OA
ATOM     32  N   UNL     1       3.674   6.293  17.741  0.00  0.00    +0.000 N 
ATOM     33  H   UNL     1       4.551   6.796  17.654  0.00  0.00    +0.000 HD
BRANCH  30  35
ATOM     34  C   UNL     1       5.346   5.213  15.559  0.00  0.00    +0.000 C 
ATOM     35  C   UNL     1       4.941   4.455  16.812  0.00  0.00    +0.000 C 
ENDBRANCH  30  35
ENDBRANCH  24  32
ENDBRANCH   1  27
BRANCH   5  36
ATOM     36  C   UNL     1      -4.078  12.566  20.022  0.00  0.00    +0.000 C 
ATOM     37  C   UNL     1      -4.961  12.754  21.223  0.00  0.00    +0.000 C 
ATOM     38  C   UNL     1      -5.480  13.085  19.855  0.00  0.00    +0.000 C 
ENDBRANCH   5  36
TORSDOF 5
ENDMDL
MODEL 3
REMARK VINA RESULT:      -7.4      3.383      6.359
REMARK  Name = 
REMARK  6 active torsions:
REMARK  status: ('A' for Active; 'I' for Inactive)
REMARK    1  A    between atoms: C_1  and  C_2
REMARK    2  A    between atoms: C_2  and  C_3
REMARK    3  A    between atoms: N_5  and  C_6
REMARK    4  A    between atoms: C_9  and  N_10
REMARK    5  A    between atoms: N_14  and  C_15
REMARK    6  A    between atoms: C_21  and  C_22
REMARK                            x       y       z     vdW  Elec       q    Type
REMARK                         _______ _______ _______ _____ _____    ______ ____
ROOT
ATOM      1  N   UNL     1       0.640   9.915  20.555  0.00  0.00    +0.000 N 
ATOM      2  C   UNL     1       0.455  11.200  20.128  0.00  0.00    +0.000 A 
ATOM      3  N   UNL     1      -0.824  11.691  20.278  0.00  0.00    +0.000 NA
ATOM      4  C   UNL     1      -1.108  12.892  19.855  0.00  0.00    +0.000 A 
ATOM      5  N   UNL     1      -2.359  13.479  19.903  0.00  0.00    +0.000 N 
ATOM      6  N   UNL     1      -0.072  13.652  19.299  0.00  0.00    +0.000 N 
ATOM      7  N   UNL     1      -0.207  14.923  18.848  0.00  0.00    +0.000 NA
ATOM      8  C   UNL     1       1.036  15.222  18.447  0.00  0.00    +0.000 A 
ATOM      9  C   UNL     1       1.946  14.150  18.626  0.00  0.00    +0.000 A 
ATOM     10  C   UNL     1       1.188  13.140  19.180  0.00  0.00    +0.000 A 
ATOM     11  N   UNL     1       1.440  11.868  19.587  0.00  0.00    +0.000 NA
ATOM     12  H   UNL     1      -0.216   9.493  20.895  0.00  0.00    +0.000 HD
ATOM     13  H   UNL     1      -2.405  14.465  19.648  0.00  0.00    +0.000 HD
ENDROOT
BRANCH   9  14
ATOM     14  C   UNL     1       3.343  14.132  18.322  0.00  0.00    +0.000 C 
ATOM     15  C   UNL     1       4.239  15.093  18.570  0.00  0.00    +0.000 C 
ATOM     16  N   UNL     1       4.046  16.294  19.182  0.00  0.00    +0.000 N 
ATOM     17  C   UNL     1       5.243  16.980  19.273  0.00  0.00    +0.000 C 
ATOM     18  O   UNL     1       5.427  18.082  19.760  0.00  0.00    +0.000 OA
ATOM     19  N   UNL     1       6.212  16.201  18.705  0.00  0.00    +0.000 N 
ATOM     20  C   UNL     1       5.694  15.028  18.234  0.00  0.00    +0.000 C 
ATOM     21  O   UNL     1       6.279  14.128  17.665  0.00  0.00    +0.000 OA
ATOM     22  H   UNL     1       3.140  16.658  19.453  0.00  0.00    +0.000 HD
ATOM     23  H   UNL     1       7.171  16.484  18.623  0.00  0.00    +0.000 HD
ENDBRANCH   9  14
BRANCH   1  27
ATOM     24  C   UNL     1       2.268   6.537  18.419  0.00  0.00    +0.000 C 
ATOM     25  C   UNL     1       2.442   6.615  19.940  0.00  0.00    +0.000 C 
ATOM     26  C   UNL     1       1.451   7.604  20.560  0.00  0.00    +0.000 C 
ATOM     27  C   UNL     1       1.617   9.010  19.964  0.00  0.00    +0.000 C 
ATOM     28  C   UNL     1       1.441   8.944  18.439  0.00  0.00    +0.000 C 
ATOM     29  C   UNL     1       2.382   7.929  17.798  0.00  0.00    +0.000 C 
BRANCH  24  32
ATOM     30  C   UNL     1       2.925   4.368  17.402  0.00  0.00    +0.000 C 
ATOM     31  O   UNL     1       1.809   3.877  17.535  0.00  0.00    +0.000 OA
ATOM     32  N   UNL     1       3.241   5.648  17.802  0.00  0.00    +0.000 N 
ATOM     33  H   UNL     1       4.200   5.968  17.715  0.00  0.00    +0.000 HD
BRANCH  30  35
ATOM     34  C   UNL     1       5.213   4.581  16.357  0.00  0.00    +0.000 C 
ATOM     35  C   UNL     1       4.096   3.637  16.768  0.00  0.00    +0.000 C 
ENDBRANCH  30  35
ENDBRANCH  24  32
ENDBRANCH   1  27
BRANCH   5  36
ATOM     36  C   UNL     1      -3.479  12.785  20.515  0.00  0.00    +0.000 C 
ATOM     37  C   UNL     1      -4.717  13.519  20.945  0.00  0.00    +0.000 C 
ATOM     38  C   UNL     1      -4.767  12.600  19.762  0.00  0.00    +0.000 C 
ENDBRANCH   5  36
TORSDOF 5
ENDMDL
MODEL 4
REMARK VINA RESULT:      -7.4      3.902      5.119
REMARK  Name = 
REMARK  6 active torsions:
REMARK  status: ('A' for Active; 'I' for Inactive)
REMARK    1  A    between atoms: C_1  and  C_2
REMARK    2  A    between atoms: C_2  and  C_3
REMARK    3  A    between atoms: N_5  and  C_6
REMARK    4  A    between atoms: C_9  and  N_10
REMARK    5  A    between atoms: N_14  and  C_15
REMARK    6  A    between atoms: C_21  and  C_22
REMARK                            x       y       z     vdW  Elec       q    Type
REMARK                         _______ _______ _______ _____ _____    ______ ____
ROOT
ATOM      1  N   UNL     1      -0.382  12.321  21.773  0.00  0.00    +0.000 N 
ATOM      2  C   UNL     1      -1.566  12.932  22.076  0.00  0.00    +0.000 A 
ATOM      3  N   UNL     1      -1.481  13.961  22.987  0.00  0.00    +0.000 NA
ATOM      4  C   UNL     1      -2.567  14.573  23.374  0.00  0.00    +0.000 A 
ATOM      5  N   UNL     1      -2.620  15.584  24.315  0.00  0.00    +0.000 N 
ATOM      6  N   UNL     1      -3.780  14.175  22.801  0.00  0.00    +0.000 N 
ATOM      7  N   UNL     1      -4.983  14.737  23.078  0.00  0.00    +0.000 NA
ATOM      8  C   UNL     1      -5.814  14.052  22.282  0.00  0.00    +0.000 A 
ATOM      9  C   UNL     1      -5.152  13.056  21.521  0.00  0.00    +0.000 A 
ATOM     10  C   UNL     1      -3.827  13.161  21.888  0.00  0.00    +0.000 A 
ATOM     11  N   UNL     1      -2.684  12.512  21.543  0.00  0.00    +0.000 NA
ATOM     12  H   UNL     1       0.395  12.701  22.301  0.00  0.00    +0.000 HD
ATOM     13  H   UNL     1      -3.520  16.050  24.426  0.00  0.00    +0.000 HD
ENDROOT
BRANCH   9  14
ATOM     14  C   UNL     1      -5.729  12.159  20.567  0.00  0.00    +0.000 C 
ATOM     15  C   UNL     1      -6.122  12.444  19.321  0.00  0.00    +0.000 C 
ATOM     16  N   UNL     1      -6.051  13.633  18.662  0.00  0.00    +0.000 N 
ATOM     17  C   UNL     1      -6.535  13.494  17.374  0.00  0.00    +0.000 C 
ATOM     18  O   UNL     1      -6.616  14.357  16.519  0.00  0.00    +0.000 OA
ATOM     19  N   UNL     1      -6.923  12.193  17.216  0.00  0.00    +0.000 N 
ATOM     20  C   UNL     1      -6.720  11.471  18.358  0.00  0.00    +0.000 C 
ATOM     21  O   UNL     1      -6.971  10.299  18.555  0.00  0.00    +0.000 OA
ATOM     22  H   UNL     1      -5.762  14.507  19.087  0.00  0.00    +0.000 HD
ATOM     23  H   UNL     1      -7.333  11.837  16.372  0.00  0.00    +0.000 HD
ENDBRANCH   9  14
BRANCH   1  27
ATOM     24  C   UNL     1       1.318   8.408  21.115  0.00  0.00    +0.000 C 
ATOM     25  C   UNL     1       0.953   9.279  19.907  0.00  0.00    +0.000 C 
ATOM     26  C   UNL     1       0.796  10.748  20.311  0.00  0.00    +0.000 C 
ATOM     27  C   UNL     1      -0.281  10.917  21.394  0.00  0.00    +0.000 C 
ATOM     28  C   UNL     1       0.077  10.051  22.612  0.00  0.00    +0.000 C 
ATOM     29  C   UNL     1       0.289   8.590  22.231  0.00  0.00    +0.000 C 
BRANCH  24  32
ATOM     30  C   UNL     1       2.265   6.536  19.787  0.00  0.00    +0.000 C 
ATOM     31  O   UNL     1       3.004   7.266  19.136  0.00  0.00    +0.000 OA
ATOM     32  N   UNL     1       1.412   6.999  20.764  0.00  0.00    +0.000 N 
ATOM     33  H   UNL     1       0.787   6.345  21.222  0.00  0.00    +0.000 HD
BRANCH  30  35
ATOM     34  C   UNL     1       1.647   4.325  20.836  0.00  0.00    +0.000 C 
ATOM     35  C   UNL     1       2.204   5.028  19.610  0.00  0.00    +0.000 C 
ENDBRANCH  30  35
ENDBRANCH  24  32
ENDBRANCH   1  27
BRANCH   5  36
ATOM     36  C   UNL     1      -1.403  16.099  24.918  0.00  0.00    +0.000 C 
ATOM     37  C   UNL     1      -1.436  17.214  25.924  0.00  0.00    +0.000 C 
ATOM     38  C   UNL     1      -1.090  15.822  26.363  0.00  0.00    +0.000 C 
ENDBRANCH   5  36
TORSDOF 5
ENDMDL
MODEL 5
REMARK VINA RESULT:      -7.3      3.546      6.462
REMARK  Name = 
REMARK  6 active torsions:
REMARK  status: ('A' for Active; 'I' for Inactive)
REMARK    1  A    between atoms: C_1  and  C_2
REMARK    2  A    between atoms: C_2  and  C_3
REMARK    3  A    between atoms: N_5  and  C_6
REMARK    4  A    between atoms: C_9  and  N_10
REMARK    5  A    between atoms: N_14  and  C_15
REMARK    6  A    between atoms: C_21  and  C_22
REMARK                            x       y       z     vdW  Elec       q    Type
REMARK                         _______ _______ _______ _____ _____    ______ ____
ROOT
ATOM      1  N   UNL     1       0.702   8.951  19.258  0.00  0.00    +0.000 N 
ATOM      2  C   UNL     1       0.430  10.278  19.078  0.00  0.00    +0.000 A 
ATOM      3  N   UNL     1      -0.840  10.562  18.625  0.00  0.00    +0.000 NA
ATOM      4  C   UNL     1      -1.176  11.798  18.378  0.00  0.00    +0.000 A 
ATOM      5  N   UNL     1      -2.398  12.207  17.876  0.00  0.00    +0.000 N 
ATOM      6  N   UNL     1      -0.229  12.797  18.632  0.00  0.00    +0.000 N 
ATOM      7  N   UNL     1      -0.443  14.123  18.455  0.00  0.00    +0.000 NA
ATOM      8  C   UNL     1       0.720  14.661  18.849  0.00  0.00    +0.000 A 
ATOM      9  C   UNL     1       1.667  13.687  19.255  0.00  0.00    +0.000 A 
ATOM     10  C   UNL     1       1.017  12.481  19.096  0.00  0.00    +0.000 A 
ATOM     11  N   UNL     1       1.351  11.180  19.296  0.00  0.00    +0.000 NA
ATOM     12  H   UNL     1      -0.075   8.358  18.993  0.00  0.00    +0.000 HD
ATOM     13  H   UNL     1      -2.561  13.213  17.850  0.00  0.00    +0.000 HD
ENDROOT
BRANCH   9  14
ATOM     14  C   UNL     1       2.992  13.910  19.744  0.00  0.00    +0.000 C 
ATOM     15  C   UNL     1       3.349  14.587  20.841  0.00  0.00    +0.000 C 
ATOM     16  N   UNL     1       2.548  15.200  21.755  0.00  0.00    +0.000 N 
ATOM     17  C   UNL     1       3.314  15.758  22.762  0.00  0.00    +0.000 C 
ATOM     18  O   UNL     1       2.919  16.379  23.732  0.00  0.00    +0.000 OA
ATOM     19  N   UNL     1       4.626  15.497  22.478  0.00  0.00    +0.000 N 
ATOM     20  C   UNL     1       4.751  14.793  21.313  0.00  0.00    +0.000 C 
ATOM     21  O   UNL     1       5.773  14.417  20.774  0.00  0.00    +0.000 OA
ATOM     22  H   UNL     1       1.544  15.299  21.660  0.00  0.00    +0.000 HD
ATOM     23  H   UNL     1       5.388  15.816  23.045  0.00  0.00    +0.000 HD
ENDBRANCH   9  14
BRANCH   1  27
ATOM     24  C   UNL     1       3.838   6.237  18.063  0.00  0.00    +0.000 C 
ATOM     25  C   UNL     1       3.450   6.326  19.544  0.00  0.00    +0.000 C 
ATOM     26  C   UNL     1       2.071   6.973  19.716  0.00  0.00    +0.000 C 
ATOM     27  C   UNL     1       2.034   8.381  19.101  0.00  0.00    +0.000 C 
ATOM     28  C   UNL     1       2.418   8.301  17.616  0.00  0.00    +0.000 C 
ATOM     29  C   UNL     1       3.765   7.616  17.410  0.00  0.00    +0.000 C 
BRANCH  24  32
ATOM     30  C   UNL     1       5.485   4.841  16.835  0.00  0.00    +0.000 C 
ATOM     31  O   UNL     1       4.675   4.494  15.983  0.00  0.00    +0.000 OA
ATOM     32  N   UNL     1       5.170   5.681  17.881  0.00  0.00    +0.000 N 
ATOM     33  H   UNL     1       5.876   5.879  18.582  0.00  0.00    +0.000 HD
BRANCH  30  35
ATOM     34  C   UNL     1       7.688   4.899  18.066  0.00  0.00    +0.000 C 
ATOM     35  C   UNL     1       6.940   4.404  16.840  0.00  0.00    +0.000 C 
ENDBRANCH  30  35
ENDBRANCH  24  32
ENDBRANCH   1  27
BRANCH   5  36
ATOM     36  C   UNL     1      -3.460  11.245  17.639  0.00  0.00    +0.000 C 
ATOM     37  C   UNL     1      -4.822  11.677  17.174  0.00  0.00    +0.000 C 
ATOM     38  C   UNL     1      -3.914  10.938  16.238  0.00  0.00    +0.000 C 
ENDBRANCH   5  36
TORSDOF 5
ENDMDL
MODEL 6
REMARK VINA RESULT:      -7.2      3.416      6.348
REMARK  Name = 
REMARK  6 active torsions:
REMARK  status: ('A' for Active; 'I' for Inactive)
REMARK    1  A    between atoms: C_1  and  C_2
REMARK    2  A    between atoms: C_2  and  C_3
REMARK    3  A    between atoms: N_5  and  C_6
REMARK    4  A    between atoms: C_9  and  N_10
REMARK    5  A    between atoms: N_14  and  C_15
REMARK    6  A    between atoms: C_21  and  C_22
REMARK                            x       y       z     vdW  Elec       q    Type
REMARK                         _______ _______ _______ _____ _____    ______ ____
ROOT
ATOM      1  N   UNL     1       0.502   8.927  19.508  0.00  0.00    +0.000 N 
ATOM      2  C   UNL     1       0.208  10.261  19.542  0.00  0.00    +0.000 A 
ATOM      3  N   UNL     1      -1.063  10.594  19.128  0.00  0.00    +0.000 NA
ATOM      4  C   UNL     1      -1.418  11.849  19.081  0.00  0.00    +0.000 A 
ATOM      5  N   UNL     1      -2.643  12.314  18.639  0.00  0.00    +0.000 N 
ATOM      6  N   UNL     1      -0.490  12.808  19.503  0.00  0.00    +0.000 N 
ATOM      7  N   UNL     1      -0.726  14.142  19.542  0.00  0.00    +0.000 NA
ATOM      8  C   UNL     1       0.424  14.626  20.030  0.00  0.00    +0.000 A 
ATOM      9  C   UNL     1       1.384  13.615  20.283  0.00  0.00    +0.000 A 
ATOM     10  C   UNL     1       0.757  12.441  19.923  0.00  0.00    +0.000 A 
ATOM     11  N   UNL     1       1.112  11.130  19.914  0.00  0.00    +0.000 NA
ATOM     12  H   UNL     1      -0.262   8.372  19.142  0.00  0.00    +0.000 HD
ATOM     13  H   UNL     1      -2.823  13.308  18.775  0.00  0.00    +0.000 HD
ENDROOT
BRANCH   9  14
ATOM     14  C   UNL     1       2.702  13.777  20.815  0.00  0.00    +0.000 C 
ATOM     15  C   UNL     1       3.634  14.650  20.421  0.00  0.00    +0.000 C 
ATOM     16  N   UNL     1       3.549  15.597  19.446  0.00  0.00    +0.000 N 
ATOM     17  C   UNL     1       4.726  16.319  19.379  0.00  0.00    +0.000 C 
ATOM     18  O   UNL     1       4.988  17.235  18.620  0.00  0.00    +0.000 OA
ATOM     19  N   UNL     1       5.576  15.817  20.325  0.00  0.00    +0.000 N 
ATOM     20  C   UNL     1       5.001  14.783  21.010  0.00  0.00    +0.000 C 
ATOM     21  O   UNL     1       5.489  14.114  21.899  0.00  0.00    +0.000 OA
ATOM     22  H   UNL     1       2.764  15.697  18.812  0.00  0.00    +0.000 HD
ATOM     23  H   UNL     1       6.509  16.155  20.465  0.00  0.00    +0.000 HD
ENDBRANCH   9  14
BRANCH   1  27
ATOM     24  C   UNL     1       3.681   6.414  18.022  0.00  0.00    +0.000 C 
ATOM     25  C   UNL     1       3.326   6.369  19.513  0.00  0.00    +0.000 C 
ATOM     26  C   UNL     1       1.936   6.958  19.768  0.00  0.00    +0.000 C 
ATOM     27  C   UNL     1       1.845   8.410  19.275  0.00  0.00    +0.000 C 
ATOM     28  C   UNL     1       2.195   8.466  17.780  0.00  0.00    +0.000 C 
ATOM     29  C   UNL     1       3.555   7.840  17.488  0.00  0.00    +0.000 C 
BRANCH  24  32
ATOM     30  C   UNL     1       5.261   4.780  17.020  0.00  0.00    +0.000 C 
ATOM     31  O   UNL     1       4.369   4.102  16.522  0.00  0.00    +0.000 OA
ATOM     32  N   UNL     1       5.023   5.915  17.764  0.00  0.00    +0.000 N 
ATOM     33  H   UNL     1       5.807   6.392  18.195  0.00  0.00    +0.000 HD
BRANCH  30  35
ATOM     34  C   UNL     1       7.568   5.023  18.014  0.00  0.00    +0.000 C 
ATOM     35  C   UNL     1       6.739   4.465  16.870  0.00  0.00    +0.000 C 
ENDBRANCH  30  35
ENDBRANCH  24  32
ENDBRANCH   1  27
BRANCH   5  36
ATOM     36  C   UNL     1      -3.686  11.386  18.238  0.00  0.00    +0.000 C 
ATOM     37  C   UNL     1      -5.036  11.869  17.789  0.00  0.00    +0.000 C 
ATOM     38  C   UNL     1      -4.089  11.268  16.794  0.00  0.00    +0.000 C 
ENDBRANCH   5  36
TORSDOF 5
ENDMDL
MODEL 7
REMARK VINA RESULT:      -7.2      3.758      4.960
REMARK  Name = 
REMARK  6 active torsions:
REMARK  status: ('A' for Active; 'I' for Inactive)
REMARK    1  A    between atoms: C_1  and  C_2
REMARK    2  A    between atoms: C_2  and  C_3
REMARK    3  A    between atoms: N_5  and  C_6
REMARK    4  A    between atoms: C_9  and  N_10
REMARK    5  A    between atoms: N_14  and  C_15
REMARK    6  A    between atoms: C_21  and  C_22
REMARK                            x       y       z     vdW  Elec       q    Type
REMARK                         _______ _______ _______ _____ _____    ______ ____
ROOT
ATOM      1  N   UNL     1      -0.302  12.220  21.990  0.00  0.00    +0.000 N 
ATOM      2  C   UNL     1      -1.503  12.765  22.347  0.00  0.00    +0.000 A 
ATOM      3  N   UNL     1      -1.459  13.640  23.410  0.00  0.00    +0.000 NA
ATOM      4  C   UNL     1      -2.565  14.173  23.853  0.00  0.00    +0.000 A 
ATOM      5  N   UNL     1      -2.661  15.023  24.939  0.00  0.00    +0.000 N 
ATOM      6  N   UNL     1      -3.756  13.858  23.188  0.00  0.00    +0.000 N 
ATOM      7  N   UNL     1      -4.973  14.358  23.512  0.00  0.00    +0.000 NA
ATOM      8  C   UNL     1      -5.771  13.797  22.592  0.00  0.00    +0.000 A 
ATOM      9  C   UNL     1      -5.072  12.939  21.706  0.00  0.00    +0.000 A 
ATOM     10  C   UNL     1      -3.760  12.998  22.126  0.00  0.00    +0.000 A 
ATOM     11  N   UNL     1      -2.599  12.423  21.720  0.00  0.00    +0.000 NA
ATOM     12  H   UNL     1       0.454  12.520  22.595  0.00  0.00    +0.000 HD
ATOM     13  H   UNL     1      -3.570  15.457  25.093  0.00  0.00    +0.000 HD
ENDROOT
BRANCH   9  14
ATOM     14  C   UNL     1      -5.608  12.198  20.606  0.00  0.00    +0.000 C 
ATOM     15  C   UNL     1      -4.993  11.891  19.459  0.00  0.00    +0.000 C 
ATOM     16  N   UNL     1      -3.721  12.187  19.075  0.00  0.00    +0.000 N 
ATOM     17  C   UNL     1      -3.464  11.655  17.825  0.00  0.00    +0.000 C 
ATOM     18  O   UNL     1      -2.429  11.734  17.187  0.00  0.00    +0.000 OA
ATOM     19  N   UNL     1      -4.596  11.013  17.407  0.00  0.00    +0.000 N 
ATOM     20  C   UNL     1      -5.594  11.111  18.336  0.00  0.00    +0.000 C 
ATOM     21  O   UNL     1      -6.723  10.667  18.269  0.00  0.00    +0.000 OA
ATOM     22  H   UNL     1      -3.089  12.782  19.599  0.00  0.00    +0.000 HD
ATOM     23  H   UNL     1      -4.678  10.560  16.516  0.00  0.00    +0.000 HD
ENDBRANCH   9  14
BRANCH   1  27
ATOM     24  C   UNL     1       1.531   8.692  20.310  0.00  0.00    +0.000 C 
ATOM     25  C   UNL     1       0.722   9.621  19.398  0.00  0.00    +0.000 C 
ATOM     26  C   UNL     1       0.536  11.001  20.038  0.00  0.00    +0.000 C 
ATOM     27  C   UNL     1      -0.169  10.895  21.399  0.00  0.00    +0.000 C 
ATOM     28  C   UNL     1       0.636   9.968  22.323  0.00  0.00    +0.000 C 
ATOM     29  C   UNL     1       0.880   8.602  21.690  0.00  0.00    +0.000 C 
BRANCH  24  32
ATOM     30  C   UNL     1       2.467   7.091  18.659  0.00  0.00    +0.000 C 
ATOM     31  O   UNL     1       3.122   7.949  18.078  0.00  0.00    +0.000 OA
ATOM     32  N   UNL     1       1.667   7.357  19.748  0.00  0.00    +0.000 N 
ATOM     33  H   UNL     1       1.107   6.608  20.141  0.00  0.00    +0.000 HD
BRANCH  30  35
ATOM     34  C   UNL     1       1.926   4.729  19.366  0.00  0.00    +0.000 C 
ATOM     35  C   UNL     1       2.466   5.624  18.264  0.00  0.00    +0.000 C 
ENDBRANCH  30  35
ENDBRANCH  24  32
ENDBRANCH   1  27
BRANCH   5  36
ATOM     36  C   UNL     1      -1.469  15.449  25.652  0.00  0.00    +0.000 C 
ATOM     37  C   UNL     1      -0.515  16.448  25.061  0.00  0.00    +0.000 C 
ATOM     38  C   UNL     1      -1.377  16.837  26.225  0.00  0.00    +0.000 C 
ENDBRANCH   5  36
TORSDOF 5
ENDMDL
MODEL 8
REMARK VINA RESULT:      -7.2      3.579      8.741
REMARK  Name = 
REMARK  6 active torsions:
REMARK  status: ('A' for Active; 'I' for Inactive)
REMARK    1  A    between atoms: C_1  and  C_2
REMARK    2  A    between atoms: C_2  and  C_3
REMARK    3  A    between atoms: N_5  and  C_6
REMARK    4  A    between atoms: C_9  and  N_10
REMARK    5  A    between atoms: N_14  and  C_15
REMARK    6  A    between atoms: C_21  and  C_22
REMARK                            x       y       z     vdW  Elec       q    Type
REMARK                         _______ _______ _______ _____ _____    ______ ____
ROOT
ATOM      1  N   UNL     1       1.122  13.595  20.136  0.00  0.00    +0.000 N 
ATOM      2  C   UNL     1       0.654  12.419  20.650  0.00  0.00    +0.000 A 
ATOM      3  N   UNL     1      -0.365  12.542  21.570  0.00  0.00    +0.000 NA
ATOM      4  C   UNL     1      -0.843  11.475  22.150  0.00  0.00    +0.000 A 
ATOM      5  N   UNL     1      -1.827  11.470  23.121  0.00  0.00    +0.000 N 
ATOM      6  N   UNL     1      -0.319  10.234  21.771  0.00  0.00    +0.000 N 
ATOM      7  N   UNL     1      -0.736   9.041  22.262  0.00  0.00    +0.000 NA
ATOM      8  C   UNL     1       0.028   8.168  21.590  0.00  0.00    +0.000 A 
ATOM      9  C   UNL     1       0.930   8.799  20.697  0.00  0.00    +0.000 A 
ATOM     10  C   UNL     1       0.681  10.147  20.844  0.00  0.00    +0.000 A 
ATOM     11  N   UNL     1       1.190  11.279  20.294  0.00  0.00    +0.000 NA
ATOM     12  H   UNL     1       0.664  14.403  20.541  0.00  0.00    +0.000 HD
ATOM     13  H   UNL     1      -2.185  10.556  23.394  0.00  0.00    +0.000 HD
ENDROOT
BRANCH   9  14
ATOM     14  C   UNL     1       1.871   8.172  19.821  0.00  0.00    +0.000 C 
ATOM     15  C   UNL     1       2.315   6.912  19.876  0.00  0.00    +0.000 C 
ATOM     16  N   UNL     1       1.967   5.929  20.751  0.00  0.00    +0.000 N 
ATOM     17  C   UNL     1       2.632   4.757  20.440  0.00  0.00    +0.000 C 
ATOM     18  O   UNL     1       2.553   3.688  21.019  0.00  0.00    +0.000 OA
ATOM     19  N   UNL     1       3.418   5.003  19.349  0.00  0.00    +0.000 N 
ATOM     20  C   UNL     1       3.301   6.300  18.935  0.00  0.00    +0.000 C 
ATOM     21  O   UNL     1       3.873   6.843  18.010  0.00  0.00    +0.000 OA
ATOM     22  H   UNL     1       1.372   6.067  21.560  0.00  0.00    +0.000 HD
ATOM     23  H   UNL     1       4.022   4.316  18.937  0.00  0.00    +0.000 HD
ENDBRANCH   9  14
BRANCH   1  27
ATOM     24  C   UNL     1       4.763  15.582  18.943  0.00  0.00    +0.000 C 
ATOM     25  C   UNL     1       3.954  14.809  17.895  0.00  0.00    +0.000 C 
ATOM     26  C   UNL     1       2.520  14.563  18.374  0.00  0.00    +0.000 C 
ATOM     27  C   UNL     1       2.499  13.784  19.698  0.00  0.00    +0.000 C 
ATOM     28  C   UNL     1       3.304  14.552  20.757  0.00  0.00    +0.000 C 
ATOM     29  C   UNL     1       4.723  14.856  20.287  0.00  0.00    +0.000 C 
BRANCH  24  32
ATOM     30  C   UNL     1       6.846  16.928  18.807  0.00  0.00    +0.000 C 
ATOM     31  O   UNL     1       6.363  17.881  19.408  0.00  0.00    +0.000 OA
ATOM     32  N   UNL     1       6.146  15.773  18.534  0.00  0.00    +0.000 N 
ATOM     33  H   UNL     1       6.591  15.048  17.981  0.00  0.00    +0.000 HD
BRANCH  30  35
ATOM     34  C   UNL     1       8.933  15.538  18.519  0.00  0.00    +0.000 C 
ATOM     35  C   UNL     1       8.277  16.890  18.300  0.00  0.00    +0.000 C 
ENDBRANCH  30  35
ENDBRANCH  24  32
ENDBRANCH   1  27
BRANCH   5  36
ATOM     36  C   UNL     1      -2.467  12.707  23.532  0.00  0.00    +0.000 C 
ATOM     37  C   UNL     1      -3.727  13.196  22.874  0.00  0.00    +0.000 C 
ATOM     38  C   UNL     1      -3.771  12.680  24.281  0.00  0.00    +0.000 C 
ENDBRANCH   5  36
TORSDOF 5
ENDMDL
MODEL 9
REMARK VINA RESULT:      -7.1      3.459      6.328
REMARK  Name = 
REMARK  6 active torsions:
REMARK  status: ('A' for Active; 'I' for Inactive)
REMARK    1  A    between atoms: C_1  and  C_2
REMARK    2  A    between atoms: C_2  and  C_3
REMARK    3  A    between atoms: N_5  and  C_6
REMARK    4  A    between atoms: C_9  and  N_10
REMARK    5  A    between atoms: N_14  and  C_15
REMARK    6  A    between atoms: C_21  and  C_22
REMARK                            x       y       z     vdW  Elec       q    Type
REMARK                         _______ _______ _______ _____ _____    ______ ____
ROOT
ATOM      1  N   UNL     1      -0.220   9.991  20.410  0.00  0.00    +0.000 N 
ATOM      2  C   UNL     1      -0.415  11.334  20.561  0.00  0.00    +0.000 A 
ATOM      3  N   UNL     1      -1.717  11.760  20.411  0.00  0.00    +0.000 NA
ATOM      4  C   UNL     1      -1.994  13.033  20.491  0.00  0.00    +0.000 A 
ATOM      5  N   UNL     1      -3.247  13.589  20.311  0.00  0.00    +0.000 N 
ATOM      6  N   UNL     1      -0.943  13.914  20.772  0.00  0.00    +0.000 N 
ATOM      7  N   UNL     1      -1.081  15.255  20.916  0.00  0.00    +0.000 NA
ATOM      8  C   UNL     1       0.169  15.647  21.199  0.00  0.00    +0.000 A 
ATOM      9  C   UNL     1       1.092  14.572  21.218  0.00  0.00    +0.000 A 
ATOM     10  C   UNL     1       0.334  13.456  20.931  0.00  0.00    +0.000 A 
ATOM     11  N   UNL     1       0.596  12.131  20.794  0.00  0.00    +0.000 NA
ATOM     12  H   UNL     1      -1.073   9.500  20.172  0.00  0.00    +0.000 HD
ATOM     13  H   UNL     1      -3.333  14.582  20.523  0.00  0.00    +0.000 HD
ENDROOT
BRANCH   9  14
ATOM     14  C   UNL     1       2.494  14.630  21.498  0.00  0.00    +0.000 C 
ATOM     15  C   UNL     1       3.493  14.730  20.615  0.00  0.00    +0.000 C 
ATOM     16  N   UNL     1       3.418  14.820  19.258  0.00  0.00    +0.000 N 
ATOM     17  C   UNL     1       4.685  14.944  18.719  0.00  0.00    +0.000 C 
ATOM     18  O   UNL     1       4.980  15.045  17.541  0.00  0.00    +0.000 OA
ATOM     19  N   UNL     1       5.580  14.928  19.752  0.00  0.00    +0.000 N 
ATOM     20  C   UNL     1       4.946  14.789  20.955  0.00  0.00    +0.000 C 
ATOM     21  O   UNL     1       5.448  14.724  22.060  0.00  0.00    +0.000 OA
ATOM     22  H   UNL     1       2.562  14.726  18.725  0.00  0.00    +0.000 HD
ATOM     23  H   UNL     1       6.573  14.980  19.624  0.00  0.00    +0.000 HD
ENDBRANCH   9  14
BRANCH   1  27
ATOM     24  C   UNL     1       2.463   7.329  18.326  0.00  0.00    +0.000 C 
ATOM     25  C   UNL     1       2.439   7.317  19.859  0.00  0.00    +0.000 C 
ATOM     26  C   UNL     1       1.160   7.967  20.397  0.00  0.00    +0.000 C 
ATOM     27  C   UNL     1       1.020   9.416  19.904  0.00  0.00    +0.000 C 
ATOM     28  C   UNL     1       1.039   9.438  18.367  0.00  0.00    +0.000 C 
ATOM     29  C   UNL     1       2.278   8.752  17.802  0.00  0.00    +0.000 C 
BRANCH  24  32
ATOM     30  C   UNL     1       3.821   5.442  17.452  0.00  0.00    +0.000 C 
ATOM     31  O   UNL     1       2.912   4.629  17.568  0.00  0.00    +0.000 OA
ATOM     32  N   UNL     1       3.697   6.771  17.795  0.00  0.00    +0.000 N 
ATOM     33  H   UNL     1       4.510   7.374  17.727  0.00  0.00    +0.000 HD
BRANCH  30  35
ATOM     34  C   UNL     1       5.426   5.675  15.517  0.00  0.00    +0.000 C 
ATOM     35  C   UNL     1       5.195   5.096  16.902  0.00  0.00    +0.000 C 
ENDBRANCH  30  35
ENDBRANCH  24  32
ENDBRANCH   1  27
BRANCH   5  36
ATOM     36  C   UNL     1      -4.404  12.744  20.073  0.00  0.00    +0.000 C 
ATOM     37  C   UNL     1      -5.455  12.538  21.126  0.00  0.00    +0.000 C 
ATOM     38  C   UNL     1      -5.770  13.350  19.905  0.00  0.00    +0.000 C 
ENDBRANCH   5  36
TORSDOF 5
ENDMDL
