MODEL 1
REMARK VINA RESULT:      -8.8      0.000      0.000
REMARK  Name = 
REMARK  5 active torsions:
REMARK  status: ('A' for Active; 'I' for Inactive)
REMARK    1  A    between atoms: C_1  and  C_2
REMARK    2  A    between atoms: C_5  and  N_6
REMARK    3  A    between atoms: N_6  and  S_7
REMARK    4  A    between atoms: S_7  and  C_10
REMARK    5  A    between atoms: C_26  and  C_27
REMARK                            x       y       z     vdW  Elec       q    Type
REMARK                         _______ _______ _______ _____ _____    ______ ____
ROOT
ATOM      1  C   UNL     1       1.517   7.722  20.495  0.00  0.00    +0.000 A 
ATOM      2  C   UNL     1       1.455   6.443  21.056  0.00  0.00    +0.000 A 
ATOM      3  C   UNL     1       2.132   5.386  20.438  0.00  0.00    +0.000 A 
ATOM      4  C   UNL     1       2.870   5.612  19.269  0.00  0.00    +0.000 A 
ATOM      5  C   UNL     1       2.943   6.896  18.727  0.00  0.00    +0.000 A 
ATOM      6  C   UNL     1       2.251   7.954  19.329  0.00  0.00    +0.000 A 
ATOM      7  C   UNL     1       3.755   7.152  17.522  0.00  0.00    +0.000 C 
ATOM      8  O   UNL     1       3.865   8.291  17.085  0.00  0.00    +0.000 OA
ATOM      9  C   UNL     1       4.427   6.019  16.853  0.00  0.00    +0.000 A 
ATOM     10  C   UNL     1       5.183   6.247  15.696  0.00  0.00    +0.000 A 
ATOM     11  C   UNL     1       5.767   5.173  15.023  0.00  0.00    +0.000 A 
ATOM     12  C   UNL     1       5.598   3.873  15.501  0.00  0.00    +0.000 A 
ATOM     13  C   UNL     1       4.874   3.649  16.671  0.00  0.00    +0.000 A 
ATOM     14  C   UNL     1       4.290   4.725  17.351  0.00  0.00    +0.000 A 
ATOM     15  C   UNL     1       3.546   4.482  18.604  0.00  0.00    +0.000 C 
ATOM     16  O   UNL     1       3.490   3.356  19.082  0.00  0.00    +0.000 OA
ENDROOT
BRANCH   1  17
ATOM     17  S   UNL     1       0.629   9.071  21.241  0.00  0.00    +0.000 S 
ATOM     18  O   UNL     1       1.376   9.516  22.396  0.00  0.00    +0.000 OA
ATOM     19  O   UNL     1      -0.747   8.636  21.363  0.00  0.00    +0.000 OA
BRANCH  17  20
ATOM     20  N   UNL     1       0.642  10.274  20.079  0.00  0.00    +0.000 N 
ATOM     21  H   UNL     1       1.539  10.710  19.874  0.00  0.00    +0.000 HD
BRANCH  20  26
ATOM     22  C   UNL     1      -3.963  11.314  16.838  0.00  0.00    +0.000 C 
ATOM     23  C   UNL     1      -2.760  11.044  17.692  0.00  0.00    +0.000 A 
ATOM     24  C   UNL     1      -1.800  10.110  17.306  0.00  0.00    +0.000 A 
ATOM     25  C   UNL     1      -0.687   9.875  18.115  0.00  0.00    +0.000 A 
ATOM     26  C   UNL     1      -0.502  10.588  19.305  0.00  0.00    +0.000 A 
ATOM     27  C   UNL     1      -1.465  11.513  19.724  0.00  0.00    +0.000 A 
ATOM     28  C   UNL     1      -1.387  12.286  21.009  0.00  0.00    +0.000 C 
ATOM     29  C   UNL     1      -2.588  11.731  18.902  0.00  0.00    +0.000 A 
ENDBRANCH  20  26
ENDBRANCH  17  20
ENDBRANCH   1  17
TORSDOF 3
ENDMDL
MODEL 2
REMARK VINA RESULT:      -8.8      2.966      7.544
REMARK  Name = 
REMARK  5 active torsions:
REMARK  status: ('A' for Active; 'I' for Inactive)
REMARK    1  A    between atoms: C_1  and  C_2
REMARK    2  A    between atoms: C_5  and  N_6
REMARK    3  A    between atoms: N_6  and  S_7
REMARK    4  A    between atoms: S_7  and  C_10
REMARK    5  A    between atoms: C_26  and  C_27
REMARK                            x       y       z     vdW  Elec       q    Type
REMARK                         _______ _______ _______ _____ _____    ______ ____
ROOT
ATOM      1  C   UNL     1       3.216   4.505  19.200  0.00  0.00    +0.000 A 
ATOM      2  C   UNL     1       2.562   4.432  20.433  0.00  0.00    +0.000 A 
ATOM      3  C   UNL     1       1.897   5.559  20.928  0.00  0.00    +0.000 A 
ATOM      4  C   UNL     1       1.886   6.749  20.189  0.00  0.00    +0.000 A 
ATOM      5  C   UNL     1       2.526   6.808  18.950  0.00  0.00    +0.000 A 
ATOM      6  C   UNL     1       3.210   5.690  18.458  0.00  0.00    +0.000 A 
ATOM      7  C   UNL     1       2.480   8.043  18.144  0.00  0.00    +0.000 C 
ATOM      8  O   UNL     1       2.991   8.071  17.032  0.00  0.00    +0.000 OA
ATOM      9  C   UNL     1       1.815   9.240  18.699  0.00  0.00    +0.000 A 
ATOM     10  C   UNL     1       1.784  10.424  17.951  0.00  0.00    +0.000 A 
ATOM     11  C   UNL     1       1.214  11.576  18.496  0.00  0.00    +0.000 A 
ATOM     12  C   UNL     1       0.675  11.549  19.782  0.00  0.00    +0.000 A 
ATOM     13  C   UNL     1       0.676  10.362  20.513  0.00  0.00    +0.000 A 
ATOM     14  C   UNL     1       1.243   9.203  19.969  0.00  0.00    +0.000 A 
ATOM     15  C   UNL     1       1.216   7.943  20.740  0.00  0.00    +0.000 C 
ATOM     16  O   UNL     1       0.648   7.892  21.822  0.00  0.00    +0.000 OA
ENDROOT
BRANCH   1  17
ATOM     17  S   UNL     1       4.104   3.097  18.573  0.00  0.00    +0.000 S 
ATOM     18  O   UNL     1       3.148   2.200  17.962  0.00  0.00    +0.000 OA
ATOM     19  O   UNL     1       4.970   2.649  19.643  0.00  0.00    +0.000 OA
BRANCH  17  20
ATOM     20  N   UNL     1       5.104   3.725  17.389  0.00  0.00    +0.000 N 
ATOM     21  H   UNL     1       5.035   3.317  16.459  0.00  0.00    +0.000 HD
BRANCH  20  26
ATOM     22  C   UNL     1       8.523   8.196  18.449  0.00  0.00    +0.000 C 
ATOM     23  C   UNL     1       7.628   7.027  18.165  0.00  0.00    +0.000 A 
ATOM     24  C   UNL     1       7.530   5.962  19.060  0.00  0.00    +0.000 A 
ATOM     25  C   UNL     1       6.690   4.884  18.777  0.00  0.00    +0.000 A 
ATOM     26  C   UNL     1       5.914   4.866  17.612  0.00  0.00    +0.000 A 
ATOM     27  C   UNL     1       6.014   5.912  16.688  0.00  0.00    +0.000 A 
ATOM     28  C   UNL     1       5.269   5.959  15.386  0.00  0.00    +0.000 C 
ATOM     29  C   UNL     1       6.875   6.988  16.983  0.00  0.00    +0.000 A 
ENDBRANCH  20  26
ENDBRANCH  17  20
ENDBRANCH   1  17
TORSDOF 3
ENDMDL
MODEL 3
REMARK VINA RESULT:      -8.7      2.467      8.537
REMARK  Name = 
REMARK  5 active torsions:
REMARK  status: ('A' for Active; 'I' for Inactive)
REMARK    1  A    between atoms: C_1  and  C_2
REMARK    2  A    between atoms: C_5  and  N_6
REMARK    3  A    between atoms: N_6  and  S_7
REMARK    4  A    between atoms: S_7  and  C_10
REMARK    5  A    between atoms: C_26  and  C_27
REMARK                            x       y       z     vdW  Elec       q    Type
REMARK                         _______ _______ _______ _____ _____    ______ ____
ROOT
ATOM      1  C   UNL     1       1.975   7.609  19.250  0.00  0.00    +0.000 A 
ATOM      2  C   UNL     1       2.129   8.481  18.168  0.00  0.00    +0.000 A 
ATOM      3  C   UNL     1       1.614   9.779  18.250  0.00  0.00    +0.000 A 
ATOM      4  C   UNL     1       0.952  10.200  19.411  0.00  0.00    +0.000 A 
ATOM      5  C   UNL     1       0.819   9.330  20.493  0.00  0.00    +0.000 A 
ATOM      6  C   UNL     1       1.315   8.023  20.410  0.00  0.00    +0.000 A 
ATOM      7  C   UNL     1       0.164   9.780  21.737  0.00  0.00    +0.000 C 
ATOM      8  O   UNL     1       0.103   9.031  22.705  0.00  0.00    +0.000 OA
ATOM      9  C   UNL     1      -0.417  11.136  21.793  0.00  0.00    +0.000 A 
ATOM     10  C   UNL     1      -1.060  11.566  22.962  0.00  0.00    +0.000 A 
ATOM     11  C   UNL     1      -1.667  12.823  23.000  0.00  0.00    +0.000 A 
ATOM     12  C   UNL     1      -1.634  13.649  21.877  0.00  0.00    +0.000 A 
ATOM     13  C   UNL     1      -0.965  13.236  20.726  0.00  0.00    +0.000 A 
ATOM     14  C   UNL     1      -0.352  11.978  20.685  0.00  0.00    +0.000 A 
ATOM     15  C   UNL     1       0.377  11.558  19.471  0.00  0.00    +0.000 C 
ATOM     16  O   UNL     1       0.499  12.326  18.525  0.00  0.00    +0.000 OA
ENDROOT
BRANCH   1  17
ATOM     17  S   UNL     1       2.585   5.941  19.149  0.00  0.00    +0.000 S 
ATOM     18  O   UNL     1       1.837   5.252  18.120  0.00  0.00    +0.000 OA
ATOM     19  O   UNL     1       2.626   5.438  20.506  0.00  0.00    +0.000 OA
BRANCH  17  20
ATOM     20  N   UNL     1       4.175   6.106  18.657  0.00  0.00    +0.000 N 
ATOM     21  H   UNL     1       4.816   6.558  19.306  0.00  0.00    +0.000 HD
BRANCH  20  26
ATOM     22  C   UNL     1       6.232   3.980  13.753  0.00  0.00    +0.000 C 
ATOM     23  C   UNL     1       5.695   4.531  15.041  0.00  0.00    +0.000 A 
ATOM     24  C   UNL     1       5.464   5.897  15.197  0.00  0.00    +0.000 A 
ATOM     25  C   UNL     1       4.963   6.390  16.402  0.00  0.00    +0.000 A 
ATOM     26  C   UNL     1       4.658   5.524  17.459  0.00  0.00    +0.000 A 
ATOM     27  C   UNL     1       4.905   4.152  17.334  0.00  0.00    +0.000 A 
ATOM     28  C   UNL     1       4.666   3.150  18.427  0.00  0.00    +0.000 C 
ATOM     29  C   UNL     1       5.421   3.672  16.115  0.00  0.00    +0.000 A 
ENDBRANCH  20  26
ENDBRANCH  17  20
ENDBRANCH   1  17
TORSDOF 3
ENDMDL
MODEL 4
REMARK VINA RESULT:      -8.6      1.554      2.155
REMARK  Name = 
REMARK  5 active torsions:
REMARK  status: ('A' for Active; 'I' for Inactive)
REMARK    1  A    between atoms: C_1  and  C_2
REMARK    2  A    between atoms: C_5  and  N_6
REMARK    3  A    between atoms: N_6  and  S_7
REMARK    4  A    between atoms: S_7  and  C_10
REMARK    5  A    between atoms: C_26  and  C_27
REMARK                            x       y       z     vdW  Elec       q    Type
REMARK                         _______ _______ _______ _____ _____    ______ ____
ROOT
ATOM      1  C   UNL     1       1.101   9.380  20.189  0.00  0.00    +0.000 A 
ATOM      2  C   UNL     1       0.723   8.564  21.259  0.00  0.00    +0.000 A 
ATOM      3  C   UNL     1       1.105   7.218  21.268  0.00  0.00    +0.000 A 
ATOM      4  C   UNL     1       1.864   6.696  20.213  0.00  0.00    +0.000 A 
ATOM      5  C   UNL     1       2.253   7.522  19.157  0.00  0.00    +0.000 A 
ATOM      6  C   UNL     1       1.857   8.864  19.132  0.00  0.00    +0.000 A 
ATOM      7  C   UNL     1       3.091   6.991  18.065  0.00  0.00    +0.000 C 
ATOM      8  O   UNL     1       3.480   7.735  17.172  0.00  0.00    +0.000 OA
ATOM      9  C   UNL     1       3.447   5.558  18.062  0.00  0.00    +0.000 A 
ATOM     10  C   UNL     1       4.225   5.039  17.019  0.00  0.00    +0.000 A 
ATOM     11  C   UNL     1       4.512   3.674  16.976  0.00  0.00    +0.000 A 
ATOM     12  C   UNL     1       4.026   2.826  17.972  0.00  0.00    +0.000 A 
ATOM     13  C   UNL     1       3.280   3.348  19.029  0.00  0.00    +0.000 A 
ATOM     14  C   UNL     1       2.994   4.717  19.077  0.00  0.00    +0.000 A 
ATOM     15  C   UNL     1       2.226   5.265  20.213  0.00  0.00    +0.000 C 
ATOM     16  O   UNL     1       1.893   4.541  21.142  0.00  0.00    +0.000 OA
ENDROOT
BRANCH   1  17
ATOM     17  S   UNL     1       0.589  11.082  20.136  0.00  0.00    +0.000 S 
ATOM     18  O   UNL     1       1.086  11.662  18.908  0.00  0.00    +0.000 OA
ATOM     19  O   UNL     1       0.930  11.652  21.423  0.00  0.00    +0.000 OA
BRANCH  17  20
ATOM     20  N   UNL     1      -1.081  11.016  20.078  0.00  0.00    +0.000 N 
ATOM     21  H   UNL     1      -1.581  11.142  20.955  0.00  0.00    +0.000 HD
BRANCH  20  26
ATOM     22  C   UNL     1      -3.839  10.443  15.091  0.00  0.00    +0.000 C 
ATOM     23  C   UNL     1      -3.122  10.595  16.400  0.00  0.00    +0.000 A 
ATOM     24  C   UNL     1      -1.939   9.903  16.656  0.00  0.00    +0.000 A 
ATOM     25  C   UNL     1      -1.288  10.060  17.880  0.00  0.00    +0.000 A 
ATOM     26  C   UNL     1      -1.790  10.931  18.854  0.00  0.00    +0.000 A 
ATOM     27  C   UNL     1      -2.989  11.617  18.628  0.00  0.00    +0.000 A 
ATOM     28  C   UNL     1      -3.639  12.528  19.629  0.00  0.00    +0.000 C 
ATOM     29  C   UNL     1      -3.641  11.440  17.392  0.00  0.00    +0.000 A 
ENDBRANCH  20  26
ENDBRANCH  17  20
ENDBRANCH   1  17
TORSDOF 3
ENDMDL
MODEL 5
REMARK VINA RESULT:      -8.5      0.761      1.739
REMARK  Name = 
REMARK  5 active torsions:
REMARK  status: ('A' for Active; 'I' for Inactive)
REMARK    1  A    between atoms: C_1  and  C_2
REMARK    2  A    between atoms: C_5  and  N_6
REMARK    3  A    between atoms: N_6  and  S_7
REMARK    4  A    between atoms: S_7  and  C_10
REMARK    5  A    between atoms: C_26  and  C_27
REMARK                            x       y       z     vdW  Elec       q    Type
REMARK                         _______ _______ _______ _____ _____    ______ ____
ROOT
ATOM      1  C   UNL     1       1.490   7.427  20.633  0.00  0.00    +0.000 A 
ATOM      2  C   UNL     1       1.429   6.111  21.102  0.00  0.00    +0.000 A 
ATOM      3  C   UNL     1       2.116   5.103  20.417  0.00  0.00    +0.000 A 
ATOM      4  C   UNL     1       2.863   5.413  19.274  0.00  0.00    +0.000 A 
ATOM      5  C   UNL     1       2.934   6.732  18.823  0.00  0.00    +0.000 A 
ATOM      6  C   UNL     1       2.233   7.743  19.492  0.00  0.00    +0.000 A 
ATOM      7  C   UNL     1       3.756   7.074  17.646  0.00  0.00    +0.000 C 
ATOM      8  O   UNL     1       3.864   8.242  17.291  0.00  0.00    +0.000 OA
ATOM      9  C   UNL     1       4.438   5.994  16.906  0.00  0.00    +0.000 A 
ATOM     10  C   UNL     1       5.204   6.305  15.775  0.00  0.00    +0.000 A 
ATOM     11  C   UNL     1       5.798   5.283  15.033  0.00  0.00    +0.000 A 
ATOM     12  C   UNL     1       5.631   3.953  15.418  0.00  0.00    +0.000 A 
ATOM     13  C   UNL     1       4.897   3.644  16.563  0.00  0.00    +0.000 A 
ATOM     14  C   UNL     1       4.303   4.667  17.311  0.00  0.00    +0.000 A 
ATOM     15  C   UNL     1       3.550   4.334  18.537  0.00  0.00    +0.000 C 
ATOM     16  O   UNL     1       3.494   3.178  18.935  0.00  0.00    +0.000 OA
ENDROOT
BRANCH   1  17
ATOM     17  S   UNL     1       0.589   8.716  21.462  0.00  0.00    +0.000 S 
ATOM     18  O   UNL     1       1.417   9.223  22.535  0.00  0.00    +0.000 OA
ATOM     19  O   UNL     1      -0.733   8.188  21.725  0.00  0.00    +0.000 OA
BRANCH  17  20
ATOM     20  N   UNL     1       0.400   9.908  20.304  0.00  0.00    +0.000 N 
ATOM     21  H   UNL     1       1.052   9.902  19.522  0.00  0.00    +0.000 HD
BRANCH  20  26
ATOM     22  C   UNL     1      -3.911  13.670  20.539  0.00  0.00    +0.000 C 
ATOM     23  C   UNL     1      -2.782  12.684  20.471  0.00  0.00    +0.000 A 
ATOM     24  C   UNL     1      -1.927  12.496  21.556  0.00  0.00    +0.000 A 
ATOM     25  C   UNL     1      -0.883  11.574  21.472  0.00  0.00    +0.000 A 
ATOM     26  C   UNL     1      -0.696  10.805  20.317  0.00  0.00    +0.000 A 
ATOM     27  C   UNL     1      -1.527  10.995  19.207  0.00  0.00    +0.000 A 
ATOM     28  C   UNL     1      -1.374  10.264  17.905  0.00  0.00    +0.000 C 
ATOM     29  C   UNL     1      -2.570  11.938  19.304  0.00  0.00    +0.000 A 
ENDBRANCH  20  26
ENDBRANCH  17  20
ENDBRANCH   1  17
TORSDOF 3
ENDMDL
MODEL 6
REMARK VINA RESULT:      -8.4      2.770      8.192
REMARK  Name = 
REMARK  5 active torsions:
REMARK  status: ('A' for Active; 'I' for Inactive)
REMARK    1  A    between atoms: C_1  and  C_2
REMARK    2  A    between atoms: C_5  and  N_6
REMARK    3  A    between atoms: N_6  and  S_7
REMARK    4  A    between atoms: S_7  and  C_10
REMARK    5  A    between atoms: C_26  and  C_27
REMARK                            x       y       z     vdW  Elec       q    Type
REMARK                         _______ _______ _______ _____ _____    ______ ____
ROOT
ATOM      1  C   UNL     1       3.330   5.468  18.649  0.00  0.00    +0.000 A 
ATOM      2  C   UNL     1       3.658   6.220  17.517  0.00  0.00    +0.000 A 
ATOM      3  C   UNL     1       3.194   7.536  17.406  0.00  0.00    +0.000 A 
ATOM      4  C   UNL     1       2.410   8.092  18.425  0.00  0.00    +0.000 A 
ATOM      5  C   UNL     1       2.103   7.341  19.560  0.00  0.00    +0.000 A 
ATOM      6  C   UNL     1       2.548   6.017  19.668  0.00  0.00    +0.000 A 
ATOM      7  C   UNL     1       1.317   7.935  20.658  0.00  0.00    +0.000 C 
ATOM      8  O   UNL     1       1.102   7.291  21.678  0.00  0.00    +0.000 OA
ATOM      9  C   UNL     1       0.794   9.308  20.508  0.00  0.00    +0.000 A 
ATOM     10  C   UNL     1       0.029   9.874  21.536  0.00  0.00    +0.000 A 
ATOM     11  C   UNL     1      -0.523  11.146  21.373  0.00  0.00    +0.000 A 
ATOM     12  C   UNL     1      -0.312  11.853  20.190  0.00  0.00    +0.000 A 
ATOM     13  C   UNL     1       0.478  11.304  19.180  0.00  0.00    +0.000 A 
ATOM     14  C   UNL     1       1.036  10.030  19.341  0.00  0.00    +0.000 A 
ATOM     15  C   UNL     1       1.893   9.467  18.278  0.00  0.00    +0.000 C 
ATOM     16  O   UNL     1       2.167  10.130  17.287  0.00  0.00    +0.000 OA
ENDROOT
BRANCH   1  17
ATOM     17  S   UNL     1       3.873   3.780  18.790  0.00  0.00    +0.000 S 
ATOM     18  O   UNL     1       3.247   3.018  17.731  0.00  0.00    +0.000 OA
ATOM     19  O   UNL     1       3.701   3.409  20.178  0.00  0.00    +0.000 OA
BRANCH  17  20
ATOM     20  N   UNL     1       5.522   3.847  18.519  0.00  0.00    +0.000 N 
ATOM     21  H   UNL     1       6.128   3.522  19.269  0.00  0.00    +0.000 HD
BRANCH  20  26
ATOM     22  C   UNL     1       7.515   5.181  13.318  0.00  0.00    +0.000 C 
ATOM     23  C   UNL     1       6.995   4.837  14.683  0.00  0.00    +0.000 A 
ATOM     24  C   UNL     1       6.062   3.816  14.860  0.00  0.00    +0.000 A 
ATOM     25  C   UNL     1       5.592   3.512  16.138  0.00  0.00    +0.000 A 
ATOM     26  C   UNL     1       6.067   4.201  17.260  0.00  0.00    +0.000 A 
ATOM     27  C   UNL     1       6.984   5.246  17.103  0.00  0.00    +0.000 A 
ATOM     28  C   UNL     1       7.510   6.082  18.234  0.00  0.00    +0.000 C 
ATOM     29  C   UNL     1       7.441   5.548  15.806  0.00  0.00    +0.000 A 
ENDBRANCH  20  26
ENDBRANCH  17  20
ENDBRANCH   1  17
TORSDOF 3
ENDMDL
MODEL 7
REMARK VINA RESULT:      -8.3      1.834      3.138
REMARK  Name = 
REMARK  5 active torsions:
REMARK  status: ('A' for Active; 'I' for Inactive)
REMARK    1  A    between atoms: C_1  and  C_2
REMARK    2  A    between atoms: C_5  and  N_6
REMARK    3  A    between atoms: N_6  and  S_7
REMARK    4  A    between atoms: S_7  and  C_10
REMARK    5  A    between atoms: C_26  and  C_27
REMARK                            x       y       z     vdW  Elec       q    Type
REMARK                         _______ _______ _______ _____ _____    ______ ____
ROOT
ATOM      1  C   UNL     1       1.521   9.560  19.232  0.00  0.00    +0.000 A 
ATOM      2  C   UNL     1       2.236   9.615  18.032  0.00  0.00    +0.000 A 
ATOM      3  C   UNL     1       2.905   8.475  17.575  0.00  0.00    +0.000 A 
ATOM      4  C   UNL     1       2.853   7.286  18.315  0.00  0.00    +0.000 A 
ATOM      5  C   UNL     1       2.121   7.234  19.502  0.00  0.00    +0.000 A 
ATOM      6  C   UNL     1       1.466   8.378  19.975  0.00  0.00    +0.000 A 
ATOM      7  C   UNL     1       2.023   5.974  20.264  0.00  0.00    +0.000 C 
ATOM      8  O   UNL     1       1.331   5.918  21.273  0.00  0.00    +0.000 OA
ATOM      9  C   UNL     1       2.772   4.790  19.796  0.00  0.00    +0.000 A 
ATOM     10  C   UNL     1       2.703   3.595  20.523  0.00  0.00    +0.000 A 
ATOM     11  C   UNL     1       3.459   2.491  20.122  0.00  0.00    +0.000 A 
ATOM     12  C   UNL     1       4.281   2.579  18.999  0.00  0.00    +0.000 A 
ATOM     13  C   UNL     1       4.324   3.758  18.255  0.00  0.00    +0.000 A 
ATOM     14  C   UNL     1       3.565   4.865  18.652  0.00  0.00    +0.000 A 
ATOM     15  C   UNL     1       3.596   6.101  17.844  0.00  0.00    +0.000 C 
ATOM     16  O   UNL     1       4.232   6.142  16.800  0.00  0.00    +0.000 OA
ENDROOT
BRANCH   1  17
ATOM     17  S   UNL     1       0.700  11.011  19.853  0.00  0.00    +0.000 S 
ATOM     18  O   UNL     1       0.940  12.093  18.924  0.00  0.00    +0.000 OA
ATOM     19  O   UNL     1       1.072  11.127  21.247  0.00  0.00    +0.000 OA
BRANCH  17  20
ATOM     20  N   UNL     1      -0.925  10.615  19.829  0.00  0.00    +0.000 N 
ATOM     21  H   UNL     1      -1.370  10.430  20.725  0.00  0.00    +0.000 HD
BRANCH  20  26
ATOM     22  C   UNL     1      -3.963  10.591  14.974  0.00  0.00    +0.000 C 
ATOM     23  C   UNL     1      -3.173  10.600  16.249  0.00  0.00    +0.000 A 
ATOM     24  C   UNL     1      -2.054   9.782  16.406  0.00  0.00    +0.000 A 
ATOM     25  C   UNL     1      -1.332   9.806  17.600  0.00  0.00    +0.000 A 
ATOM     26  C   UNL     1      -1.697  10.667  18.642  0.00  0.00    +0.000 A 
ATOM     27  C   UNL     1      -2.830  11.479  18.515  0.00  0.00    +0.000 A 
ATOM     28  C   UNL     1      -3.336  12.392  19.594  0.00  0.00    +0.000 C 
ATOM     29  C   UNL     1      -3.555  11.435  17.308  0.00  0.00    +0.000 A 
ENDBRANCH  20  26
ENDBRANCH  17  20
ENDBRANCH   1  17
TORSDOF 3
ENDMDL
MODEL 8
REMARK VINA RESULT:      -8.3      1.576      2.064
REMARK  Name = 
REMARK  5 active torsions:
REMARK  status: ('A' for Active; 'I' for Inactive)
REMARK    1  A    between atoms: C_1  and  C_2
REMARK    2  A    between atoms: C_5  and  N_6
REMARK    3  A    between atoms: N_6  and  S_7
REMARK    4  A    between atoms: S_7  and  C_10
REMARK    5  A    between atoms: C_26  and  C_27
REMARK                            x       y       z     vdW  Elec       q    Type
REMARK                         _______ _______ _______ _____ _____    ______ ____
ROOT
ATOM      1  C   UNL     1       1.419   7.539  20.535  0.00  0.00    +0.000 A 
ATOM      2  C   UNL     1       1.431   6.253  21.083  0.00  0.00    +0.000 A 
ATOM      3  C   UNL     1       2.168   5.243  20.454  0.00  0.00    +0.000 A 
ATOM      4  C   UNL     1       2.891   5.523  19.288  0.00  0.00    +0.000 A 
ATOM      5  C   UNL     1       2.890   6.814  18.759  0.00  0.00    +0.000 A 
ATOM      6  C   UNL     1       2.138   7.824  19.371  0.00  0.00    +0.000 A 
ATOM      7  C   UNL     1       3.686   7.129  17.557  0.00  0.00    +0.000 C 
ATOM      8  O   UNL     1       3.729   8.276  17.131  0.00  0.00    +0.000 OA
ATOM      9  C   UNL     1       4.421   6.043  16.876  0.00  0.00    +0.000 A 
ATOM     10  C   UNL     1       5.163   6.327  15.722  0.00  0.00    +0.000 A 
ATOM     11  C   UNL     1       5.808   5.295  15.038  0.00  0.00    +0.000 A 
ATOM     12  C   UNL     1       5.715   3.983  15.503  0.00  0.00    +0.000 A 
ATOM     13  C   UNL     1       5.004   3.705  16.671  0.00  0.00    +0.000 A 
ATOM     14  C   UNL     1       4.359   4.738  17.361  0.00  0.00    +0.000 A 
ATOM     15  C   UNL     1       3.632   4.440  18.612  0.00  0.00    +0.000 C 
ATOM     16  O   UNL     1       3.640   3.309  19.078  0.00  0.00    +0.000 OA
ENDROOT
BRANCH   1  17
ATOM     17  S   UNL     1       0.454   8.826  21.293  0.00  0.00    +0.000 S 
ATOM     18  O   UNL     1       1.342   9.637  22.097  0.00  0.00    +0.000 OA
ATOM     19  O   UNL     1      -0.702   8.180  21.878  0.00  0.00    +0.000 OA
BRANCH  17  20
ATOM     20  N   UNL     1      -0.112   9.736  20.010  0.00  0.00    +0.000 N 
ATOM     21  H   UNL     1      -0.853   9.328  19.444  0.00  0.00    +0.000 HD
BRANCH  20  26
ATOM     22  C   UNL     1       1.677  15.061  18.893  0.00  0.00    +0.000 C 
ATOM     23  C   UNL     1       1.203  13.668  19.188  0.00  0.00    +0.000 A 
ATOM     24  C   UNL     1       1.804  12.563  18.587  0.00  0.00    +0.000 A 
ATOM     25  C   UNL     1       1.347  11.276  18.876  0.00  0.00    +0.000 A 
ATOM     26  C   UNL     1       0.306  11.072  19.789  0.00  0.00    +0.000 A 
ATOM     27  C   UNL     1      -0.328  12.168  20.384  0.00  0.00    +0.000 A 
ATOM     28  C   UNL     1      -1.488  12.058  21.331  0.00  0.00    +0.000 C 
ATOM     29  C   UNL     1       0.137  13.461  20.075  0.00  0.00    +0.000 A 
ENDBRANCH  20  26
ENDBRANCH  17  20
ENDBRANCH   1  17
TORSDOF 3
ENDMDL
MODEL 9
REMARK VINA RESULT:      -8.3      3.161      7.706
REMARK  Name = 
REMARK  5 active torsions:
REMARK  status: ('A' for Active; 'I' for Inactive)
REMARK    1  A    between atoms: C_1  and  C_2
REMARK    2  A    between atoms: C_5  and  N_6
REMARK    3  A    between atoms: N_6  and  S_7
REMARK    4  A    between atoms: S_7  and  C_10
REMARK    5  A    between atoms: C_26  and  C_27
REMARK                            x       y       z     vdW  Elec       q    Type
REMARK                         _______ _______ _______ _____ _____    ______ ____
ROOT
ATOM      1  C   UNL     1       4.546   5.732  17.719  0.00  0.00    +0.000 A 
ATOM      2  C   UNL     1       4.566   6.736  16.746  0.00  0.00    +0.000 A 
ATOM      3  C   UNL     1       3.757   7.866  16.905  0.00  0.00    +0.000 A 
ATOM      4  C   UNL     1       2.937   7.990  18.034  0.00  0.00    +0.000 A 
ATOM      5  C   UNL     1       2.938   6.992  19.010  0.00  0.00    +0.000 A 
ATOM      6  C   UNL     1       3.730   5.849  18.847  0.00  0.00    +0.000 A 
ATOM      7  C   UNL     1       2.112   7.136  20.225  0.00  0.00    +0.000 C 
ATOM      8  O   UNL     1       2.161   6.287  21.105  0.00  0.00    +0.000 OA
ATOM      9  C   UNL     1       1.227   8.311  20.358  0.00  0.00    +0.000 A 
ATOM     10  C   UNL     1       0.423   8.447  21.497  0.00  0.00    +0.000 A 
ATOM     11  C   UNL     1      -0.462   9.522  21.600  0.00  0.00    +0.000 A 
ATOM     12  C   UNL     1      -0.546  10.459  20.571  0.00  0.00    +0.000 A 
ATOM     13  C   UNL     1       0.278  10.343  19.452  0.00  0.00    +0.000 A 
ATOM     14  C   UNL     1       1.170   9.269  19.347  0.00  0.00    +0.000 A 
ATOM     15  C   UNL     1       2.058   9.167  18.171  0.00  0.00    +0.000 C 
ATOM     16  O   UNL     1       2.062  10.047  17.320  0.00  0.00    +0.000 OA
ENDROOT
BRANCH   1  17
ATOM     17  S   UNL     1       5.534   4.268  17.514  0.00  0.00    +0.000 S 
ATOM     18  O   UNL     1       6.462   4.195  18.622  0.00  0.00    +0.000 OA
ATOM     19  O   UNL     1       6.005   4.280  16.145  0.00  0.00    +0.000 OA
BRANCH  17  20
ATOM     20  N   UNL     1       4.442   3.006  17.626  0.00  0.00    +0.000 N 
ATOM     21  H   UNL     1       4.496   2.281  16.914  0.00  0.00    +0.000 HD
BRANCH  20  26
ATOM     22  C   UNL     1       1.109   2.451  22.251  0.00  0.00    +0.000 C 
ATOM     23  C   UNL     1       1.978   2.600  21.037  0.00  0.00    +0.000 A 
ATOM     24  C   UNL     1       3.346   2.335  21.095  0.00  0.00    +0.000 A 
ATOM     25  C   UNL     1       4.135   2.479  19.953  0.00  0.00    +0.000 A 
ATOM     26  C   UNL     1       3.568   2.861  18.732  0.00  0.00    +0.000 A 
ATOM     27  C   UNL     1       2.202   3.156  18.656  0.00  0.00    +0.000 A 
ATOM     28  C   UNL     1       1.510   3.627  17.410  0.00  0.00    +0.000 C 
ATOM     29  C   UNL     1       1.420   3.016  19.819  0.00  0.00    +0.000 A 
ENDBRANCH  20  26
ENDBRANCH  17  20
ENDBRANCH   1  17
TORSDOF 3
ENDMDL
