MODEL 1
REMARK VINA RESULT:      -7.7      0.000      0.000
REMARK  Name = 
REMARK  17 active torsions:
REMARK  status: ('A' for Active; 'I' for Inactive)
REMARK    1  A    between atoms: C_1  and  O_2
REMARK    2  A    between atoms: O_2  and  C_3
REMARK    3  A    between atoms: C_6  and  C_7
REMARK    4  A    between atoms: C_7  and  C_8
REMARK    5  A    between atoms: C_7  and  C_9
REMARK    6  A    between atoms: C_9  and  N_10
REMARK    7  A    between atoms: N_10  and  C_11
REMARK    8  A    between atoms: N_10  and  C_12
REMARK    9  A    between atoms: C_12  and  C_13
REMARK   10  A    between atoms: C_14  and  C_15
REMARK   11  A    between atoms: C_15  and  N_16
REMARK   12  A    between atoms: C_21  and  O_22
REMARK   13  A    between atoms: O_22  and  C_23
REMARK   14  A    between atoms: C_24  and  O_25
REMARK   15  A    between atoms: O_25  and  C_26
REMARK   16  A    between atoms: C_33  and  O_34
REMARK   17  A    between atoms: O_34  and  C_35
REMARK                            x       y       z     vdW  Elec       q    Type
REMARK                         _______ _______ _______ _____ _____    ______ ____
ROOT
ATOM      1  C   UNL     1       2.341   7.152  19.407  0.00  0.00    +0.000 C 
ATOM      2  C   UNL     1       1.732   8.353  19.405  0.00  0.00    +0.000 C 
ENDROOT
BRANCH   1   3
ATOM      3  C   UNL     1       2.080   6.061  20.412  0.00  0.00    +0.000 C 
BRANCH   3   4
ATOM      4  N   UNL     1       1.517   4.839  19.807  0.00  0.00    +0.000 NA
ATOM      5  C   UNL     1       1.664   3.726  20.750  0.00  0.00    +0.000 C 
BRANCH   4   6
ATOM      6  C   UNL     1       2.188   4.534  18.523  0.00  0.00    +0.000 C 
BRANCH   6   7
ATOM      7  C   UNL     1       3.547   3.776  18.632  0.00  0.00    +0.000 C 
ATOM      8  C   UNL     1       3.557   2.492  17.797  0.00  0.00    +0.000 C 
BRANCH   7  12
ATOM      9  C   UNL     1       6.834   6.259  17.369  0.00  0.00    +0.000 A 
ATOM     10  C   UNL     1       6.857   5.701  18.648  0.00  0.00    +0.000 A 
ATOM     11  C   UNL     1       5.817   4.853  19.056  0.00  0.00    +0.000 A 
ATOM     12  C   UNL     1       4.681   4.683  18.253  0.00  0.00    +0.000 A 
ATOM     13  C   UNL     1       4.643   5.295  17.012  0.00  0.00    +0.000 A 
ATOM     14  C   UNL     1       5.767   5.928  16.529  0.00  0.00    +0.000 A 
BRANCH   9  16
ATOM     15  C   UNL     1       7.873   8.379  17.614  0.00  0.00    +0.000 C 
ATOM     16  O   UNL     1       7.758   7.154  16.913  0.00  0.00    +0.000 OA
ENDBRANCH   9  16
BRANCH  14  17
ATOM     17  O   UNL     1       5.772   5.904  15.145  0.00  0.00    +0.000 OA
ATOM     18  C   UNL     1       6.190   4.678  14.578  0.00  0.00    +0.000 C 
ENDBRANCH  14  17
ENDBRANCH   7  12
ENDBRANCH   6   7
ENDBRANCH   4   6
ENDBRANCH   3   4
ENDBRANCH   1   3
BRANCH   2  19
ATOM     19  C   UNL     1       1.938   9.418  18.357  0.00  0.00    +0.000 C 
BRANCH  19  20
ATOM     20  N   UNL     1       0.745  10.242  18.220  0.00  0.00    +0.000 N 
ATOM     21  C   UNL     1      -0.498   9.676  17.983  0.00  0.00    +0.000 C 
ATOM     22  C   UNL     1      -1.422  10.458  17.393  0.00  0.00    +0.000 C 
ATOM     23  C   UNL     1      -2.334  11.143  18.310  0.00  0.00    +0.000 A 
ATOM     24  C   UNL     1      -3.712  11.254  18.036  0.00  0.00    +0.000 A 
ATOM     25  C   UNL     1      -4.576  11.972  18.896  0.00  0.00    +0.000 A 
ATOM     26  C   UNL     1      -4.065  12.549  20.055  0.00  0.00    +0.000 A 
ATOM     27  C   UNL     1      -2.684  12.457  20.277  0.00  0.00    +0.000 A 
ATOM     28  C   UNL     1      -1.794  11.811  19.398  0.00  0.00    +0.000 A 
ATOM     29  C   UNL     1      -0.305  11.925  19.730  0.00  0.00    +0.000 C 
ATOM     30  C   UNL     1       0.813  11.542  18.746  0.00  0.00    +0.000 C 
ATOM     31  O   UNL     1       1.817  12.248  18.629  0.00  0.00    +0.000 OA
BRANCH  25  32
ATOM     32  O   UNL     1      -5.898  12.231  18.644  0.00  0.00    +0.000 OA
ATOM     33  C   UNL     1      -6.193  12.755  17.362  0.00  0.00    +0.000 C 
ENDBRANCH  25  32
BRANCH  26  34
ATOM     34  O   UNL     1      -4.833  13.429  20.787  0.00  0.00    +0.000 OA
ATOM     35  C   UNL     1      -5.195  13.035  22.120  0.00  0.00    +0.000 C 
ENDBRANCH  26  34
ENDBRANCH  19  20
ENDBRANCH   2  19
TORSDOF 11
ENDMDL
MODEL 2
REMARK VINA RESULT:      -7.5      1.909      3.162
REMARK  Name = 
REMARK  17 active torsions:
REMARK  status: ('A' for Active; 'I' for Inactive)
REMARK    1  A    between atoms: C_1  and  O_2
REMARK    2  A    between atoms: O_2  and  C_3
REMARK    3  A    between atoms: C_6  and  C_7
REMARK    4  A    between atoms: C_7  and  C_8
REMARK    5  A    between atoms: C_7  and  C_9
REMARK    6  A    between atoms: C_9  and  N_10
REMARK    7  A    between atoms: N_10  and  C_11
REMARK    8  A    between atoms: N_10  and  C_12
REMARK    9  A    between atoms: C_12  and  C_13
REMARK   10  A    between atoms: C_14  and  C_15
REMARK   11  A    between atoms: C_15  and  N_16
REMARK   12  A    between atoms: C_21  and  O_22
REMARK   13  A    between atoms: O_22  and  C_23
REMARK   14  A    between atoms: C_24  and  O_25
REMARK   15  A    between atoms: O_25  and  C_26
REMARK   16  A    between atoms: C_33  and  O_34
REMARK   17  A    between atoms: O_34  and  C_35
REMARK                            x       y       z     vdW  Elec       q    Type
REMARK                         _______ _______ _______ _____ _____    ______ ____
ROOT
ATOM      1  C   UNL     1       2.500   7.984  18.476  0.00  0.00    +0.000 C 
ATOM      2  C   UNL     1       1.585   8.827  17.960  0.00  0.00    +0.000 C 
ENDROOT
BRANCH   1   3
ATOM      3  C   UNL     1       2.652   6.538  18.082  0.00  0.00    +0.000 C 
BRANCH   3   4
ATOM      4  N   UNL     1       2.516   5.610  19.221  0.00  0.00    +0.000 NA
ATOM      5  C   UNL     1       1.911   6.324  20.350  0.00  0.00    +0.000 C 
BRANCH   4   6
ATOM      6  C   UNL     1       3.833   5.047  19.597  0.00  0.00    +0.000 C 
BRANCH   6   7
ATOM      7  C   UNL     1       4.277   3.778  18.810  0.00  0.00    +0.000 C 
ATOM      8  C   UNL     1       3.082   2.931  18.363  0.00  0.00    +0.000 C 
BRANCH   7  12
ATOM      9  C   UNL     1       6.760   5.084  15.539  0.00  0.00    +0.000 A 
ATOM     10  C   UNL     1       5.548   4.452  15.261  0.00  0.00    +0.000 A 
ATOM     11  C   UNL     1       4.707   4.064  16.314  0.00  0.00    +0.000 A 
ATOM     12  C   UNL     1       5.140   4.163  17.643  0.00  0.00    +0.000 A 
ATOM     13  C   UNL     1       6.374   4.733  17.902  0.00  0.00    +0.000 A 
ATOM     14  C   UNL     1       7.082   5.322  16.879  0.00  0.00    +0.000 A 
BRANCH   9  16
ATOM     15  C   UNL     1       7.485   4.899  13.286  0.00  0.00    +0.000 C 
ATOM     16  O   UNL     1       7.676   5.426  14.587  0.00  0.00    +0.000 OA
ENDBRANCH   9  16
BRANCH  14  17
ATOM     17  O   UNL     1       7.892   6.329  17.375  0.00  0.00    +0.000 OA
ATOM     18  C   UNL     1       7.301   7.613  17.380  0.00  0.00    +0.000 C 
ENDBRANCH  14  17
ENDBRANCH   7  12
ENDBRANCH   6   7
ENDBRANCH   4   6
ENDBRANCH   3   4
ENDBRANCH   1   3
BRANCH   2  19
ATOM     19  C   UNL     1       1.480  10.292  18.300  0.00  0.00    +0.000 C 
BRANCH  19  20
ATOM     20  N   UNL     1       0.356  10.534  19.193  0.00  0.00    +0.000 N 
ATOM     21  C   UNL     1       0.550  10.877  20.522  0.00  0.00    +0.000 C 
ATOM     22  C   UNL     1      -0.454  10.606  21.375  0.00  0.00    +0.000 C 
ATOM     23  C   UNL     1      -1.376  11.715  21.624  0.00  0.00    +0.000 A 
ATOM     24  C   UNL     1      -1.867  11.993  22.914  0.00  0.00    +0.000 A 
ATOM     25  C   UNL     1      -2.807  13.028  23.136  0.00  0.00    +0.000 A 
ATOM     26  C   UNL     1      -3.226  13.813  22.065  0.00  0.00    +0.000 A 
ATOM     27  C   UNL     1      -2.752  13.484  20.788  0.00  0.00    +0.000 A 
ATOM     28  C   UNL     1      -1.874  12.412  20.534  0.00  0.00    +0.000 A 
ATOM     29  C   UNL     1      -1.568  12.117  19.065  0.00  0.00    +0.000 C 
ATOM     30  C   UNL     1      -0.877  10.827  18.587  0.00  0.00    +0.000 C 
ATOM     31  O   UNL     1      -1.272  10.239  17.577  0.00  0.00    +0.000 OA
BRANCH  25  32
ATOM     32  O   UNL     1      -3.425  13.285  24.331  0.00  0.00    +0.000 OA
ATOM     33  C   UNL     1      -4.395  12.340  24.743  0.00  0.00    +0.000 C 
ENDBRANCH  25  32
BRANCH  26  34
ATOM     34  O   UNL     1      -4.294  14.673  22.214  0.00  0.00    +0.000 OA
ATOM     35  C   UNL     1      -5.539  14.285  21.613  0.00  0.00    +0.000 C 
ENDBRANCH  26  34
ENDBRANCH  19  20
ENDBRANCH   2  19
TORSDOF 11
ENDMDL
MODEL 3
REMARK VINA RESULT:      -7.4      2.384      2.867
REMARK  Name = 
REMARK  17 active torsions:
REMARK  status: ('A' for Active; 'I' for Inactive)
REMARK    1  A    between atoms: C_1  and  O_2
REMARK    2  A    between atoms: O_2  and  C_3
REMARK    3  A    between atoms: C_6  and  C_7
REMARK    4  A    between atoms: C_7  and  C_8
REMARK    5  A    between atoms: C_7  and  C_9
REMARK    6  A    between atoms: C_9  and  N_10
REMARK    7  A    between atoms: N_10  and  C_11
REMARK    8  A    between atoms: N_10  and  C_12
REMARK    9  A    between atoms: C_12  and  C_13
REMARK   10  A    between atoms: C_14  and  C_15
REMARK   11  A    between atoms: C_15  and  N_16
REMARK   12  A    between atoms: C_21  and  O_22
REMARK   13  A    between atoms: O_22  and  C_23
REMARK   14  A    between atoms: C_24  and  O_25
REMARK   15  A    between atoms: O_25  and  C_26
REMARK   16  A    between atoms: C_33  and  O_34
REMARK   17  A    between atoms: O_34  and  C_35
REMARK                            x       y       z     vdW  Elec       q    Type
REMARK                         _______ _______ _______ _____ _____    ______ ____
ROOT
ATOM      1  C   UNL     1       1.935   6.494  20.088  0.00  0.00    +0.000 C 
ATOM      2  C   UNL     1       1.671   7.734  20.541  0.00  0.00    +0.000 C 
ENDROOT
BRANCH   1   3
ATOM      3  C   UNL     1       2.158   5.290  20.965  0.00  0.00    +0.000 C 
BRANCH   3   4
ATOM      4  N   UNL     1       1.984   4.011  20.249  0.00  0.00    +0.000 NA
ATOM      5  C   UNL     1       1.294   3.061  21.128  0.00  0.00    +0.000 C 
BRANCH   4   6
ATOM      6  C   UNL     1       3.294   3.472  19.816  0.00  0.00    +0.000 C 
BRANCH   6   7
ATOM      7  C   UNL     1       3.575   3.527  18.284  0.00  0.00    +0.000 C 
ATOM      8  C   UNL     1       2.321   3.890  17.482  0.00  0.00    +0.000 C 
BRANCH   7  12
ATOM      9  C   UNL     1       6.853   6.134  17.271  0.00  0.00    +0.000 A 
ATOM     10  C   UNL     1       6.832   5.526  18.527  0.00  0.00    +0.000 A 
ATOM     11  C   UNL     1       5.797   4.638  18.853  0.00  0.00    +0.000 A 
ATOM     12  C   UNL     1       4.702   4.474  17.993  0.00  0.00    +0.000 A 
ATOM     13  C   UNL     1       4.705   5.134  16.777  0.00  0.00    +0.000 A 
ATOM     14  C   UNL     1       5.832   5.812  16.371  0.00  0.00    +0.000 A 
BRANCH   9  16
ATOM     15  C   UNL     1       7.788   8.289  17.611  0.00  0.00    +0.000 C 
ATOM     16  O   UNL     1       7.773   7.068  16.894  0.00  0.00    +0.000 OA
ENDBRANCH   9  16
BRANCH  14  17
ATOM     17  O   UNL     1       5.900   5.844  14.989  0.00  0.00    +0.000 OA
ATOM     18  C   UNL     1       6.452   4.685  14.398  0.00  0.00    +0.000 C 
ENDBRANCH  14  17
ENDBRANCH   7  12
ENDBRANCH   6   7
ENDBRANCH   4   6
ENDBRANCH   3   4
ENDBRANCH   1   3
BRANCH   2  19
ATOM     19  C   UNL     1       1.374   8.923  19.663  0.00  0.00    +0.000 C 
BRANCH  19  20
ATOM     20  N   UNL     1       0.873  10.036  20.457  0.00  0.00    +0.000 N 
ATOM     21  C   UNL     1       0.032  10.993  19.909  0.00  0.00    +0.000 C 
ATOM     22  C   UNL     1       0.011  12.200  20.504  0.00  0.00    +0.000 C 
ATOM     23  C   UNL     1      -1.052  12.387  21.492  0.00  0.00    +0.000 A 
ATOM     24  C   UNL     1      -1.778  13.592  21.578  0.00  0.00    +0.000 A 
ATOM     25  C   UNL     1      -2.760  13.788  22.577  0.00  0.00    +0.000 A 
ATOM     26  C   UNL     1      -3.044  12.759  23.470  0.00  0.00    +0.000 A 
ATOM     27  C   UNL     1      -2.275  11.590  23.385  0.00  0.00    +0.000 A 
ATOM     28  C   UNL     1      -1.243  11.401  22.447  0.00  0.00    +0.000 A 
ATOM     29  C   UNL     1      -0.421  10.119  22.587  0.00  0.00    +0.000 C 
ATOM     30  C   UNL     1       0.910   9.881  21.852  0.00  0.00    +0.000 C 
ATOM     31  O   UNL     1       1.864   9.359  22.432  0.00  0.00    +0.000 OA
BRANCH  25  32
ATOM     32  O   UNL     1      -3.422  14.965  22.807  0.00  0.00    +0.000 OA
ATOM     33  C   UNL     1      -2.620  16.058  23.214  0.00  0.00    +0.000 C 
ENDBRANCH  25  32
BRANCH  26  34
ATOM     34  O   UNL     1      -3.830  13.000  24.577  0.00  0.00    +0.000 OA
ATOM     35  C   UNL     1      -5.113  12.355  24.625  0.00  0.00    +0.000 C 
ENDBRANCH  26  34
ENDBRANCH  19  20
ENDBRANCH   2  19
TORSDOF 11
ENDMDL
MODEL 4
REMARK VINA RESULT:      -7.3      2.816      3.624
REMARK  Name = 
REMARK  17 active torsions:
REMARK  status: ('A' for Active; 'I' for Inactive)
REMARK    1  A    between atoms: C_1  and  O_2
REMARK    2  A    between atoms: O_2  and  C_3
REMARK    3  A    between atoms: C_6  and  C_7
REMARK    4  A    between atoms: C_7  and  C_8
REMARK    5  A    between atoms: C_7  and  C_9
REMARK    6  A    between atoms: C_9  and  N_10
REMARK    7  A    between atoms: N_10  and  C_11
REMARK    8  A    between atoms: N_10  and  C_12
REMARK    9  A    between atoms: C_12  and  C_13
REMARK   10  A    between atoms: C_14  and  C_15
REMARK   11  A    between atoms: C_15  and  N_16
REMARK   12  A    between atoms: C_21  and  O_22
REMARK   13  A    between atoms: O_22  and  C_23
REMARK   14  A    between atoms: C_24  and  O_25
REMARK   15  A    between atoms: O_25  and  C_26
REMARK   16  A    between atoms: C_33  and  O_34
REMARK   17  A    between atoms: O_34  and  C_35
REMARK                            x       y       z     vdW  Elec       q    Type
REMARK                         _______ _______ _______ _____ _____    ______ ____
ROOT
ATOM      1  C   UNL     1       1.604   4.979  19.696  0.00  0.00    +0.000 C 
ATOM      2  C   UNL     1       1.917   6.082  18.990  0.00  0.00    +0.000 C 
ENDROOT
BRANCH   1   3
ATOM      3  C   UNL     1       1.053   3.709  19.102  0.00  0.00    +0.000 C 
BRANCH   3   4
ATOM      4  N   UNL     1       1.480   2.497  19.829  0.00  0.00    +0.000 NA
ATOM      5  C   UNL     1       1.594   2.811  21.256  0.00  0.00    +0.000 C 
BRANCH   4   6
ATOM      6  C   UNL     1       2.767   1.994  19.296  0.00  0.00    +0.000 C 
BRANCH   6   7
ATOM      7  C   UNL     1       4.041   2.760  19.764  0.00  0.00    +0.000 C 
ATOM      8  C   UNL     1       5.021   1.846  20.506  0.00  0.00    +0.000 C 
BRANCH   7  12
ATOM      9  C   UNL     1       5.901   4.890  16.513  0.00  0.00    +0.000 A 
ATOM     10  C   UNL     1       4.856   4.008  16.237  0.00  0.00    +0.000 A 
ATOM     11  C   UNL     1       4.209   3.344  17.289  0.00  0.00    +0.000 A 
ATOM     12  C   UNL     1       4.701   3.437  18.598  0.00  0.00    +0.000 A 
ATOM     13  C   UNL     1       5.780   4.266  18.848  0.00  0.00    +0.000 A 
ATOM     14  C   UNL     1       6.253   5.090  17.851  0.00  0.00    +0.000 A 
BRANCH   9  16
ATOM     15  C   UNL     1       6.802   4.847  14.317  0.00  0.00    +0.000 C 
ATOM     16  O   UNL     1       6.639   5.520  15.553  0.00  0.00    +0.000 OA
ENDBRANCH   9  16
BRANCH  14  17
ATOM     17  O   UNL     1       6.835   6.219  18.400  0.00  0.00    +0.000 OA
ATOM     18  C   UNL     1       7.919   5.962  19.269  0.00  0.00    +0.000 C 
ENDBRANCH  14  17
ENDBRANCH   7  12
ENDBRANCH   6   7
ENDBRANCH   4   6
ENDBRANCH   3   4
ENDBRANCH   1   3
BRANCH   2  19
ATOM     19  C   UNL     1       2.538   7.327  19.573  0.00  0.00    +0.000 C 
BRANCH  19  20
ATOM     20  N   UNL     1       1.509   8.283  19.957  0.00  0.00    +0.000 N 
ATOM     21  C   UNL     1       1.112   8.424  21.278  0.00  0.00    +0.000 C 
ATOM     22  C   UNL     1      -0.119   8.921  21.496  0.00  0.00    +0.000 C 
ATOM     23  C   UNL     1      -0.175  10.365  21.727  0.00  0.00    +0.000 A 
ATOM     24  C   UNL     1      -1.009  10.924  22.715  0.00  0.00    +0.000 A 
ATOM     25  C   UNL     1      -1.105  12.325  22.889  0.00  0.00    +0.000 A 
ATOM     26  C   UNL     1      -0.332  13.168  22.095  0.00  0.00    +0.000 A 
ATOM     27  C   UNL     1       0.454  12.583  21.093  0.00  0.00    +0.000 A 
ATOM     28  C   UNL     1       0.509  11.197  20.853  0.00  0.00    +0.000 A 
ATOM     29  C   UNL     1       1.314  10.748  19.634  0.00  0.00    +0.000 C 
ATOM     30  C   UNL     1       1.247   9.325  19.052  0.00  0.00    +0.000 C 
ATOM     31  O   UNL     1       1.207   9.144  17.833  0.00  0.00    +0.000 OA
BRANCH  25  32
ATOM     32  O   UNL     1      -1.977  12.954  23.738  0.00  0.00    +0.000 OA
ATOM     33  C   UNL     1      -3.343  12.617  23.584  0.00  0.00    +0.000 C 
ENDBRANCH  25  32
BRANCH  26  34
ATOM     34  O   UNL     1      -0.568  14.527  22.095  0.00  0.00    +0.000 OA
ATOM     35  C   UNL     1      -1.262  15.073  20.961  0.00  0.00    +0.000 C 
ENDBRANCH  26  34
ENDBRANCH  19  20
ENDBRANCH   2  19
TORSDOF 11
ENDMDL
MODEL 5
REMARK VINA RESULT:      -7.3      2.778      3.344
REMARK  Name = 
REMARK  17 active torsions:
REMARK  status: ('A' for Active; 'I' for Inactive)
REMARK    1  A    between atoms: C_1  and  O_2
REMARK    2  A    between atoms: O_2  and  C_3
REMARK    3  A    between atoms: C_6  and  C_7
REMARK    4  A    between atoms: C_7  and  C_8
REMARK    5  A    between atoms: C_7  and  C_9
REMARK    6  A    between atoms: C_9  and  N_10
REMARK    7  A    between atoms: N_10  and  C_11
REMARK    8  A    between atoms: N_10  and  C_12
REMARK    9  A    between atoms: C_12  and  C_13
REMARK   10  A    between atoms: C_14  and  C_15
REMARK   11  A    between atoms: C_15  and  N_16
REMARK   12  A    between atoms: C_21  and  O_22
REMARK   13  A    between atoms: O_22  and  C_23
REMARK   14  A    between atoms: C_24  and  O_25
REMARK   15  A    between atoms: O_25  and  C_26
REMARK   16  A    between atoms: C_33  and  O_34
REMARK   17  A    between atoms: O_34  and  C_35
REMARK                            x       y       z     vdW  Elec       q    Type
REMARK                         _______ _______ _______ _____ _____    ______ ____
ROOT
ATOM      1  C   UNL     1       1.514   5.121  20.038  0.00  0.00    +0.000 C 
ATOM      2  C   UNL     1       1.709   6.334  20.589  0.00  0.00    +0.000 C 
ENDROOT
BRANCH   1   3
ATOM      3  C   UNL     1       0.954   3.928  20.768  0.00  0.00    +0.000 C 
BRANCH   3   4
ATOM      4  N   UNL     1       1.670   2.674  20.462  0.00  0.00    +0.000 NA
ATOM      5  C   UNL     1       2.781   2.516  21.406  0.00  0.00    +0.000 C 
BRANCH   4   6
ATOM      6  C   UNL     1       2.161   2.679  19.065  0.00  0.00    +0.000 C 
BRANCH   6   7
ATOM      7  C   UNL     1       3.688   2.425  18.883  0.00  0.00    +0.000 C 
ATOM      8  C   UNL     1       3.966   1.254  17.936  0.00  0.00    +0.000 C 
BRANCH   7  12
ATOM      9  C   UNL     1       5.760   5.903  17.407  0.00  0.00    +0.000 A 
ATOM     10  C   UNL     1       5.827   5.599  18.767  0.00  0.00    +0.000 A 
ATOM     11  C   UNL     1       5.198   4.445  19.254  0.00  0.00    +0.000 A 
ATOM     12  C   UNL     1       4.374   3.678  18.420  0.00  0.00    +0.000 A 
ATOM     13  C   UNL     1       4.264   4.027  17.085  0.00  0.00    +0.000 A 
ATOM     14  C   UNL     1       5.071   5.018  16.571  0.00  0.00    +0.000 A 
BRANCH   9  16
ATOM     15  C   UNL     1       7.508   7.507  17.367  0.00  0.00    +0.000 C 
ATOM     16  O   UNL     1       6.274   7.040  16.855  0.00  0.00    +0.000 OA
ENDBRANCH   9  16
BRANCH  14  17
ATOM     17  O   UNL     1       5.291   4.804  15.222  0.00  0.00    +0.000 OA
ATOM     18  C   UNL     1       6.483   4.107  14.921  0.00  0.00    +0.000 C 
ENDBRANCH  14  17
ENDBRANCH   7  12
ENDBRANCH   6   7
ENDBRANCH   4   6
ENDBRANCH   3   4
ENDBRANCH   1   3
BRANCH   2  19
ATOM     19  C   UNL     1       2.199   7.548  19.841  0.00  0.00    +0.000 C 
BRANCH  19  20
ATOM     20  N   UNL     1       1.283   8.666  20.018  0.00  0.00    +0.000 N 
ATOM     21  C   UNL     1       0.922   9.110  21.281  0.00  0.00    +0.000 C 
ATOM     22  C   UNL     1      -0.247   9.769  21.385  0.00  0.00    +0.000 C 
ATOM     23  C   UNL     1      -0.146  11.227  21.322  0.00  0.00    +0.000 A 
ATOM     24  C   UNL     1      -0.902  12.059  22.172  0.00  0.00    +0.000 A 
ATOM     25  C   UNL     1      -0.846  13.468  22.061  0.00  0.00    +0.000 A 
ATOM     26  C   UNL     1       0.001  14.048  21.121  0.00  0.00    +0.000 A 
ATOM     27  C   UNL     1       0.708  13.195  20.263  0.00  0.00    +0.000 A 
ATOM     28  C   UNL     1       0.611  11.791  20.305  0.00  0.00    +0.000 A 
ATOM     29  C   UNL     1       1.348  11.023  19.207  0.00  0.00    +0.000 C 
ATOM     30  C   UNL     1       1.122   9.528  18.921  0.00  0.00    +0.000 C 
ATOM     31  O   UNL     1       1.047   9.113  17.762  0.00  0.00    +0.000 OA
BRANCH  25  32
ATOM     32  O   UNL     1      -1.634  14.344  22.760  0.00  0.00    +0.000 OA
ATOM     33  C   UNL     1      -1.291  14.536  24.120  0.00  0.00    +0.000 C 
ENDBRANCH  25  32
BRANCH  26  34
ATOM     34  O   UNL     1      -0.089  15.397  20.847  0.00  0.00    +0.000 OA
ATOM     35  C   UNL     1       0.007  15.795  19.470  0.00  0.00    +0.000 C 
ENDBRANCH  26  34
ENDBRANCH  19  20
ENDBRANCH   2  19
TORSDOF 11
ENDMDL
MODEL 6
REMARK VINA RESULT:      -7.3      1.948      2.806
REMARK  Name = 
REMARK  17 active torsions:
REMARK  status: ('A' for Active; 'I' for Inactive)
REMARK    1  A    between atoms: C_1  and  O_2
REMARK    2  A    between atoms: O_2  and  C_3
REMARK    3  A    between atoms: C_6  and  C_7
REMARK    4  A    between atoms: C_7  and  C_8
REMARK    5  A    between atoms: C_7  and  C_9
REMARK    6  A    between atoms: C_9  and  N_10
REMARK    7  A    between atoms: N_10  and  C_11
REMARK    8  A    between atoms: N_10  and  C_12
REMARK    9  A    between atoms: C_12  and  C_13
REMARK   10  A    between atoms: C_14  and  C_15
REMARK   11  A    between atoms: C_15  and  N_16
REMARK   12  A    between atoms: C_21  and  O_22
REMARK   13  A    between atoms: O_22  and  C_23
REMARK   14  A    between atoms: C_24  and  O_25
REMARK   15  A    between atoms: O_25  and  C_26
REMARK   16  A    between atoms: C_33  and  O_34
REMARK   17  A    between atoms: O_34  and  C_35
REMARK                            x       y       z     vdW  Elec       q    Type
REMARK                         _______ _______ _______ _____ _____    ______ ____
ROOT
ATOM      1  C   UNL     1       2.009   5.517  20.550  0.00  0.00    +0.000 C 
ATOM      2  C   UNL     1       1.579   6.562  19.817  0.00  0.00    +0.000 C 
ENDROOT
BRANCH   1   3
ATOM      3  C   UNL     1       1.309   4.187  20.640  0.00  0.00    +0.000 C 
BRANCH   3   4
ATOM      4  N   UNL     1       1.995   3.120  19.886  0.00  0.00    +0.000 NA
ATOM      5  C   UNL     1       1.894   1.864  20.636  0.00  0.00    +0.000 C 
BRANCH   4   6
ATOM      6  C   UNL     1       3.412   3.477  19.645  0.00  0.00    +0.000 C 
BRANCH   6   7
ATOM      7  C   UNL     1       3.882   3.418  18.160  0.00  0.00    +0.000 C 
ATOM      8  C   UNL     1       2.703   3.446  17.182  0.00  0.00    +0.000 C 
BRANCH   7  12
ATOM      9  C   UNL     1       6.757   6.478  17.191  0.00  0.00    +0.000 A 
ATOM     10  C   UNL     1       6.658   6.032  18.510  0.00  0.00    +0.000 A 
ATOM     11  C   UNL     1       5.761   5.005  18.831  0.00  0.00    +0.000 A 
ATOM     12  C   UNL     1       4.854   4.527  17.876  0.00  0.00    +0.000 A 
ATOM     13  C   UNL     1       4.920   5.024  16.586  0.00  0.00    +0.000 A 
ATOM     14  C   UNL     1       5.957   5.856  16.228  0.00  0.00    +0.000 A 
BRANCH   9  16
ATOM     15  C   UNL     1       8.056   8.364  17.814  0.00  0.00    +0.000 C 
ATOM     16  O   UNL     1       7.543   7.522  16.797  0.00  0.00    +0.000 OA
ENDBRANCH   9  16
BRANCH  14  17
ATOM     17  O   UNL     1       6.223   5.735  14.875  0.00  0.00    +0.000 OA
ATOM     18  C   UNL     1       6.546   4.425  14.453  0.00  0.00    +0.000 C 
ENDBRANCH  14  17
ENDBRANCH   7  12
ENDBRANCH   6   7
ENDBRANCH   4   6
ENDBRANCH   3   4
ENDBRANCH   1   3
BRANCH   2  19
ATOM     19  C   UNL     1       2.318   7.868  19.668  0.00  0.00    +0.000 C 
BRANCH  19  20
ATOM     20  N   UNL     1       1.387   8.960  19.422  0.00  0.00    +0.000 N 
ATOM     21  C   UNL     1       0.602   9.482  20.439  0.00  0.00    +0.000 C 
ATOM     22  C   UNL     1      -0.536  10.102  20.074  0.00  0.00    +0.000 C 
ATOM     23  C   UNL     1      -0.433  11.555  19.930  0.00  0.00    +0.000 A 
ATOM     24  C   UNL     1      -1.447  12.417  20.392  0.00  0.00    +0.000 A 
ATOM     25  C   UNL     1      -1.370  13.816  20.191  0.00  0.00    +0.000 A 
ATOM     26  C   UNL     1      -0.253  14.357  19.561  0.00  0.00    +0.000 A 
ATOM     27  C   UNL     1       0.718  13.469  19.076  0.00  0.00    +0.000 A 
ATOM     28  C   UNL     1       0.626  12.070  19.198  0.00  0.00    +0.000 A 
ATOM     29  C   UNL     1       1.708  11.252  18.492  0.00  0.00    +0.000 C 
ATOM     30  C   UNL     1       1.612   9.732  18.271  0.00  0.00    +0.000 C 
ATOM     31  O   UNL     1       1.951   9.230  17.196  0.00  0.00    +0.000 OA
BRANCH  25  32
ATOM     32  O   UNL     1      -2.362  14.710  20.497  0.00  0.00    +0.000 OA
ATOM     33  C   UNL     1      -3.556  14.155  21.019  0.00  0.00    +0.000 C 
ENDBRANCH  25  32
BRANCH  26  34
ATOM     34  O   UNL     1      -0.255  15.677  19.162  0.00  0.00    +0.000 OA
ATOM     35  C   UNL     1       1.012  16.262  18.822  0.00  0.00    +0.000 C 
ENDBRANCH  26  34
ENDBRANCH  19  20
ENDBRANCH   2  19
TORSDOF 11
ENDMDL
MODEL 7
REMARK VINA RESULT:      -7.2      2.787      3.305
REMARK  Name = 
REMARK  17 active torsions:
REMARK  status: ('A' for Active; 'I' for Inactive)
REMARK    1  A    between atoms: C_1  and  O_2
REMARK    2  A    between atoms: O_2  and  C_3
REMARK    3  A    between atoms: C_6  and  C_7
REMARK    4  A    between atoms: C_7  and  C_8
REMARK    5  A    between atoms: C_7  and  C_9
REMARK    6  A    between atoms: C_9  and  N_10
REMARK    7  A    between atoms: N_10  and  C_11
REMARK    8  A    between atoms: N_10  and  C_12
REMARK    9  A    between atoms: C_12  and  C_13
REMARK   10  A    between atoms: C_14  and  C_15
REMARK   11  A    between atoms: C_15  and  N_16
REMARK   12  A    between atoms: C_21  and  O_22
REMARK   13  A    between atoms: O_22  and  C_23
REMARK   14  A    between atoms: C_24  and  O_25
REMARK   15  A    between atoms: O_25  and  C_26
REMARK   16  A    between atoms: C_33  and  O_34
REMARK   17  A    between atoms: O_34  and  C_35
REMARK                            x       y       z     vdW  Elec       q    Type
REMARK                         _______ _______ _______ _____ _____    ______ ____
ROOT
ATOM      1  C   UNL     1       1.596   4.994  19.778  0.00  0.00    +0.000 C 
ATOM      2  C   UNL     1       1.844   6.118  20.477  0.00  0.00    +0.000 C 
ENDROOT
BRANCH   1   3
ATOM      3  C   UNL     1       1.119   3.698  20.379  0.00  0.00    +0.000 C 
BRANCH   3   4
ATOM      4  N   UNL     1       2.150   2.643  20.375  0.00  0.00    +0.000 NA
ATOM      5  C   UNL     1       2.080   1.900  21.637  0.00  0.00    +0.000 C 
BRANCH   4   6
ATOM      6  C   UNL     1       3.497   3.227  20.181  0.00  0.00    +0.000 C 
BRANCH   6   7
ATOM      7  C   UNL     1       4.169   2.941  18.805  0.00  0.00    +0.000 C 
ATOM      8  C   UNL     1       3.157   2.460  17.761  0.00  0.00    +0.000 C 
BRANCH   7  12
ATOM      9  C   UNL     1       6.455   6.287  17.341  0.00  0.00    +0.000 A 
ATOM     10  C   UNL     1       6.137   6.223  18.699  0.00  0.00    +0.000 A 
ATOM     11  C   UNL     1       5.435   5.117  19.198  0.00  0.00    +0.000 A 
ATOM     12  C   UNL     1       4.915   4.152  18.325  0.00  0.00    +0.000 A 
ATOM     13  C   UNL     1       5.183   4.261  16.972  0.00  0.00    +0.000 A 
ATOM     14  C   UNL     1       6.068   5.218  16.527  0.00  0.00    +0.000 A 
BRANCH   9  16
ATOM     15  C   UNL     1       7.913   8.147  17.566  0.00  0.00    +0.000 C 
ATOM     16  O   UNL     1       7.066   7.356  16.752  0.00  0.00    +0.000 OA
ENDBRANCH   9  16
BRANCH  14  17
ATOM     17  O   UNL     1       6.676   4.800  15.357  0.00  0.00    +0.000 OA
ATOM     18  C   UNL     1       5.953   3.825  14.632  0.00  0.00    +0.000 C 
ENDBRANCH  14  17
ENDBRANCH   7  12
ENDBRANCH   6   7
ENDBRANCH   4   6
ENDBRANCH   3   4
ENDBRANCH   1   3
BRANCH   2  19
ATOM     19  C   UNL     1       2.250   7.436  19.868  0.00  0.00    +0.000 C 
BRANCH  19  20
ATOM     20  N   UNL     1       1.280   8.473  20.191  0.00  0.00    +0.000 N 
ATOM     21  C   UNL     1       0.882   8.706  21.499  0.00  0.00    +0.000 C 
ATOM     22  C   UNL     1      -0.318   9.289  21.677  0.00  0.00    +0.000 C 
ATOM     23  C   UNL     1      -0.284  10.744  21.833  0.00  0.00    +0.000 A 
ATOM     24  C   UNL     1      -1.090  11.404  22.783  0.00  0.00    +0.000 A 
ATOM     25  C   UNL     1      -1.099  12.815  22.885  0.00  0.00    +0.000 A 
ATOM     26  C   UNL     1      -0.268  13.567  22.059  0.00  0.00    +0.000 A 
ATOM     27  C   UNL     1       0.490  12.883  21.097  0.00  0.00    +0.000 A 
ATOM     28  C   UNL     1       0.458  11.486  20.928  0.00  0.00    +0.000 A 
ATOM     29  C   UNL     1       1.245  10.925  19.742  0.00  0.00    +0.000 C 
ATOM     30  C   UNL     1       1.093   9.482  19.232  0.00  0.00    +0.000 C 
ATOM     31  O   UNL     1       1.053   9.242  18.023  0.00  0.00    +0.000 OA
BRANCH  25  32
ATOM     32  O   UNL     1      -1.937  13.540  23.691  0.00  0.00    +0.000 OA
ATOM     33  C   UNL     1      -3.256  13.042  23.820  0.00  0.00    +0.000 C 
ENDBRANCH  25  32
BRANCH  26  34
ATOM     34  O   UNL     1      -0.417  14.935  21.987  0.00  0.00    +0.000 OA
ATOM     35  C   UNL     1       0.780  15.725  21.909  0.00  0.00    +0.000 C 
ENDBRANCH  26  34
ENDBRANCH  19  20
ENDBRANCH   2  19
TORSDOF 11
ENDMDL
MODEL 8
REMARK VINA RESULT:      -7.2      2.208     10.094
REMARK  Name = 
REMARK  17 active torsions:
REMARK  status: ('A' for Active; 'I' for Inactive)
REMARK    1  A    between atoms: C_1  and  O_2
REMARK    2  A    between atoms: O_2  and  C_3
REMARK    3  A    between atoms: C_6  and  C_7
REMARK    4  A    between atoms: C_7  and  C_8
REMARK    5  A    between atoms: C_7  and  C_9
REMARK    6  A    between atoms: C_9  and  N_10
REMARK    7  A    between atoms: N_10  and  C_11
REMARK    8  A    between atoms: N_10  and  C_12
REMARK    9  A    between atoms: C_12  and  C_13
REMARK   10  A    between atoms: C_14  and  C_15
REMARK   11  A    between atoms: C_15  and  N_16
REMARK   12  A    between atoms: C_21  and  O_22
REMARK   13  A    between atoms: O_22  and  C_23
REMARK   14  A    between atoms: C_24  and  O_25
REMARK   15  A    between atoms: O_25  and  C_26
REMARK   16  A    between atoms: C_33  and  O_34
REMARK   17  A    between atoms: O_34  and  C_35
REMARK                            x       y       z     vdW  Elec       q    Type
REMARK                         _______ _______ _______ _____ _____    ______ ____
ROOT
ATOM      1  C   UNL     1       1.764   4.760  20.523  0.00  0.00    +0.000 C 
ATOM      2  C   UNL     1       1.080   3.612  20.357  0.00  0.00    +0.000 C 
ENDROOT
BRANCH   1   3
ATOM      3  C   UNL     1       1.187   6.025  21.102  0.00  0.00    +0.000 C 
BRANCH   3   4
ATOM      4  N   UNL     1       1.394   7.204  20.238  0.00  0.00    +0.000 NA
ATOM      5  C   UNL     1       2.638   7.030  19.482  0.00  0.00    +0.000 C 
BRANCH   4   6
ATOM      6  C   UNL     1       1.438   8.443  21.047  0.00  0.00    +0.000 C 
BRANCH   6   7
ATOM      7  C   UNL     1       0.064   9.134  21.303  0.00  0.00    +0.000 C 
ATOM      8  C   UNL     1      -0.211   9.329  22.797  0.00  0.00    +0.000 C 
BRANCH   7  12
ATOM      9  C   UNL     1      -0.369  12.848  19.162  0.00  0.00    +0.000 A 
ATOM     10  C   UNL     1       0.476  11.863  18.649  0.00  0.00    +0.000 A 
ATOM     11  C   UNL     1       0.590  10.632  19.309  0.00  0.00    +0.000 A 
ATOM     12  C   UNL     1      -0.012  10.435  20.559  0.00  0.00    +0.000 A 
ATOM     13  C   UNL     1      -0.796  11.446  21.088  0.00  0.00    +0.000 A 
ATOM     14  C   UNL     1      -1.091  12.552  20.323  0.00  0.00    +0.000 A 
BRANCH   9  16
ATOM     15  C   UNL     1       0.268  15.133  19.244  0.00  0.00    +0.000 C 
ATOM     16  O   UNL     1      -0.486  14.101  18.634  0.00  0.00    +0.000 OA
ENDBRANCH   9  16
BRANCH  14  17
ATOM     17  O   UNL     1      -2.305  13.092  20.709  0.00  0.00    +0.000 OA
ATOM     18  C   UNL     1      -2.859  12.523  21.878  0.00  0.00    +0.000 C 
ENDBRANCH  14  17
ENDBRANCH   7  12
ENDBRANCH   6   7
ENDBRANCH   4   6
ENDBRANCH   3   4
ENDBRANCH   1   3
BRANCH   2  19
ATOM     19  C   UNL     1       1.676   2.323  19.847  0.00  0.00    +0.000 C 
BRANCH  19  20
ATOM     20  N   UNL     1       2.865   2.587  19.048  0.00  0.00    +0.000 N 
ATOM     21  C   UNL     1       2.770   3.029  17.738  0.00  0.00    +0.000 C 
ATOM     22  C   UNL     1       3.821   2.784  16.934  0.00  0.00    +0.000 C 
ATOM     23  C   UNL     1       4.791   3.874  16.826  0.00  0.00    +0.000 A 
ATOM     24  C   UNL     1       5.376   4.225  15.594  0.00  0.00    +0.000 A 
ATOM     25  C   UNL     1       6.360   5.238  15.509  0.00  0.00    +0.000 A 
ATOM     26  C   UNL     1       6.731   5.930  16.658  0.00  0.00    +0.000 A 
ATOM     27  C   UNL     1       6.162   5.529  17.875  0.00  0.00    +0.000 A 
ATOM     28  C   UNL     1       5.236   4.475  17.994  0.00  0.00    +0.000 A 
ATOM     29  C   UNL     1       4.823   4.087  19.414  0.00  0.00    +0.000 C 
ATOM     30  C   UNL     1       4.063   2.793  19.752  0.00  0.00    +0.000 C 
ATOM     31  O   UNL     1       4.371   2.122  20.740  0.00  0.00    +0.000 OA
BRANCH  25  32
ATOM     32  O   UNL     1       7.065   5.557  14.378  0.00  0.00    +0.000 OA
ATOM     33  C   UNL     1       6.899   4.682  13.278  0.00  0.00    +0.000 C 
ENDBRANCH  25  32
BRANCH  26  34
ATOM     34  O   UNL     1       7.832   6.760  16.642  0.00  0.00    +0.000 OA
ATOM     35  C   UNL     1       7.845   7.853  17.574  0.00  0.00    +0.000 C 
ENDBRANCH  26  34
ENDBRANCH  19  20
ENDBRANCH   2  19
TORSDOF 11
ENDMDL
MODEL 9
REMARK VINA RESULT:      -7.2      1.395      2.247
REMARK  Name = 
REMARK  17 active torsions:
REMARK  status: ('A' for Active; 'I' for Inactive)
REMARK    1  A    between atoms: C_1  and  O_2
REMARK    2  A    between atoms: O_2  and  C_3
REMARK    3  A    between atoms: C_6  and  C_7
REMARK    4  A    between atoms: C_7  and  C_8
REMARK    5  A    between atoms: C_7  and  C_9
REMARK    6  A    between atoms: C_9  and  N_10
REMARK    7  A    between atoms: N_10  and  C_11
REMARK    8  A    between atoms: N_10  and  C_12
REMARK    9  A    between atoms: C_12  and  C_13
REMARK   10  A    between atoms: C_14  and  C_15
REMARK   11  A    between atoms: C_15  and  N_16
REMARK   12  A    between atoms: C_21  and  O_22
REMARK   13  A    between atoms: O_22  and  C_23
REMARK   14  A    between atoms: C_24  and  O_25
REMARK   15  A    between atoms: O_25  and  C_26
REMARK   16  A    between atoms: C_33  and  O_34
REMARK   17  A    between atoms: O_34  and  C_35
REMARK                            x       y       z     vdW  Elec       q    Type
REMARK                         _______ _______ _______ _____ _____    ______ ____
ROOT
ATOM      1  C   UNL     1       1.869   7.980  19.755  0.00  0.00    +0.000 C 
ATOM      2  C   UNL     1       1.374   9.178  19.391  0.00  0.00    +0.000 C 
ENDROOT
BRANCH   1   3
ATOM      3  C   UNL     1       2.490   6.985  18.810  0.00  0.00    +0.000 C 
BRANCH   3   4
ATOM      4  N   UNL     1       2.361   5.589  19.271  0.00  0.00    +0.000 NA
ATOM      5  C   UNL     1       1.728   5.580  20.594  0.00  0.00    +0.000 C 
BRANCH   4   6
ATOM      6  C   UNL     1       3.685   4.928  19.315  0.00  0.00    +0.000 C 
BRANCH   6   7
ATOM      7  C   UNL     1       3.903   3.779  18.285  0.00  0.00    +0.000 C 
ATOM      8  C   UNL     1       2.590   3.335  17.634  0.00  0.00    +0.000 C 
BRANCH   7  12
ATOM      9  C   UNL     1       6.819   5.144  15.421  0.00  0.00    +0.000 A 
ATOM     10  C   UNL     1       5.591   4.665  14.964  0.00  0.00    +0.000 A 
ATOM     11  C   UNL     1       4.614   4.262  15.886  0.00  0.00    +0.000 A 
ATOM     12  C   UNL     1       4.913   4.188  17.253  0.00  0.00    +0.000 A 
ATOM     13  C   UNL     1       6.159   4.606  17.687  0.00  0.00    +0.000 A 
ATOM     14  C   UNL     1       7.020   5.218  16.803  0.00  0.00    +0.000 A 
BRANCH   9  16
ATOM     15  C   UNL     1       7.750   5.118  13.238  0.00  0.00    +0.000 C 
ATOM     16  O   UNL     1       7.856   5.484  14.601  0.00  0.00    +0.000 OA
ENDBRANCH   9  16
BRANCH  14  17
ATOM     17  O   UNL     1       7.860   6.087  17.477  0.00  0.00    +0.000 OA
ATOM     18  C   UNL     1       7.420   7.431  17.505  0.00  0.00    +0.000 C 
ENDBRANCH  14  17
ENDBRANCH   7  12
ENDBRANCH   6   7
ENDBRANCH   4   6
ENDBRANCH   3   4
ENDBRANCH   1   3
BRANCH   2  19
ATOM     19  C   UNL     1       0.821  10.205  20.347  0.00  0.00    +0.000 C 
BRANCH  19  20
ATOM     20  N   UNL     1      -0.278  10.938  19.734  0.00  0.00    +0.000 N 
ATOM     21  C   UNL     1      -1.273  10.286  19.022  0.00  0.00    +0.000 C 
ATOM     22  C   UNL     1      -1.940  11.008  18.104  0.00  0.00    +0.000 C 
ATOM     23  C   UNL     1      -3.195  11.600  18.570  0.00  0.00    +0.000 A 
ATOM     24  C   UNL     1      -4.351  11.612  17.764  0.00  0.00    +0.000 A 
ATOM     25  C   UNL     1      -5.541  12.243  18.197  0.00  0.00    +0.000 A 
ATOM     26  C   UNL     1      -5.586  12.829  19.459  0.00  0.00    +0.000 A 
ATOM     27  C   UNL     1      -4.408  12.837  20.218  0.00  0.00    +0.000 A 
ATOM     28  C   UNL     1      -3.192  12.282  19.777  0.00  0.00    +0.000 A 
ATOM     29  C   UNL     1      -1.976  12.501  20.679  0.00  0.00    +0.000 C 
ATOM     30  C   UNL     1      -0.530  12.227  20.231  0.00  0.00    +0.000 C 
ATOM     31  O   UNL     1       0.377  13.011  20.522  0.00  0.00    +0.000 OA
BRANCH  25  32
ATOM     32  O   UNL     1      -6.666  12.406  17.433  0.00  0.00    +0.000 OA
ATOM     33  C   UNL     1      -6.690  13.553  16.603  0.00  0.00    +0.000 C 
ENDBRANCH  25  32
BRANCH  26  34
ATOM     34  O   UNL     1      -6.651  13.631  19.812  0.00  0.00    +0.000 OA
ATOM     35  C   UNL     1      -6.371  15.015  20.077  0.00  0.00    +0.000 C 
ENDBRANCH  26  34
ENDBRANCH  19  20
ENDBRANCH   2  19
TORSDOF 11
ENDMDL
