MODEL 1
REMARK VINA RESULT:      -7.1      0.000      0.000
REMARK  Name = 
REMARK  12 active torsions:
REMARK  status: ('A' for Active; 'I' for Inactive)
REMARK    1  A    between atoms: C_1  and  C_2
REMARK    2  A    between atoms: C_2  and  C_3
REMARK    3  A    between atoms: C_3  and  C_4
REMARK    4  A    between atoms: C_4  and  O_5
REMARK    5  A    between atoms: O_5  and  C_6
REMARK    6  A    between atoms: C_9  and  S_10
REMARK    7  A    between atoms: S_10  and  N_13
REMARK    8  A    between atoms: N_13  and  C_14
REMARK    9  A    between atoms: N_13  and  C_20
REMARK   10  A    between atoms: C_14  and  C_15
REMARK   11  A    between atoms: C_20  and  C_21
REMARK   12  A    between atoms: C_20  and  C_22
REMARK                            x       y       z     vdW  Elec       q    Type
REMARK                         _______ _______ _______ _____ _____    ______ ____
ROOT
ATOM      1  N   UNL     1       5.448   4.802  16.751  0.00  0.00    +0.000 NA
ENDROOT
BRANCH   1   2
ATOM      2  S   UNL     1       6.881   4.794  17.684  0.00  0.00    +0.000 S 
ATOM      3  O   UNL     1       7.962   4.246  16.888  0.00  0.00    +0.000 OA
ATOM      4  O   UNL     1       6.584   4.198  18.966  0.00  0.00    +0.000 OA
BRANCH   2   8
ATOM      5  C   UNL     1       8.337   9.108  18.258  0.00  0.00    +0.000 A 
ATOM      6  C   UNL     1       8.787   8.082  19.098  0.00  0.00    +0.000 A 
ATOM      7  C   UNL     1       8.286   6.781  18.982  0.00  0.00    +0.000 A 
ATOM      8  C   UNL     1       7.332   6.495  18.010  0.00  0.00    +0.000 A 
ATOM      9  C   UNL     1       6.913   7.511  17.146  0.00  0.00    +0.000 A 
ATOM     10  C   UNL     1       7.371   8.823  17.301  0.00  0.00    +0.000 A 
BRANCH   5  11
ATOM     11  O   UNL     1       8.791  10.402  18.266  0.00  0.00    +0.000 OA
BRANCH  11  12
ATOM     12  C   UNL     1       9.680  10.704  19.335  0.00  0.00    +0.000 C 
BRANCH  12  13
ATOM     13  C   UNL     1      10.438  11.996  19.059  0.00  0.00    +0.000 C 
BRANCH  13  15
ATOM     14  C   UNL     1      11.323  13.081  16.955  0.00  0.00    +0.000 C 
ATOM     15  C   UNL     1      10.120  12.464  17.639  0.00  0.00    +0.000 C 
ENDBRANCH  13  15
ENDBRANCH  12  13
ENDBRANCH  11  12
ENDBRANCH   5  11
ENDBRANCH   2   8
ENDBRANCH   1   2
BRANCH   1  16
ATOM     16  C   UNL     1       4.081   4.803  17.399  0.00  0.00    +0.000 C 
ATOM     17  C   UNL     1       3.638   6.229  17.744  0.00  0.00    +0.000 C 
BRANCH  16  18
ATOM     18  C   UNL     1       3.903   3.842  18.625  0.00  0.00    +0.000 C 
ATOM     19  C   UNL     1       2.767   4.307  19.577  0.00  0.00    +0.000 C 
ATOM     20  C   UNL     1       1.369   4.068  19.008  0.00  0.00    +0.000 C 
ATOM     21  C   UNL     1       1.158   2.598  18.668  0.00  0.00    +0.000 C 
ATOM     22  C   UNL     1       2.259   2.062  17.758  0.00  0.00    +0.000 C 
ATOM     23  C   UNL     1       3.654   2.355  18.300  0.00  0.00    +0.000 C 
ENDBRANCH  16  18
ENDBRANCH   1  16
BRANCH   1  24
ATOM     24  C   UNL     1       5.460   5.551  15.449  0.00  0.00    +0.000 C 
BRANCH  24  25
ATOM     25  C   UNL     1       5.996   4.798  14.270  0.00  0.00    +0.000 A 
ATOM     26  C   UNL     1       7.206   4.891  13.616  0.00  0.00    +0.000 A 
ATOM     27  N   UNL     1       7.103   4.062  12.533  0.00  0.00    +0.000 N 
ATOM     28  C   UNL     1       5.887   3.449  12.594  0.00  0.00    +0.000 A 
ATOM     29  N   UNL     1       5.211   3.841  13.649  0.00  0.00    +0.000 NA
ATOM     30  H   UNL     1       7.787   3.949  11.796  0.00  0.00    +0.000 HD
ENDBRANCH  24  25
ENDBRANCH   1  24
TORSDOF 10
ENDMDL
MODEL 2
REMARK VINA RESULT:      -7.1      4.010      5.630
REMARK  Name = 
REMARK  12 active torsions:
REMARK  status: ('A' for Active; 'I' for Inactive)
REMARK    1  A    between atoms: C_1  and  C_2
REMARK    2  A    between atoms: C_2  and  C_3
REMARK    3  A    between atoms: C_3  and  C_4
REMARK    4  A    between atoms: C_4  and  O_5
REMARK    5  A    between atoms: O_5  and  C_6
REMARK    6  A    between atoms: C_9  and  S_10
REMARK    7  A    between atoms: S_10  and  N_13
REMARK    8  A    between atoms: N_13  and  C_14
REMARK    9  A    between atoms: N_13  and  C_20
REMARK   10  A    between atoms: C_14  and  C_15
REMARK   11  A    between atoms: C_20  and  C_21
REMARK   12  A    between atoms: C_20  and  C_22
REMARK                            x       y       z     vdW  Elec       q    Type
REMARK                         _______ _______ _______ _____ _____    ______ ____
ROOT
ATOM      1  N   UNL     1       4.930   4.936  17.199  0.00  0.00    +0.000 NA
ENDROOT
BRANCH   1   2
ATOM      2  S   UNL     1       4.874   6.629  16.973  0.00  0.00    +0.000 S 
ATOM      3  O   UNL     1       4.615   6.913  15.575  0.00  0.00    +0.000 OA
ATOM      4  O   UNL     1       6.040   7.209  17.599  0.00  0.00    +0.000 OA
BRANCH   2   8
ATOM      5  C   UNL     1       1.482   8.518  19.419  0.00  0.00    +0.000 A 
ATOM      6  C   UNL     1       2.232   7.455  19.936  0.00  0.00    +0.000 A 
ATOM      7  C   UNL     1       3.212   6.820  19.166  0.00  0.00    +0.000 A 
ATOM      8  C   UNL     1       3.457   7.256  17.868  0.00  0.00    +0.000 A 
ATOM      9  C   UNL     1       2.735   8.345  17.366  0.00  0.00    +0.000 A 
ATOM     10  C   UNL     1       1.716   8.939  18.116  0.00  0.00    +0.000 A 
BRANCH   5  11
ATOM     11  O   UNL     1       0.529   9.229  20.103  0.00  0.00    +0.000 OA
BRANCH  11  12
ATOM     12  C   UNL     1       0.782   9.356  21.498  0.00  0.00    +0.000 C 
BRANCH  12  13
ATOM     13  C   UNL     1      -0.452   8.979  22.307  0.00  0.00    +0.000 C 
BRANCH  13  15
ATOM     14  C   UNL     1      -1.076  11.401  22.667  0.00  0.00    +0.000 C 
ATOM     15  C   UNL     1      -0.732  10.081  23.327  0.00  0.00    +0.000 C 
ENDBRANCH  13  15
ENDBRANCH  12  13
ENDBRANCH  11  12
ENDBRANCH   5  11
ENDBRANCH   2   8
ENDBRANCH   1   2
BRANCH   1  16
ATOM     16  C   UNL     1       4.225   4.267  18.358  0.00  0.00    +0.000 C 
ATOM     17  C   UNL     1       5.234   3.735  19.382  0.00  0.00    +0.000 C 
BRANCH  16  18
ATOM     18  C   UNL     1       3.171   3.169  17.978  0.00  0.00    +0.000 C 
ATOM     19  C   UNL     1       3.108   2.026  19.028  0.00  0.00    +0.000 C 
ATOM     20  C   UNL     1       2.416   2.440  20.327  0.00  0.00    +0.000 C 
ATOM     21  C   UNL     1       1.004   2.946  20.060  0.00  0.00    +0.000 C 
ATOM     22  C   UNL     1       0.986   4.052  19.011  0.00  0.00    +0.000 C 
ATOM     23  C   UNL     1       1.729   3.658  17.738  0.00  0.00    +0.000 C 
ENDBRANCH  16  18
ENDBRANCH   1  16
BRANCH   1  24
ATOM     24  C   UNL     1       4.965   4.064  15.976  0.00  0.00    +0.000 C 
BRANCH  24  25
ATOM     25  C   UNL     1       6.075   4.342  15.010  0.00  0.00    +0.000 A 
ATOM     26  C   UNL     1       7.318   4.907  15.203  0.00  0.00    +0.000 A 
ATOM     27  N   UNL     1       7.861   5.038  13.955  0.00  0.00    +0.000 N 
ATOM     28  C   UNL     1       6.983   4.498  13.062  0.00  0.00    +0.000 A 
ATOM     29  N   UNL     1       5.914   4.035  13.669  0.00  0.00    +0.000 NA
ATOM     30  H   UNL     1       8.737   5.487  13.725  0.00  0.00    +0.000 HD
ENDBRANCH  24  25
ENDBRANCH   1  24
TORSDOF 10
ENDMDL
MODEL 3
REMARK VINA RESULT:      -7.1      0.946      1.815
REMARK  Name = 
REMARK  12 active torsions:
REMARK  status: ('A' for Active; 'I' for Inactive)
REMARK    1  A    between atoms: C_1  and  C_2
REMARK    2  A    between atoms: C_2  and  C_3
REMARK    3  A    between atoms: C_3  and  C_4
REMARK    4  A    between atoms: C_4  and  O_5
REMARK    5  A    between atoms: O_5  and  C_6
REMARK    6  A    between atoms: C_9  and  S_10
REMARK    7  A    between atoms: S_10  and  N_13
REMARK    8  A    between atoms: N_13  and  C_14
REMARK    9  A    between atoms: N_13  and  C_20
REMARK   10  A    between atoms: C_14  and  C_15
REMARK   11  A    between atoms: C_20  and  C_21
REMARK   12  A    between atoms: C_20  and  C_22
REMARK                            x       y       z     vdW  Elec       q    Type
REMARK                         _______ _______ _______ _____ _____    ______ ____
ROOT
ATOM      1  N   UNL     1       5.588   4.472  17.066  0.00  0.00    +0.000 NA
ENDROOT
BRANCH   1   2
ATOM      2  S   UNL     1       7.000   4.685  18.006  0.00  0.00    +0.000 S 
ATOM      3  O   UNL     1       8.132   4.128  17.291  0.00  0.00    +0.000 OA
ATOM      4  O   UNL     1       6.726   4.225  19.348  0.00  0.00    +0.000 OA
BRANCH   2   8
ATOM      5  C   UNL     1       8.084   9.144  18.027  0.00  0.00    +0.000 A 
ATOM      6  C   UNL     1       8.728   8.246  18.888  0.00  0.00    +0.000 A 
ATOM      7  C   UNL     1       8.347   6.901  18.945  0.00  0.00    +0.000 A 
ATOM      8  C   UNL     1       7.318   6.441  18.129  0.00  0.00    +0.000 A 
ATOM      9  C   UNL     1       6.702   7.330  17.241  0.00  0.00    +0.000 A 
ATOM     10  C   UNL     1       7.045   8.685  17.227  0.00  0.00    +0.000 A 
BRANCH   5  11
ATOM     11  O   UNL     1       8.407  10.467  17.869  0.00  0.00    +0.000 OA
BRANCH  11  12
ATOM     12  C   UNL     1       9.568  10.876  18.585  0.00  0.00    +0.000 C 
BRANCH  12  13
ATOM     13  C   UNL     1      10.316  11.963  17.824  0.00  0.00    +0.000 C 
BRANCH  13  15
ATOM     14  C   UNL     1      12.276  12.467  19.337  0.00  0.00    +0.000 C 
ATOM     15  C   UNL     1      10.929  12.938  18.827  0.00  0.00    +0.000 C 
ENDBRANCH  13  15
ENDBRANCH  12  13
ENDBRANCH  11  12
ENDBRANCH   5  11
ENDBRANCH   2   8
ENDBRANCH   1   2
BRANCH   1  16
ATOM     16  C   UNL     1       4.267   4.086  17.696  0.00  0.00    +0.000 C 
ATOM     17  C   UNL     1       3.761   2.751  17.137  0.00  0.00    +0.000 C 
BRANCH  16  18
ATOM     18  C   UNL     1       3.143   5.179  17.656  0.00  0.00    +0.000 C 
ATOM     19  C   UNL     1       1.724   4.570  17.820  0.00  0.00    +0.000 C 
ATOM     20  C   UNL     1       1.426   4.116  19.249  0.00  0.00    +0.000 C 
ATOM     21  C   UNL     1       1.589   5.264  20.236  0.00  0.00    +0.000 C 
ATOM     22  C   UNL     1       2.953   5.934  20.109  0.00  0.00    +0.000 C 
ATOM     23  C   UNL     1       3.273   6.332  18.671  0.00  0.00    +0.000 C 
ENDBRANCH  16  18
ENDBRANCH   1  16
BRANCH   1  24
ATOM     24  C   UNL     1       5.406   5.348  15.860  0.00  0.00    +0.000 C 
BRANCH  24  25
ATOM     25  C   UNL     1       5.973   4.817  14.579  0.00  0.00    +0.000 A 
ATOM     26  C   UNL     1       5.529   3.814  13.744  0.00  0.00    +0.000 A 
ATOM     27  N   UNL     1       6.504   3.666  12.796  0.00  0.00    +0.000 N 
ATOM     28  C   UNL     1       7.460   4.609  13.034  0.00  0.00    +0.000 A 
ATOM     29  N   UNL     1       7.153   5.344  14.077  0.00  0.00    +0.000 NA
ATOM     30  H   UNL     1       6.534   2.962  12.070  0.00  0.00    +0.000 HD
ENDBRANCH  24  25
ENDBRANCH   1  24
TORSDOF 10
ENDMDL
MODEL 4
REMARK VINA RESULT:      -7.1      0.900      1.404
REMARK  Name = 
REMARK  12 active torsions:
REMARK  status: ('A' for Active; 'I' for Inactive)
REMARK    1  A    between atoms: C_1  and  C_2
REMARK    2  A    between atoms: C_2  and  C_3
REMARK    3  A    between atoms: C_3  and  C_4
REMARK    4  A    between atoms: C_4  and  O_5
REMARK    5  A    between atoms: O_5  and  C_6
REMARK    6  A    between atoms: C_9  and  S_10
REMARK    7  A    between atoms: S_10  and  N_13
REMARK    8  A    between atoms: N_13  and  C_14
REMARK    9  A    between atoms: N_13  and  C_20
REMARK   10  A    between atoms: C_14  and  C_15
REMARK   11  A    between atoms: C_20  and  C_21
REMARK   12  A    between atoms: C_20  and  C_22
REMARK                            x       y       z     vdW  Elec       q    Type
REMARK                         _______ _______ _______ _____ _____    ______ ____
ROOT
ATOM      1  N   UNL     1       5.429   4.983  17.038  0.00  0.00    +0.000 NA
ENDROOT
BRANCH   1   2
ATOM      2  S   UNL     1       6.909   4.935  17.891  0.00  0.00    +0.000 S 
ATOM      3  O   UNL     1       7.866   4.150  17.136  0.00  0.00    +0.000 OA
ATOM      4  O   UNL     1       6.631   4.570  19.261  0.00  0.00    +0.000 OA
BRANCH   2   8
ATOM      5  C   UNL     1       8.323   9.284  18.273  0.00  0.00    +0.000 A 
ATOM      6  C   UNL     1       7.412   8.912  17.277  0.00  0.00    +0.000 A 
ATOM      7  C   UNL     1       7.039   7.575  17.102  0.00  0.00    +0.000 A 
ATOM      8  C   UNL     1       7.571   6.597  17.936  0.00  0.00    +0.000 A 
ATOM      9  C   UNL     1       8.451   6.975  18.956  0.00  0.00    +0.000 A 
ATOM     10  C   UNL     1       8.866   8.303  19.092  0.00  0.00    +0.000 A 
BRANCH   5  11
ATOM     11  O   UNL     1       8.722  10.567  18.549  0.00  0.00    +0.000 OA
BRANCH  11  12
ATOM     12  C   UNL     1       9.401  10.714  19.791  0.00  0.00    +0.000 C 
BRANCH  12  13
ATOM     13  C   UNL     1       9.631  12.185  20.110  0.00  0.00    +0.000 C 
BRANCH  13  15
ATOM     14  C   UNL     1      11.929  11.625  19.219  0.00  0.00    +0.000 C 
ATOM     15  C   UNL     1      11.133  12.442  20.217  0.00  0.00    +0.000 C 
ENDBRANCH  13  15
ENDBRANCH  12  13
ENDBRANCH  11  12
ENDBRANCH   5  11
ENDBRANCH   2   8
ENDBRANCH   1   2
BRANCH   1  16
ATOM     16  C   UNL     1       4.100   5.041  17.759  0.00  0.00    +0.000 C 
ATOM     17  C   UNL     1       3.815   6.456  18.274  0.00  0.00    +0.000 C 
BRANCH  16  18
ATOM     18  C   UNL     1       3.886   3.973  18.888  0.00  0.00    +0.000 C 
ATOM     19  C   UNL     1       2.639   4.282  19.761  0.00  0.00    +0.000 C 
ATOM     20  C   UNL     1       1.318   3.996  19.046  0.00  0.00    +0.000 C 
ATOM     21  C   UNL     1       1.249   2.548  18.579  0.00  0.00    +0.000 C 
ATOM     22  C   UNL     1       2.462   2.163  17.739  0.00  0.00    +0.000 C 
ATOM     23  C   UNL     1       3.779   2.505  18.430  0.00  0.00    +0.000 C 
ENDBRANCH  16  18
ENDBRANCH   1  16
BRANCH   1  24
ATOM     24  C   UNL     1       5.395   5.717  15.727  0.00  0.00    +0.000 C 
BRANCH  24  25
ATOM     25  C   UNL     1       5.930   4.965  14.547  0.00  0.00    +0.000 A 
ATOM     26  C   UNL     1       5.426   3.875  13.869  0.00  0.00    +0.000 A 
ATOM     27  N   UNL     1       6.390   3.527  12.964  0.00  0.00    +0.000 N 
ATOM     28  C   UNL     1       7.403   4.436  13.066  0.00  0.00    +0.000 A 
ATOM     29  N   UNL     1       7.139   5.337  13.984  0.00  0.00    +0.000 NA
ATOM     30  H   UNL     1       6.378   2.721  12.353  0.00  0.00    +0.000 HD
ENDBRANCH  24  25
ENDBRANCH   1  24
TORSDOF 10
ENDMDL
MODEL 5
REMARK VINA RESULT:      -7.1      0.749      1.075
REMARK  Name = 
REMARK  12 active torsions:
REMARK  status: ('A' for Active; 'I' for Inactive)
REMARK    1  A    between atoms: C_1  and  C_2
REMARK    2  A    between atoms: C_2  and  C_3
REMARK    3  A    between atoms: C_3  and  C_4
REMARK    4  A    between atoms: C_4  and  O_5
REMARK    5  A    between atoms: O_5  and  C_6
REMARK    6  A    between atoms: C_9  and  S_10
REMARK    7  A    between atoms: S_10  and  N_13
REMARK    8  A    between atoms: N_13  and  C_14
REMARK    9  A    between atoms: N_13  and  C_20
REMARK   10  A    between atoms: C_14  and  C_15
REMARK   11  A    between atoms: C_20  and  C_21
REMARK   12  A    between atoms: C_20  and  C_22
REMARK                            x       y       z     vdW  Elec       q    Type
REMARK                         _______ _______ _______ _____ _____    ______ ____
ROOT
ATOM      1  N   UNL     1       5.389   4.693  16.894  0.00  0.00    +0.000 NA
ENDROOT
BRANCH   1   2
ATOM      2  S   UNL     1       6.830   4.789  17.809  0.00  0.00    +0.000 S 
ATOM      3  O   UNL     1       7.919   4.222  17.039  0.00  0.00    +0.000 OA
ATOM      4  O   UNL     1       6.563   4.270  19.131  0.00  0.00    +0.000 OA
BRANCH   2   8
ATOM      5  C   UNL     1       8.129   9.184  18.053  0.00  0.00    +0.000 A 
ATOM      6  C   UNL     1       8.724   8.214  18.870  0.00  0.00    +0.000 A 
ATOM      7  C   UNL     1       8.278   6.889  18.861  0.00  0.00    +0.000 A 
ATOM      8  C   UNL     1       7.232   6.520  18.019  0.00  0.00    +0.000 A 
ATOM      9  C   UNL     1       6.666   7.480  17.174  0.00  0.00    +0.000 A 
ATOM     10  C   UNL     1       7.074   8.816  17.228  0.00  0.00    +0.000 A 
BRANCH   5  11
ATOM     11  O   UNL     1       8.518  10.496  17.961  0.00  0.00    +0.000 OA
BRANCH  11  12
ATOM     12  C   UNL     1       9.545  10.868  18.872  0.00  0.00    +0.000 C 
BRANCH  12  13
ATOM     13  C   UNL     1      10.478  11.894  18.244  0.00  0.00    +0.000 C 
BRANCH  13  15
ATOM     14  C   UNL     1      12.332  12.093  19.951  0.00  0.00    +0.000 C 
ATOM     15  C   UNL     1      11.921  11.539  18.602  0.00  0.00    +0.000 C 
ENDBRANCH  13  15
ENDBRANCH  12  13
ENDBRANCH  11  12
ENDBRANCH   5  11
ENDBRANCH   2   8
ENDBRANCH   1   2
BRANCH   1  16
ATOM     16  C   UNL     1       4.035   4.574  17.558  0.00  0.00    +0.000 C 
ATOM     17  C   UNL     1       3.526   5.945  18.018  0.00  0.00    +0.000 C 
BRANCH  16  18
ATOM     18  C   UNL     1       3.926   3.514  18.708  0.00  0.00    +0.000 C 
ATOM     19  C   UNL     1       3.034   4.007  19.881  0.00  0.00    +0.000 C 
ATOM     20  C   UNL     1       1.543   4.002  19.544  0.00  0.00    +0.000 C 
ATOM     21  C   UNL     1       1.080   2.614  19.120  0.00  0.00    +0.000 C 
ATOM     22  C   UNL     1       1.935   2.051  17.990  0.00  0.00    +0.000 C 
ATOM     23  C   UNL     1       3.427   2.113  18.303  0.00  0.00    +0.000 C 
ENDBRANCH  16  18
ENDBRANCH   1  16
BRANCH   1  24
ATOM     24  C   UNL     1       5.323   5.459  15.603  0.00  0.00    +0.000 C 
BRANCH  24  25
ATOM     25  C   UNL     1       5.940   4.786  14.416  0.00  0.00    +0.000 A 
ATOM     26  C   UNL     1       5.527   3.693  13.683  0.00  0.00    +0.000 A 
ATOM     27  N   UNL     1       6.539   3.439  12.799  0.00  0.00    +0.000 N 
ATOM     28  C   UNL     1       7.489   4.404  12.967  0.00  0.00    +0.000 A 
ATOM     29  N   UNL     1       7.141   5.253  13.906  0.00  0.00    +0.000 NA
ATOM     30  H   UNL     1       6.597   2.658  12.160  0.00  0.00    +0.000 HD
ENDBRANCH  24  25
ENDBRANCH   1  24
TORSDOF 10
ENDMDL
MODEL 6
REMARK VINA RESULT:      -7.0      3.960      5.685
REMARK  Name = 
REMARK  12 active torsions:
REMARK  status: ('A' for Active; 'I' for Inactive)
REMARK    1  A    between atoms: C_1  and  C_2
REMARK    2  A    between atoms: C_2  and  C_3
REMARK    3  A    between atoms: C_3  and  C_4
REMARK    4  A    between atoms: C_4  and  O_5
REMARK    5  A    between atoms: O_5  and  C_6
REMARK    6  A    between atoms: C_9  and  S_10
REMARK    7  A    between atoms: S_10  and  N_13
REMARK    8  A    between atoms: N_13  and  C_14
REMARK    9  A    between atoms: N_13  and  C_20
REMARK   10  A    between atoms: C_14  and  C_15
REMARK   11  A    between atoms: C_20  and  C_21
REMARK   12  A    between atoms: C_20  and  C_22
REMARK                            x       y       z     vdW  Elec       q    Type
REMARK                         _______ _______ _______ _____ _____    ______ ____
ROOT
ATOM      1  N   UNL     1       5.303   5.277  18.059  0.00  0.00    +0.000 NA
ENDROOT
BRANCH   1   2
ATOM      2  S   UNL     1       4.824   6.740  17.318  0.00  0.00    +0.000 S 
ATOM      3  O   UNL     1       4.390   6.465  15.962  0.00  0.00    +0.000 OA
ATOM      4  O   UNL     1       5.863   7.720  17.534  0.00  0.00    +0.000 OA
BRANCH   2   8
ATOM      5  C   UNL     1       1.349   8.554  19.705  0.00  0.00    +0.000 A 
ATOM      6  C   UNL     1       2.054   7.447  20.195  0.00  0.00    +0.000 A 
ATOM      7  C   UNL     1       3.060   6.838  19.437  0.00  0.00    +0.000 A 
ATOM      8  C   UNL     1       3.376   7.343  18.179  0.00  0.00    +0.000 A 
ATOM      9  C   UNL     1       2.698   8.473  17.708  0.00  0.00    +0.000 A 
ATOM     10  C   UNL     1       1.655   9.044  18.442  0.00  0.00    +0.000 A 
BRANCH   5  11
ATOM     11  O   UNL     1       0.377   9.243  20.383  0.00  0.00    +0.000 OA
BRANCH  11  12
ATOM     12  C   UNL     1       0.270   8.902  21.761  0.00  0.00    +0.000 C 
BRANCH  12  13
ATOM     13  C   UNL     1      -0.471   9.987  22.530  0.00  0.00    +0.000 C 
BRANCH  13  15
ATOM     14  C   UNL     1      -1.514  11.938  21.307  0.00  0.00    +0.000 C 
ATOM     15  C   UNL     1      -0.233  11.332  21.845  0.00  0.00    +0.000 C 
ENDBRANCH  13  15
ENDBRANCH  12  13
ENDBRANCH  11  12
ENDBRANCH   5  11
ENDBRANCH   2   8
ENDBRANCH   1   2
BRANCH   1  16
ATOM     16  C   UNL     1       4.289   4.300  18.615  0.00  0.00    +0.000 C 
ATOM     17  C   UNL     1       4.954   3.301  19.568  0.00  0.00    +0.000 C 
BRANCH  16  18
ATOM     18  C   UNL     1       3.395   3.565  17.557  0.00  0.00    +0.000 C 
ATOM     19  C   UNL     1       3.256   2.047  17.857  0.00  0.00    +0.000 C 
ATOM     20  C   UNL     1       2.341   1.750  19.045  0.00  0.00    +0.000 C 
ATOM     21  C   UNL     1       0.953   2.340  18.830  0.00  0.00    +0.000 C 
ATOM     22  C   UNL     1       1.014   3.828  18.497  0.00  0.00    +0.000 C 
ATOM     23  C   UNL     1       1.975   4.128  17.351  0.00  0.00    +0.000 C 
ENDBRANCH  16  18
ENDBRANCH   1  16
BRANCH   1  24
ATOM     24  C   UNL     1       6.524   4.584  17.525  0.00  0.00    +0.000 C 
BRANCH  24  25
ATOM     25  C   UNL     1       6.592   4.441  16.036  0.00  0.00    +0.000 A 
ATOM     26  C   UNL     1       5.982   3.541  15.187  0.00  0.00    +0.000 A 
ATOM     27  N   UNL     1       6.504   3.791  13.948  0.00  0.00    +0.000 N 
ATOM     28  C   UNL     1       7.346   4.858  14.061  0.00  0.00    +0.000 A 
ATOM     29  N   UNL     1       7.393   5.297  15.297  0.00  0.00    +0.000 NA
ATOM     30  H   UNL     1       6.329   3.261  13.105  0.00  0.00    +0.000 HD
ENDBRANCH  24  25
ENDBRANCH   1  24
TORSDOF 10
ENDMDL
MODEL 7
REMARK VINA RESULT:      -7.0      3.960      5.564
REMARK  Name = 
REMARK  12 active torsions:
REMARK  status: ('A' for Active; 'I' for Inactive)
REMARK    1  A    between atoms: C_1  and  C_2
REMARK    2  A    between atoms: C_2  and  C_3
REMARK    3  A    between atoms: C_3  and  C_4
REMARK    4  A    between atoms: C_4  and  O_5
REMARK    5  A    between atoms: O_5  and  C_6
REMARK    6  A    between atoms: C_9  and  S_10
REMARK    7  A    between atoms: S_10  and  N_13
REMARK    8  A    between atoms: N_13  and  C_14
REMARK    9  A    between atoms: N_13  and  C_20
REMARK   10  A    between atoms: C_14  and  C_15
REMARK   11  A    between atoms: C_20  and  C_21
REMARK   12  A    between atoms: C_20  and  C_22
REMARK                            x       y       z     vdW  Elec       q    Type
REMARK                         _______ _______ _______ _____ _____    ______ ____
ROOT
ATOM      1  N   UNL     1       5.429   5.105  17.894  0.00  0.00    +0.000 NA
ENDROOT
BRANCH   1   2
ATOM      2  S   UNL     1       4.951   6.582  17.180  0.00  0.00    +0.000 S 
ATOM      3  O   UNL     1       4.491   6.328  15.829  0.00  0.00    +0.000 OA
ATOM      4  O   UNL     1       6.003   7.550  17.391  0.00  0.00    +0.000 OA
BRANCH   2   8
ATOM      5  C   UNL     1       1.538   8.378  19.668  0.00  0.00    +0.000 A 
ATOM      6  C   UNL     1       2.196   7.215  20.088  0.00  0.00    +0.000 A 
ATOM      7  C   UNL     1       3.181   6.616  19.296  0.00  0.00    +0.000 A 
ATOM      8  C   UNL     1       3.523   7.186  18.074  0.00  0.00    +0.000 A 
ATOM      9  C   UNL     1       2.893   8.369  17.673  0.00  0.00    +0.000 A 
ATOM     10  C   UNL     1       1.869   8.934  18.439  0.00  0.00    +0.000 A 
BRANCH   5  11
ATOM     11  O   UNL     1       0.590   9.060  20.386  0.00  0.00    +0.000 OA
BRANCH  11  12
ATOM     12  C   UNL     1       0.148  10.267  19.773  0.00  0.00    +0.000 C 
BRANCH  12  13
ATOM     13  C   UNL     1      -1.280  10.122  19.265  0.00  0.00    +0.000 C 
BRANCH  13  15
ATOM     14  C   UNL     1      -1.226  12.357  18.087  0.00  0.00    +0.000 C 
ATOM     15  C   UNL     1      -1.411  10.861  17.934  0.00  0.00    +0.000 C 
ENDBRANCH  13  15
ENDBRANCH  12  13
ENDBRANCH  11  12
ENDBRANCH   5  11
ENDBRANCH   2   8
ENDBRANCH   1   2
BRANCH   1  16
ATOM     16  C   UNL     1       4.423   4.162  18.516  0.00  0.00    +0.000 C 
ATOM     17  C   UNL     1       5.079   3.290  19.593  0.00  0.00    +0.000 C 
BRANCH  16  18
ATOM     18  C   UNL     1       3.588   3.291  17.513  0.00  0.00    +0.000 C 
ATOM     19  C   UNL     1       3.310   1.865  18.063  0.00  0.00    +0.000 C 
ATOM     20  C   UNL     1       2.260   1.844  19.174  0.00  0.00    +0.000 C 
ATOM     21  C   UNL     1       0.948   2.457  18.702  0.00  0.00    +0.000 C 
ATOM     22  C   UNL     1       1.151   3.851  18.117  0.00  0.00    +0.000 C 
ATOM     23  C   UNL     1       2.241   3.881  17.051  0.00  0.00    +0.000 C 
ENDBRANCH  16  18
ENDBRANCH   1  16
BRANCH   1  24
ATOM     24  C   UNL     1       6.592   4.373  17.286  0.00  0.00    +0.000 C 
BRANCH  24  25
ATOM     25  C   UNL     1       6.651   4.376  15.789  0.00  0.00    +0.000 A 
ATOM     26  C   UNL     1       5.965   3.626  14.858  0.00  0.00    +0.000 A 
ATOM     27  N   UNL     1       6.511   3.952  13.647  0.00  0.00    +0.000 N 
ATOM     28  C   UNL     1       7.447   4.921  13.862  0.00  0.00    +0.000 A 
ATOM     29  N   UNL     1       7.529   5.227  15.136  0.00  0.00    +0.000 NA
ATOM     30  H   UNL     1       6.292   3.528  12.756  0.00  0.00    +0.000 HD
ENDBRANCH  24  25
ENDBRANCH   1  24
TORSDOF 10
ENDMDL
MODEL 8
REMARK VINA RESULT:      -6.9      7.128     10.012
REMARK  Name = 
REMARK  12 active torsions:
REMARK  status: ('A' for Active; 'I' for Inactive)
REMARK    1  A    between atoms: C_1  and  C_2
REMARK    2  A    between atoms: C_2  and  C_3
REMARK    3  A    between atoms: C_3  and  C_4
REMARK    4  A    between atoms: C_4  and  O_5
REMARK    5  A    between atoms: O_5  and  C_6
REMARK    6  A    between atoms: C_9  and  S_10
REMARK    7  A    between atoms: S_10  and  N_13
REMARK    8  A    between atoms: N_13  and  C_14
REMARK    9  A    between atoms: N_13  and  C_20
REMARK   10  A    between atoms: C_14  and  C_15
REMARK   11  A    between atoms: C_20  and  C_21
REMARK   12  A    between atoms: C_20  and  C_22
REMARK                            x       y       z     vdW  Elec       q    Type
REMARK                         _______ _______ _______ _____ _____    ______ ____
ROOT
ATOM      1  N   UNL     1      -0.584  12.192  19.304  0.00  0.00    +0.000 NA
ENDROOT
BRANCH   1   2
ATOM      2  S   UNL     1       0.039  11.259  20.593  0.00  0.00    +0.000 S 
ATOM      3  O   UNL     1      -1.061  10.789  21.413  0.00  0.00    +0.000 OA
ATOM      4  O   UNL     1       1.108  12.004  21.218  0.00  0.00    +0.000 OA
BRANCH   2   8
ATOM      5  C   UNL     1       2.316   7.646  18.914  0.00  0.00    +0.000 A 
ATOM      6  C   UNL     1       1.988   8.731  18.092  0.00  0.00    +0.000 A 
ATOM      7  C   UNL     1       1.224   9.798  18.575  0.00  0.00    +0.000 A 
ATOM      8  C   UNL     1       0.788   9.791  19.897  0.00  0.00    +0.000 A 
ATOM      9  C   UNL     1       1.150   8.725  20.728  0.00  0.00    +0.000 A 
ATOM     10  C   UNL     1       1.864   7.633  20.228  0.00  0.00    +0.000 A 
BRANCH   5  11
ATOM     11  O   UNL     1       3.089   6.574  18.549  0.00  0.00    +0.000 OA
BRANCH  11  12
ATOM     12  C   UNL     1       2.362   5.499  17.965  0.00  0.00    +0.000 C 
BRANCH  12  13
ATOM     13  C   UNL     1       2.222   4.344  18.948  0.00  0.00    +0.000 C 
BRANCH  13  15
ATOM     14  C   UNL     1       0.716   2.323  18.764  0.00  0.00    +0.000 C 
ATOM     15  C   UNL     1       1.895   3.069  18.173  0.00  0.00    +0.000 C 
ENDBRANCH  13  15
ENDBRANCH  12  13
ENDBRANCH  11  12
ENDBRANCH   5  11
ENDBRANCH   2   8
ENDBRANCH   1   2
BRANCH   1  16
ATOM     16  C   UNL     1      -2.011  12.034  18.829  0.00  0.00    +0.000 C 
ATOM     17  C   UNL     1      -2.999  12.577  19.868  0.00  0.00    +0.000 C 
BRANCH  16  18
ATOM     18  C   UNL     1      -2.421  10.596  18.355  0.00  0.00    +0.000 C 
ATOM     19  C   UNL     1      -3.963  10.415  18.291  0.00  0.00    +0.000 C 
ATOM     20  C   UNL     1      -4.605  11.140  17.109  0.00  0.00    +0.000 C 
ATOM     21  C   UNL     1      -3.998  10.683  15.788  0.00  0.00    +0.000 C 
ATOM     22  C   UNL     1      -2.477  10.803  15.790  0.00  0.00    +0.000 C 
ATOM     23  C   UNL     1      -1.843  10.130  17.004  0.00  0.00    +0.000 C 
ENDBRANCH  16  18
ENDBRANCH   1  16
BRANCH   1  24
ATOM     24  C   UNL     1      -0.087  13.602  19.151  0.00  0.00    +0.000 C 
BRANCH  24  25
ATOM     25  C   UNL     1       1.347  13.746  18.744  0.00  0.00    +0.000 A 
ATOM     26  C   UNL     1       2.106  13.025  17.847  0.00  0.00    +0.000 A 
ATOM     27  N   UNL     1       3.380  13.506  17.973  0.00  0.00    +0.000 N 
ATOM     28  C   UNL     1       3.349  14.531  18.872  0.00  0.00    +0.000 A 
ATOM     29  N   UNL     1       2.133  14.726  19.327  0.00  0.00    +0.000 NA
ATOM     30  H   UNL     1       4.206  13.146  17.513  0.00  0.00    +0.000 HD
ENDBRANCH  24  25
ENDBRANCH   1  24
TORSDOF 10
ENDMDL
MODEL 9
REMARK VINA RESULT:      -6.9      6.744      9.681
REMARK  Name = 
REMARK  12 active torsions:
REMARK  status: ('A' for Active; 'I' for Inactive)
REMARK    1  A    between atoms: C_1  and  C_2
REMARK    2  A    between atoms: C_2  and  C_3
REMARK    3  A    between atoms: C_3  and  C_4
REMARK    4  A    between atoms: C_4  and  O_5
REMARK    5  A    between atoms: O_5  and  C_6
REMARK    6  A    between atoms: C_9  and  S_10
REMARK    7  A    between atoms: S_10  and  N_13
REMARK    8  A    between atoms: N_13  and  C_14
REMARK    9  A    between atoms: N_13  and  C_20
REMARK   10  A    between atoms: C_14  and  C_15
REMARK   11  A    between atoms: C_20  and  C_21
REMARK   12  A    between atoms: C_20  and  C_22
REMARK                            x       y       z     vdW  Elec       q    Type
REMARK                         _______ _______ _______ _____ _____    ______ ____
ROOT
ATOM      1  N   UNL     1       0.207  11.717  19.623  0.00  0.00    +0.000 NA
ENDROOT
BRANCH   1   2
ATOM      2  S   UNL     1       0.413  10.388  20.678  0.00  0.00    +0.000 S 
ATOM      3  O   UNL     1      -0.878   9.777  20.928  0.00  0.00    +0.000 OA
ATOM      4  O   UNL     1       1.212  10.819  21.801  0.00  0.00    +0.000 OA
BRANCH   2   8
ATOM      5  C   UNL     1       2.540   7.027  18.389  0.00  0.00    +0.000 A 
ATOM      6  C   UNL     1       2.355   6.944  19.775  0.00  0.00    +0.000 A 
ATOM      7  C   UNL     1       1.781   8.000  20.491  0.00  0.00    +0.000 A 
ATOM      8  C   UNL     1       1.377   9.149  19.819  0.00  0.00    +0.000 A 
ATOM      9  C   UNL     1       1.526   9.214  18.429  0.00  0.00    +0.000 A 
ATOM     10  C   UNL     1       2.152   8.183  17.724  0.00  0.00    +0.000 A 
BRANCH   5  11
ATOM     11  O   UNL     1       3.055   6.036  17.593  0.00  0.00    +0.000 OA
BRANCH  11  12
ATOM     12  C   UNL     1       2.889   4.721  18.113  0.00  0.00    +0.000 C 
BRANCH  12  13
ATOM     13  C   UNL     1       1.538   4.148  17.707  0.00  0.00    +0.000 C 
BRANCH  13  15
ATOM     14  C   UNL     1       0.975   3.601  20.110  0.00  0.00    +0.000 C 
ATOM     15  C   UNL     1       1.141   3.060  18.704  0.00  0.00    +0.000 C 
ENDBRANCH  13  15
ENDBRANCH  12  13
ENDBRANCH  11  12
ENDBRANCH   5  11
ENDBRANCH   2   8
ENDBRANCH   1   2
BRANCH   1  16
ATOM     16  C   UNL     1      -1.083  11.935  18.864  0.00  0.00    +0.000 C 
ATOM     17  C   UNL     1      -1.929  13.030  19.523  0.00  0.00    +0.000 C 
BRANCH  16  18
ATOM     18  C   UNL     1      -1.939  10.650  18.584  0.00  0.00    +0.000 C 
ATOM     19  C   UNL     1      -3.464  10.921  18.704  0.00  0.00    +0.000 C 
ATOM     20  C   UNL     1      -4.026  11.723  17.530  0.00  0.00    +0.000 C 
ATOM     21  C   UNL     1      -3.750  11.025  16.205  0.00  0.00    +0.000 C 
ATOM     22  C   UNL     1      -2.271  10.697  16.032  0.00  0.00    +0.000 C 
ATOM     23  C   UNL     1      -1.697   9.949  17.232  0.00  0.00    +0.000 C 
ENDBRANCH  16  18
ENDBRANCH   1  16
BRANCH   1  24
ATOM     24  C   UNL     1       0.879  13.011  19.983  0.00  0.00    +0.000 C 
BRANCH  24  25
ATOM     25  C   UNL     1       2.069  13.380  19.151  0.00  0.00    +0.000 A 
ATOM     26  C   UNL     1       2.638  12.752  18.063  0.00  0.00    +0.000 A 
ATOM     27  N   UNL     1       3.778  13.454  17.787  0.00  0.00    +0.000 N 
ATOM     28  C   UNL     1       3.836  14.508  18.652  0.00  0.00    +0.000 A 
ATOM     29  N   UNL     1       2.802  14.514  19.461  0.00  0.00    +0.000 NA
ATOM     30  H   UNL     1       4.476  13.219  17.094  0.00  0.00    +0.000 HD
ENDBRANCH  24  25
ENDBRANCH   1  24
TORSDOF 10
ENDMDL
