MODEL 1
REMARK VINA RESULT:      -8.3      0.000      0.000
REMARK  Name = 
REMARK  8 active torsions:
REMARK  status: ('A' for Active; 'I' for Inactive)
REMARK    1  A    between atoms: C_1  and  C_2
REMARK    2  A    between atoms: C_2  and  C_3
REMARK    3  A    between atoms: C_2  and  C_4
REMARK    4  A    between atoms: C_4  and  O_5
REMARK    5  A    between atoms: O_5  and  C_6
REMARK    6  A    between atoms: N_8  and  C_9
REMARK    7  A    between atoms: C_13  and  O_14
REMARK    8  A    between atoms: O_14  and  C_15
REMARK                            x       y       z     vdW  Elec       q    Type
REMARK                         _______ _______ _______ _____ _____    ______ ____
ROOT
ATOM      1  C   UNL     1       6.421   5.586  17.064  0.00  0.00    +0.000 A 
ATOM      2  C   UNL     1       6.844   4.830  15.963  0.00  0.00    +0.000 A 
ATOM      3  C   UNL     1       6.006   3.867  15.388  0.00  0.00    +0.000 A 
ATOM      4  C   UNL     1       4.716   3.679  15.877  0.00  0.00    +0.000 A 
ATOM      5  C   UNL     1       4.262   4.456  16.940  0.00  0.00    +0.000 A 
ATOM      6  C   UNL     1       5.127   5.361  17.564  0.00  0.00    +0.000 A 
ENDROOT
BRANCH   1   9
ATOM      7  C   UNL     1       8.128   8.408  17.960  0.00  0.00    +0.000 A 
ATOM      8  N   UNL     1       7.325   7.818  17.140  0.00  0.00    +0.000 NA
ATOM      9  N   UNL     1       7.250   6.555  17.671  0.00  0.00    +0.000 N 
ATOM     10  C   UNL     1       8.029   6.458  18.812  0.00  0.00    +0.000 A 
ATOM     11  O   UNL     1       8.209   5.518  19.571  0.00  0.00    +0.000 OA
ATOM     12  O   UNL     1       8.627   7.674  18.976  0.00  0.00    +0.000 OA
BRANCH   7  13
ATOM     13  O   UNL     1       8.526   9.694  17.974  0.00  0.00    +0.000 OA
BRANCH  13  14
ATOM     14  C   UNL     1       9.170  10.162  19.171  0.00  0.00    +0.000 C 
BRANCH  14  16
ATOM     15  C   UNL     1       9.911  12.195  17.845  0.00  0.00    +0.000 C 
ATOM     16  C   UNL     1      10.315  11.140  18.874  0.00  0.00    +0.000 C 
ATOM     17  C   UNL     1      10.825  11.810  20.148  0.00  0.00    +0.000 C 
ENDBRANCH  14  16
ENDBRANCH  13  14
ENDBRANCH   7  13
ENDBRANCH   1   9
BRANCH   5  18
ATOM     18  O   UNL     1       2.964   4.241  17.349  0.00  0.00    +0.000 OA
BRANCH  18  19
ATOM     19  C   UNL     1       2.719   3.992  18.685  0.00  0.00    +0.000 A 
ATOM     20  C   UNL     1       3.229   2.894  19.386  0.00  0.00    +0.000 A 
ATOM     21  C   UNL     1       2.892   2.704  20.727  0.00  0.00    +0.000 A 
ATOM     22  C   UNL     1       2.094   3.638  21.386  0.00  0.00    +0.000 A 
ATOM     23  C   UNL     1       1.639   4.769  20.709  0.00  0.00    +0.000 A 
ATOM     24  C   UNL     1       1.953   4.946  19.359  0.00  0.00    +0.000 A 
ENDBRANCH  18  19
ENDBRANCH   5  18
TORSDOF 6
ENDMDL
MODEL 2
REMARK VINA RESULT:      -8.2      0.427      1.004
REMARK  Name = 
REMARK  8 active torsions:
REMARK  status: ('A' for Active; 'I' for Inactive)
REMARK    1  A    between atoms: C_1  and  C_2
REMARK    2  A    between atoms: C_2  and  C_3
REMARK    3  A    between atoms: C_2  and  C_4
REMARK    4  A    between atoms: C_4  and  O_5
REMARK    5  A    between atoms: O_5  and  C_6
REMARK    6  A    between atoms: N_8  and  C_9
REMARK    7  A    between atoms: C_13  and  O_14
REMARK    8  A    between atoms: O_14  and  C_15
REMARK                            x       y       z     vdW  Elec       q    Type
REMARK                         _______ _______ _______ _____ _____    ______ ____
ROOT
ATOM      1  C   UNL     1       6.271   5.576  17.194  0.00  0.00    +0.000 A 
ATOM      2  C   UNL     1       6.649   4.730  16.142  0.00  0.00    +0.000 A 
ATOM      3  C   UNL     1       5.758   3.780  15.629  0.00  0.00    +0.000 A 
ATOM      4  C   UNL     1       4.462   3.693  16.130  0.00  0.00    +0.000 A 
ATOM      5  C   UNL     1       4.054   4.559  17.142  0.00  0.00    +0.000 A 
ATOM      6  C   UNL     1       4.969   5.454  17.707  0.00  0.00    +0.000 A 
ENDROOT
BRANCH   1   9
ATOM      7  C   UNL     1       8.093   8.369  17.941  0.00  0.00    +0.000 A 
ATOM      8  N   UNL     1       7.237   7.783  17.173  0.00  0.00    +0.000 NA
ATOM      9  N   UNL     1       7.153   6.536  17.737  0.00  0.00    +0.000 N 
ATOM     10  C   UNL     1       7.982   6.443  18.844  0.00  0.00    +0.000 A 
ATOM     11  O   UNL     1       8.171   5.516  19.617  0.00  0.00    +0.000 OA
ATOM     12  O   UNL     1       8.620   7.645  18.950  0.00  0.00    +0.000 OA
BRANCH   7  13
ATOM     13  O   UNL     1       8.527   9.644  17.904  0.00  0.00    +0.000 OA
BRANCH  13  14
ATOM     14  C   UNL     1       9.161  10.148  19.092  0.00  0.00    +0.000 C 
BRANCH  14  16
ATOM     15  C   UNL     1       9.726  12.299  17.870  0.00  0.00    +0.000 C 
ATOM     16  C   UNL     1      10.247  11.185  18.777  0.00  0.00    +0.000 C 
ATOM     17  C   UNL     1      10.845  11.777  20.052  0.00  0.00    +0.000 C 
ENDBRANCH  14  16
ENDBRANCH  13  14
ENDBRANCH   7  13
ENDBRANCH   1   9
BRANCH   5  18
ATOM     18  O   UNL     1       2.748   4.440  17.564  0.00  0.00    +0.000 OA
BRANCH  18  19
ATOM     19  C   UNL     1       2.498   3.929  18.822  0.00  0.00    +0.000 A 
ATOM     20  C   UNL     1       1.327   4.166  19.549  0.00  0.00    +0.000 A 
ATOM     21  C   UNL     1       1.183   3.638  20.833  0.00  0.00    +0.000 A 
ATOM     22  C   UNL     1       2.181   2.828  21.371  0.00  0.00    +0.000 A 
ATOM     23  C   UNL     1       3.321   2.535  20.624  0.00  0.00    +0.000 A 
ATOM     24  C   UNL     1       3.479   3.084  19.349  0.00  0.00    +0.000 A 
ENDBRANCH  18  19
ENDBRANCH   5  18
TORSDOF 6
ENDMDL
MODEL 3
REMARK VINA RESULT:      -8.0      0.568      1.317
REMARK  Name = 
REMARK  8 active torsions:
REMARK  status: ('A' for Active; 'I' for Inactive)
REMARK    1  A    between atoms: C_1  and  C_2
REMARK    2  A    between atoms: C_2  and  C_3
REMARK    3  A    between atoms: C_2  and  C_4
REMARK    4  A    between atoms: C_4  and  O_5
REMARK    5  A    between atoms: O_5  and  C_6
REMARK    6  A    between atoms: N_8  and  C_9
REMARK    7  A    between atoms: C_13  and  O_14
REMARK    8  A    between atoms: O_14  and  C_15
REMARK                            x       y       z     vdW  Elec       q    Type
REMARK                         _______ _______ _______ _____ _____    ______ ____
ROOT
ATOM      1  C   UNL     1       6.571   5.509  16.777  0.00  0.00    +0.000 A 
ATOM      2  C   UNL     1       6.877   5.168  15.452  0.00  0.00    +0.000 A 
ATOM      3  C   UNL     1       6.130   4.202  14.768  0.00  0.00    +0.000 A 
ATOM      4  C   UNL     1       5.038   3.596  15.383  0.00  0.00    +0.000 A 
ATOM      5  C   UNL     1       4.690   3.957  16.683  0.00  0.00    +0.000 A 
ATOM      6  C   UNL     1       5.485   4.865  17.392  0.00  0.00    +0.000 A 
ENDROOT
BRANCH   1   9
ATOM      7  C   UNL     1       8.125   8.327  17.926  0.00  0.00    +0.000 A 
ATOM      8  N   UNL     1       7.423   7.750  17.010  0.00  0.00    +0.000 NA
ATOM      9  N   UNL     1       7.315   6.472  17.494  0.00  0.00    +0.000 N 
ATOM     10  C   UNL     1       7.972   6.352  18.708  0.00  0.00    +0.000 A 
ATOM     11  O   UNL     1       8.088   5.392  19.454  0.00  0.00    +0.000 OA
ATOM     12  O   UNL     1       8.529   7.571  18.968  0.00  0.00    +0.000 OA
BRANCH   7  13
ATOM     13  O   UNL     1       8.497   9.619  18.017  0.00  0.00    +0.000 OA
BRANCH  13  14
ATOM     14  C   UNL     1       9.236  10.000  19.190  0.00  0.00    +0.000 C 
BRANCH  14  16
ATOM     15  C   UNL     1      11.135  11.665  19.440  0.00  0.00    +0.000 C 
ATOM     16  C   UNL     1       9.642  11.479  19.169  0.00  0.00    +0.000 C 
ATOM     17  C   UNL     1       9.256  12.148  17.851  0.00  0.00    +0.000 C 
ENDBRANCH  14  16
ENDBRANCH  13  14
ENDBRANCH   7  13
ENDBRANCH   1   9
BRANCH   5  18
ATOM     18  O   UNL     1       3.578   3.343  17.216  0.00  0.00    +0.000 OA
BRANCH  18  19
ATOM     19  C   UNL     1       3.068   3.810  18.411  0.00  0.00    +0.000 A 
ATOM     20  C   UNL     1       2.452   5.056  18.569  0.00  0.00    +0.000 A 
ATOM     21  C   UNL     1       2.003   5.458  19.828  0.00  0.00    +0.000 A 
ATOM     22  C   UNL     1       2.116   4.596  20.918  0.00  0.00    +0.000 A 
ATOM     23  C   UNL     1       2.669   3.327  20.750  0.00  0.00    +0.000 A 
ATOM     24  C   UNL     1       3.144   2.934  19.497  0.00  0.00    +0.000 A 
ENDBRANCH  18  19
ENDBRANCH   5  18
TORSDOF 6
ENDMDL
MODEL 4
REMARK VINA RESULT:      -7.9      3.459      6.016
REMARK  Name = 
REMARK  8 active torsions:
REMARK  status: ('A' for Active; 'I' for Inactive)
REMARK    1  A    between atoms: C_1  and  C_2
REMARK    2  A    between atoms: C_2  and  C_3
REMARK    3  A    between atoms: C_2  and  C_4
REMARK    4  A    between atoms: C_4  and  O_5
REMARK    5  A    between atoms: O_5  and  C_6
REMARK    6  A    between atoms: N_8  and  C_9
REMARK    7  A    between atoms: C_13  and  O_14
REMARK    8  A    between atoms: O_14  and  C_15
REMARK                            x       y       z     vdW  Elec       q    Type
REMARK                         _______ _______ _______ _____ _____    ______ ____
ROOT
ATOM      1  C   UNL     1       4.576   5.912  16.726  0.00  0.00    +0.000 A 
ATOM      2  C   UNL     1       4.438   7.250  17.122  0.00  0.00    +0.000 A 
ATOM      3  C   UNL     1       3.338   7.664  17.881  0.00  0.00    +0.000 A 
ATOM      4  C   UNL     1       2.384   6.738  18.295  0.00  0.00    +0.000 A 
ATOM      5  C   UNL     1       2.531   5.396  17.952  0.00  0.00    +0.000 A 
ATOM      6  C   UNL     1       3.589   4.997  17.127  0.00  0.00    +0.000 A 
ENDROOT
BRANCH   1   9
ATOM      7  C   UNL     1       6.659   4.430  14.457  0.00  0.00    +0.000 A 
ATOM      8  N   UNL     1       5.471   4.558  14.945  0.00  0.00    +0.000 NA
ATOM      9  N   UNL     1       5.671   5.470  15.950  0.00  0.00    +0.000 N 
ATOM     10  C   UNL     1       7.001   5.851  16.006  0.00  0.00    +0.000 A 
ATOM     11  O   UNL     1       7.567   6.647  16.740  0.00  0.00    +0.000 OA
ATOM     12  O   UNL     1       7.649   5.137  15.040  0.00  0.00    +0.000 OA
BRANCH   7  13
ATOM     13  O   UNL     1       7.063   3.701  13.399  0.00  0.00    +0.000 OA
BRANCH  13  14
ATOM     14  C   UNL     1       6.323   3.863  12.178  0.00  0.00    +0.000 C 
BRANCH  14  16
ATOM     15  C   UNL     1       4.093   3.177  11.180  0.00  0.00    +0.000 C 
ATOM     16  C   UNL     1       5.337   2.712  11.936  0.00  0.00    +0.000 C 
ATOM     17  C   UNL     1       6.000   1.549  11.201  0.00  0.00    +0.000 C 
ENDBRANCH  14  16
ENDBRANCH  13  14
ENDBRANCH   7  13
ENDBRANCH   1   9
BRANCH   5  18
ATOM     18  O   UNL     1       1.570   4.530  18.426  0.00  0.00    +0.000 OA
BRANCH  18  19
ATOM     19  C   UNL     1       1.845   3.779  19.551  0.00  0.00    +0.000 A 
ATOM     20  C   UNL     1       0.908   3.479  20.545  0.00  0.00    +0.000 A 
ATOM     21  C   UNL     1       1.291   2.746  21.668  0.00  0.00    +0.000 A 
ATOM     22  C   UNL     1       2.594   2.262  21.775  0.00  0.00    +0.000 A 
ATOM     23  C   UNL     1       3.514   2.502  20.755  0.00  0.00    +0.000 A 
ATOM     24  C   UNL     1       3.139   3.259  19.642  0.00  0.00    +0.000 A 
ENDBRANCH  18  19
ENDBRANCH   5  18
TORSDOF 6
ENDMDL
MODEL 5
REMARK VINA RESULT:      -7.7      1.110      1.414
REMARK  Name = 
REMARK  8 active torsions:
REMARK  status: ('A' for Active; 'I' for Inactive)
REMARK    1  A    between atoms: C_1  and  C_2
REMARK    2  A    between atoms: C_2  and  C_3
REMARK    3  A    between atoms: C_2  and  C_4
REMARK    4  A    between atoms: C_4  and  O_5
REMARK    5  A    between atoms: O_5  and  C_6
REMARK    6  A    between atoms: N_8  and  C_9
REMARK    7  A    between atoms: C_13  and  O_14
REMARK    8  A    between atoms: O_14  and  C_15
REMARK                            x       y       z     vdW  Elec       q    Type
REMARK                         _______ _______ _______ _____ _____    ______ ____
ROOT
ATOM      1  C   UNL     1       6.273   5.609  17.192  0.00  0.00    +0.000 A 
ATOM      2  C   UNL     1       5.854   5.623  15.855  0.00  0.00    +0.000 A 
ATOM      3  C   UNL     1       4.983   4.643  15.364  0.00  0.00    +0.000 A 
ATOM      4  C   UNL     1       4.482   3.662  16.215  0.00  0.00    +0.000 A 
ATOM      5  C   UNL     1       4.849   3.661  17.559  0.00  0.00    +0.000 A 
ATOM      6  C   UNL     1       5.781   4.594  18.029  0.00  0.00    +0.000 A 
ENDROOT
BRANCH   1   9
ATOM      7  C   UNL     1       8.101   8.415  17.872  0.00  0.00    +0.000 A 
ATOM      8  N   UNL     1       7.238   7.815  17.123  0.00  0.00    +0.000 NA
ATOM      9  N   UNL     1       7.160   6.579  17.710  0.00  0.00    +0.000 N 
ATOM     10  C   UNL     1       7.999   6.506  18.810  0.00  0.00    +0.000 A 
ATOM     11  O   UNL     1       8.196   5.593  19.597  0.00  0.00    +0.000 OA
ATOM     12  O   UNL     1       8.637   7.710  18.889  0.00  0.00    +0.000 OA
BRANCH   7  13
ATOM     13  O   UNL     1       8.533   9.690  17.808  0.00  0.00    +0.000 OA
BRANCH  13  14
ATOM     14  C   UNL     1       9.071  10.253  19.017  0.00  0.00    +0.000 C 
BRANCH  14  16
ATOM     15  C   UNL     1      10.940  11.430  17.766  0.00  0.00    +0.000 C 
ATOM     16  C   UNL     1       9.796  11.583  18.768  0.00  0.00    +0.000 C 
ATOM     17  C   UNL     1       8.829  12.671  18.305  0.00  0.00    +0.000 C 
ENDBRANCH  14  16
ENDBRANCH  13  14
ENDBRANCH   7  13
ENDBRANCH   1   9
BRANCH   5  18
ATOM     18  O   UNL     1       4.288   2.683  18.350  0.00  0.00    +0.000 OA
BRANCH  18  19
ATOM     19  C   UNL     1       3.092   2.947  18.987  0.00  0.00    +0.000 A 
ATOM     20  C   UNL     1       2.946   3.854  20.041  0.00  0.00    +0.000 A 
ATOM     21  C   UNL     1       1.701   4.023  20.650  0.00  0.00    +0.000 A 
ATOM     22  C   UNL     1       0.590   3.331  20.172  0.00  0.00    +0.000 A 
ATOM     23  C   UNL     1       0.718   2.476  19.078  0.00  0.00    +0.000 A 
ATOM     24  C   UNL     1       1.968   2.285  18.485  0.00  0.00    +0.000 A 
ENDBRANCH  18  19
ENDBRANCH   5  18
TORSDOF 6
ENDMDL
MODEL 6
REMARK VINA RESULT:      -7.7      3.112      5.573
REMARK  Name = 
REMARK  8 active torsions:
REMARK  status: ('A' for Active; 'I' for Inactive)
REMARK    1  A    between atoms: C_1  and  C_2
REMARK    2  A    between atoms: C_2  and  C_3
REMARK    3  A    between atoms: C_2  and  C_4
REMARK    4  A    between atoms: C_4  and  O_5
REMARK    5  A    between atoms: O_5  and  C_6
REMARK    6  A    between atoms: N_8  and  C_9
REMARK    7  A    between atoms: C_13  and  O_14
REMARK    8  A    between atoms: O_14  and  C_15
REMARK                            x       y       z     vdW  Elec       q    Type
REMARK                         _______ _______ _______ _____ _____    ______ ____
ROOT
ATOM      1  C   UNL     1       4.250   6.953  17.527  0.00  0.00    +0.000 A 
ATOM      2  C   UNL     1       3.683   8.179  17.153  0.00  0.00    +0.000 A 
ATOM      3  C   UNL     1       2.552   8.679  17.811  0.00  0.00    +0.000 A 
ATOM      4  C   UNL     1       2.001   7.981  18.882  0.00  0.00    +0.000 A 
ATOM      5  C   UNL     1       2.581   6.785  19.299  0.00  0.00    +0.000 A 
ATOM      6  C   UNL     1       3.662   6.248  18.590  0.00  0.00    +0.000 A 
ENDROOT
BRANCH   1   9
ATOM      7  C   UNL     1       6.441   5.321  15.475  0.00  0.00    +0.000 A 
ATOM      8  N   UNL     1       5.221   5.555  15.822  0.00  0.00    +0.000 NA
ATOM      9  N   UNL     1       5.383   6.421  16.872  0.00  0.00    +0.000 N 
ATOM     10  C   UNL     1       6.727   6.668  17.099  0.00  0.00    +0.000 A 
ATOM     11  O   UNL     1       7.273   7.389  17.921  0.00  0.00    +0.000 OA
ATOM     12  O   UNL     1       7.417   5.914  16.194  0.00  0.00    +0.000 OA
BRANCH   7  13
ATOM     13  O   UNL     1       6.900   4.577  14.449  0.00  0.00    +0.000 OA
BRANCH  13  14
ATOM     14  C   UNL     1       6.031   3.543  13.957  0.00  0.00    +0.000 C 
BRANCH  14  16
ATOM     15  C   UNL     1       4.833   3.364  11.727  0.00  0.00    +0.000 C 
ATOM     16  C   UNL     1       6.181   3.326  12.445  0.00  0.00    +0.000 C 
ATOM     17  C   UNL     1       7.140   4.340  11.825  0.00  0.00    +0.000 C 
ENDBRANCH  14  16
ENDBRANCH  13  14
ENDBRANCH   7  13
ENDBRANCH   1   9
BRANCH   5  18
ATOM     18  O   UNL     1       2.004   6.167  20.387  0.00  0.00    +0.000 OA
BRANCH  18  19
ATOM     19  C   UNL     1       1.833   4.797  20.361  0.00  0.00    +0.000 A 
ATOM     20  C   UNL     1       1.234   4.099  19.308  0.00  0.00    +0.000 A 
ATOM     21  C   UNL     1       1.069   2.716  19.391  0.00  0.00    +0.000 A 
ATOM     22  C   UNL     1       1.551   2.020  20.498  0.00  0.00    +0.000 A 
ATOM     23  C   UNL     1       2.209   2.704  21.520  0.00  0.00    +0.000 A 
ATOM     24  C   UNL     1       2.351   4.092  21.451  0.00  0.00    +0.000 A 
ENDBRANCH  18  19
ENDBRANCH   5  18
TORSDOF 6
ENDMDL
MODEL 7
REMARK VINA RESULT:      -7.7      1.071      1.202
REMARK  Name = 
REMARK  8 active torsions:
REMARK  status: ('A' for Active; 'I' for Inactive)
REMARK    1  A    between atoms: C_1  and  C_2
REMARK    2  A    between atoms: C_2  and  C_3
REMARK    3  A    between atoms: C_2  and  C_4
REMARK    4  A    between atoms: C_4  and  O_5
REMARK    5  A    between atoms: O_5  and  C_6
REMARK    6  A    between atoms: N_8  and  C_9
REMARK    7  A    between atoms: C_13  and  O_14
REMARK    8  A    between atoms: O_14  and  C_15
REMARK                            x       y       z     vdW  Elec       q    Type
REMARK                         _______ _______ _______ _____ _____    ______ ____
ROOT
ATOM      1  C   UNL     1       6.255   5.559  17.191  0.00  0.00    +0.000 A 
ATOM      2  C   UNL     1       5.850   5.602  15.850  0.00  0.00    +0.000 A 
ATOM      3  C   UNL     1       4.976   4.639  15.332  0.00  0.00    +0.000 A 
ATOM      4  C   UNL     1       4.459   3.646  16.159  0.00  0.00    +0.000 A 
ATOM      5  C   UNL     1       4.812   3.617  17.506  0.00  0.00    +0.000 A 
ATOM      6  C   UNL     1       5.746   4.532  18.004  0.00  0.00    +0.000 A 
ENDROOT
BRANCH   1   9
ATOM      7  C   UNL     1       8.086   8.342  17.953  0.00  0.00    +0.000 A 
ATOM      8  N   UNL     1       7.221   7.766  17.188  0.00  0.00    +0.000 NA
ATOM      9  N   UNL     1       7.144   6.512  17.736  0.00  0.00    +0.000 N 
ATOM     10  C   UNL     1       7.987   6.404  18.830  0.00  0.00    +0.000 A 
ATOM     11  O   UNL     1       8.187   5.466  19.587  0.00  0.00    +0.000 OA
ATOM     12  O   UNL     1       8.626   7.605  18.945  0.00  0.00    +0.000 OA
BRANCH   7  13
ATOM     13  O   UNL     1       8.519   9.618  17.928  0.00  0.00    +0.000 OA
BRANCH  13  14
ATOM     14  C   UNL     1       9.169  10.106  19.114  0.00  0.00    +0.000 C 
BRANCH  14  16
ATOM     15  C   UNL     1       8.969  12.273  17.810  0.00  0.00    +0.000 C 
ATOM     16  C   UNL     1       9.678  11.543  18.951  0.00  0.00    +0.000 C 
ATOM     17  C   UNL     1       9.547  12.337  20.249  0.00  0.00    +0.000 C 
ENDBRANCH  14  16
ENDBRANCH  13  14
ENDBRANCH   7  13
ENDBRANCH   1   9
BRANCH   5  18
ATOM     18  O   UNL     1       4.235   2.628  18.273  0.00  0.00    +0.000 OA
BRANCH  18  19
ATOM     19  C   UNL     1       3.035   2.890  18.904  0.00  0.00    +0.000 A 
ATOM     20  C   UNL     1       1.788   2.477  18.423  0.00  0.00    +0.000 A 
ATOM     21  C   UNL     1       0.624   2.825  19.111  0.00  0.00    +0.000 A 
ATOM     22  C   UNL     1       0.705   3.535  20.307  0.00  0.00    +0.000 A 
ATOM     23  C   UNL     1       1.951   3.891  20.824  0.00  0.00    +0.000 A 
ATOM     24  C   UNL     1       3.115   3.567  20.123  0.00  0.00    +0.000 A 
ENDBRANCH  18  19
ENDBRANCH   5  18
TORSDOF 6
ENDMDL
MODEL 8
REMARK VINA RESULT:      -7.7      3.316      5.807
REMARK  Name = 
REMARK  8 active torsions:
REMARK  status: ('A' for Active; 'I' for Inactive)
REMARK    1  A    between atoms: C_1  and  C_2
REMARK    2  A    between atoms: C_2  and  C_3
REMARK    3  A    between atoms: C_2  and  C_4
REMARK    4  A    between atoms: C_4  and  O_5
REMARK    5  A    between atoms: O_5  and  C_6
REMARK    6  A    between atoms: N_8  and  C_9
REMARK    7  A    between atoms: C_13  and  O_14
REMARK    8  A    between atoms: O_14  and  C_15
REMARK                            x       y       z     vdW  Elec       q    Type
REMARK                         _______ _______ _______ _____ _____    ______ ____
ROOT
ATOM      1  C   UNL     1       4.097   6.786  17.535  0.00  0.00    +0.000 A 
ATOM      2  C   UNL     1       3.572   8.029  17.157  0.00  0.00    +0.000 A 
ATOM      3  C   UNL     1       2.516   8.610  17.870  0.00  0.00    +0.000 A 
ATOM      4  C   UNL     1       2.001   7.977  18.998  0.00  0.00    +0.000 A 
ATOM      5  C   UNL     1       2.544   6.764  19.417  0.00  0.00    +0.000 A 
ATOM      6  C   UNL     1       3.545   6.148  18.658  0.00  0.00    +0.000 A 
ENDROOT
BRANCH   1   9
ATOM      7  C   UNL     1       6.085   4.783  15.608  0.00  0.00    +0.000 A 
ATOM      8  N   UNL     1       4.929   5.011  16.134  0.00  0.00    +0.000 NA
ATOM      9  N   UNL     1       5.155   6.173  16.827  0.00  0.00    +0.000 N 
ATOM     10  C   UNL     1       6.466   6.590  16.668  0.00  0.00    +0.000 A 
ATOM     11  O   UNL     1       7.043   7.575  17.105  0.00  0.00    +0.000 OA
ATOM     12  O   UNL     1       7.078   5.650  15.889  0.00  0.00    +0.000 OA
BRANCH   7  13
ATOM     13  O   UNL     1       6.449   3.797  14.765  0.00  0.00    +0.000 OA
BRANCH  13  14
ATOM     14  C   UNL     1       6.536   4.134  13.370  0.00  0.00    +0.000 C 
BRANCH  14  16
ATOM     15  C   UNL     1       4.677   3.432  11.791  0.00  0.00    +0.000 C 
ATOM     16  C   UNL     1       5.986   3.023  12.466  0.00  0.00    +0.000 C 
ATOM     17  C   UNL     1       7.011   2.594  11.418  0.00  0.00    +0.000 C 
ENDBRANCH  14  16
ENDBRANCH  13  14
ENDBRANCH   7  13
ENDBRANCH   1   9
BRANCH   5  18
ATOM     18  O   UNL     1       2.010   6.212  20.560  0.00  0.00    +0.000 OA
BRANCH  18  19
ATOM     19  C   UNL     1       1.859   4.842  20.631  0.00  0.00    +0.000 A 
ATOM     20  C   UNL     1       2.433   4.038  21.621  0.00  0.00    +0.000 A 
ATOM     21  C   UNL     1       2.257   2.654  21.586  0.00  0.00    +0.000 A 
ATOM     22  C   UNL     1       1.462   2.075  20.598  0.00  0.00    +0.000 A 
ATOM     23  C   UNL     1       0.834   2.880  19.648  0.00  0.00    +0.000 A 
ATOM     24  C   UNL     1       1.031   4.263  19.666  0.00  0.00    +0.000 A 
ENDBRANCH  18  19
ENDBRANCH   5  18
TORSDOF 6
ENDMDL
MODEL 9
REMARK VINA RESULT:      -7.7      3.943      6.724
REMARK  Name = 
REMARK  8 active torsions:
REMARK  status: ('A' for Active; 'I' for Inactive)
REMARK    1  A    between atoms: C_1  and  C_2
REMARK    2  A    between atoms: C_2  and  C_3
REMARK    3  A    between atoms: C_2  and  C_4
REMARK    4  A    between atoms: C_4  and  O_5
REMARK    5  A    between atoms: O_5  and  C_6
REMARK    6  A    between atoms: N_8  and  C_9
REMARK    7  A    between atoms: C_13  and  O_14
REMARK    8  A    between atoms: O_14  and  C_15
REMARK                            x       y       z     vdW  Elec       q    Type
REMARK                         _______ _______ _______ _____ _____    ______ ____
ROOT
ATOM      1  C   UNL     1       6.163   4.854  15.923  0.00  0.00    +0.000 A 
ATOM      2  C   UNL     1       7.171   4.622  16.869  0.00  0.00    +0.000 A 
ATOM      3  C   UNL     1       6.953   4.875  18.228  0.00  0.00    +0.000 A 
ATOM      4  C   UNL     1       5.708   5.320  18.666  0.00  0.00    +0.000 A 
ATOM      5  C   UNL     1       4.680   5.509  17.746  0.00  0.00    +0.000 A 
ATOM      6  C   UNL     1       4.924   5.332  16.379  0.00  0.00    +0.000 A 
ENDROOT
BRANCH   1   9
ATOM      7  C   UNL     1       5.931   3.916  12.644  0.00  0.00    +0.000 A 
ATOM      8  N   UNL     1       5.439   3.890  13.837  0.00  0.00    +0.000 NA
ATOM      9  N   UNL     1       6.361   4.618  14.544  0.00  0.00    +0.000 N 
ATOM     10  C   UNL     1       7.379   5.056  13.713  0.00  0.00    +0.000 A 
ATOM     11  O   UNL     1       8.362   5.739  13.956  0.00  0.00    +0.000 OA
ATOM     12  O   UNL     1       7.102   4.562  12.470  0.00  0.00    +0.000 OA
BRANCH   7  13
ATOM     13  O   UNL     1       5.417   3.410  11.507  0.00  0.00    +0.000 OA
BRANCH  13  14
ATOM     14  C   UNL     1       5.138   2.000  11.491  0.00  0.00    +0.000 C 
BRANCH  14  16
ATOM     15  C   UNL     1       6.126  -0.325  11.249  0.00  0.00    +0.000 C 
ATOM     16  C   UNL     1       6.417   1.152  11.509  0.00  0.00    +0.000 C 
ATOM     17  C   UNL     1       7.449   1.673  10.509  0.00  0.00    +0.000 C 
ENDBRANCH  14  16
ENDBRANCH  13  14
ENDBRANCH   7  13
ENDBRANCH   1   9
BRANCH   5  18
ATOM     18  O   UNL     1       3.465   5.916  18.254  0.00  0.00    +0.000 OA
BRANCH  18  19
ATOM     19  C   UNL     1       2.598   4.963  18.749  0.00  0.00    +0.000 A 
ATOM     20  C   UNL     1       2.063   3.917  17.990  0.00  0.00    +0.000 A 
ATOM     21  C   UNL     1       1.160   3.024  18.570  0.00  0.00    +0.000 A 
ATOM     22  C   UNL     1       0.832   3.140  19.920  0.00  0.00    +0.000 A 
ATOM     23  C   UNL     1       1.414   4.142  20.696  0.00  0.00    +0.000 A 
ATOM     24  C   UNL     1       2.297   5.052  20.111  0.00  0.00    +0.000 A 
ENDBRANCH  18  19
ENDBRANCH   5  18
TORSDOF 6
ENDMDL
