MODEL 1
REMARK VINA RESULT:      -6.6      0.000      0.000
REMARK  Name = 
REMARK  3 active torsions:
REMARK  status: ('A' for Active; 'I' for Inactive)
REMARK    1  A    between atoms: C_7  and  C_8
REMARK    2  A    between atoms: C_8  and  S_9
REMARK    3  A    between atoms: S_9  and  C_10
REMARK                            x       y       z     vdW  Elec       q    Type
REMARK                         _______ _______ _______ _____ _____    ______ ____
ROOT
ATOM      1 BR   UNL     1       1.337   2.831  21.423  0.00  0.00    +0.000 Br
ATOM      2  C   UNL     1       2.200   3.848  20.126  0.00  0.00    +0.000 A 
ATOM      3  C   UNL     1       2.192   5.300  20.260  0.00  0.00    +0.000 A 
ATOM      4  C   UNL     1       2.794   6.096  19.353  0.00  0.00    +0.000 A 
ATOM      5  C   UNL     1       3.460   5.516  18.236  0.00  0.00    +0.000 A 
ATOM      6  N   UNL     1       4.101   6.058  17.222  0.00  0.00    +0.000 NA
ATOM      7  C   UNL     1       4.567   5.003  16.457  0.00  0.00    +0.000 A 
ATOM      8  C   UNL     1       4.153   3.805  17.010  0.00  0.00    +0.000 A 
ATOM      9  N   UNL     1       3.454   4.129  18.146  0.00  0.00    +0.000 N 
ATOM     10  C   UNL     1       2.831   3.299  19.072  0.00  0.00    +0.000 A 
ENDROOT
BRANCH   7  11
ATOM     11  C   UNL     1       5.350   5.231  15.200  0.00  0.00    +0.000 C 
BRANCH  11  12
ATOM     12  S   UNL     1       7.087   4.747  15.385  0.00  0.00    +0.000 S 
BRANCH  12  13
ATOM     13  C   UNL     1       7.463   5.478  16.917  0.00  0.00    +0.000 A 
ATOM     14  N   UNL     1       7.670   4.781  18.080  0.00  0.00    +0.000 NA
ATOM     15  C   UNL     1       7.907   5.726  18.960  0.00  0.00    +0.000 A 
ATOM     16  N   UNL     1       7.842   6.939  18.350  0.00  0.00    +0.000 N 
ATOM     17  N   UNL     1       7.554   6.807  17.046  0.00  0.00    +0.000 NA
ATOM     18  H   UNL     1       7.973   7.865  18.741  0.00  0.00    +0.000 HD
ENDBRANCH  12  13
ENDBRANCH  11  12
ENDBRANCH   7  11
TORSDOF 3
ENDMDL
MODEL 2
REMARK VINA RESULT:      -6.5      3.400      5.833
REMARK  Name = 
REMARK  3 active torsions:
REMARK  status: ('A' for Active; 'I' for Inactive)
REMARK    1  A    between atoms: C_7  and  C_8
REMARK    2  A    between atoms: C_8  and  S_9
REMARK    3  A    between atoms: S_9  and  C_10
REMARK                            x       y       z     vdW  Elec       q    Type
REMARK                         _______ _______ _______ _____ _____    ______ ____
ROOT
ATOM      1 BR   UNL     1       8.278   9.215  17.744  0.00  0.00    +0.000 Br
ATOM      2  C   UNL     1       7.388   7.588  17.896  0.00  0.00    +0.000 A 
ATOM      3  C   UNL     1       8.006   6.527  18.682  0.00  0.00    +0.000 A 
ATOM      4  C   UNL     1       7.417   5.323  18.829  0.00  0.00    +0.000 A 
ATOM      5  C   UNL     1       6.160   5.072  18.210  0.00  0.00    +0.000 A 
ATOM      6  N   UNL     1       5.395   4.000  18.187  0.00  0.00    +0.000 NA
ATOM      7  C   UNL     1       4.276   4.346  17.450  0.00  0.00    +0.000 A 
ATOM      8  C   UNL     1       4.402   5.644  16.988  0.00  0.00    +0.000 A 
ATOM      9  N   UNL     1       5.597   6.109  17.476  0.00  0.00    +0.000 N 
ATOM     10  C   UNL     1       6.199   7.353  17.313  0.00  0.00    +0.000 A 
ENDROOT
BRANCH   7  11
ATOM     11  C   UNL     1       3.168   3.368  17.199  0.00  0.00    +0.000 C 
BRANCH  11  12
ATOM     12  S   UNL     1       3.287   1.916  18.278  0.00  0.00    +0.000 S 
BRANCH  12  13
ATOM     13  C   UNL     1       2.339   2.447  19.637  0.00  0.00    +0.000 A 
ATOM     14  N   UNL     1       2.825   2.597  20.911  0.00  0.00    +0.000 NA
ATOM     15  C   UNL     1       1.773   2.995  21.589  0.00  0.00    +0.000 A 
ATOM     16  N   UNL     1       0.702   3.078  20.756  0.00  0.00    +0.000 N 
ATOM     17  N   UNL     1       1.037   2.727  19.505  0.00  0.00    +0.000 NA
ATOM     18  H   UNL     1      -0.252   3.351  20.960  0.00  0.00    +0.000 HD
ENDBRANCH  12  13
ENDBRANCH  11  12
ENDBRANCH   7  11
TORSDOF 3
ENDMDL
MODEL 3
REMARK VINA RESULT:      -6.5      0.975      1.944
REMARK  Name = 
REMARK  3 active torsions:
REMARK  status: ('A' for Active; 'I' for Inactive)
REMARK    1  A    between atoms: C_7  and  C_8
REMARK    2  A    between atoms: C_8  and  S_9
REMARK    3  A    between atoms: S_9  and  C_10
REMARK                            x       y       z     vdW  Elec       q    Type
REMARK                         _______ _______ _______ _____ _____    ______ ____
ROOT
ATOM      1 BR   UNL     1       1.366   2.811  21.674  0.00  0.00    +0.000 Br
ATOM      2  C   UNL     1       2.251   3.068  20.057  0.00  0.00    +0.000 A 
ATOM      3  C   UNL     1       2.396   1.931  19.155  0.00  0.00    +0.000 A 
ATOM      4  C   UNL     1       3.030   2.047  17.970  0.00  0.00    +0.000 A 
ATOM      5  C   UNL     1       3.571   3.304  17.579  0.00  0.00    +0.000 A 
ATOM      6  N   UNL     1       4.232   3.674  16.502  0.00  0.00    +0.000 NA
ATOM      7  C   UNL     1       4.482   5.027  16.654  0.00  0.00    +0.000 A 
ATOM      8  C   UNL     1       3.991   5.460  17.872  0.00  0.00    +0.000 A 
ATOM      9  N   UNL     1       3.405   4.366  18.459  0.00  0.00    +0.000 N 
ATOM     10  C   UNL     1       2.758   4.257  19.687  0.00  0.00    +0.000 A 
ENDROOT
BRANCH   7  11
ATOM     11  C   UNL     1       5.230   5.808  15.617  0.00  0.00    +0.000 C 
BRANCH  11  12
ATOM     12  S   UNL     1       6.970   5.309  15.515  0.00  0.00    +0.000 S 
BRANCH  12  13
ATOM     13  C   UNL     1       7.450   5.476  17.179  0.00  0.00    +0.000 A 
ATOM     14  N   UNL     1       7.561   6.674  17.837  0.00  0.00    +0.000 NA
ATOM     15  C   UNL     1       7.953   6.322  19.039  0.00  0.00    +0.000 A 
ATOM     16  N   UNL     1       8.075   4.969  19.097  0.00  0.00    +0.000 N 
ATOM     17  N   UNL     1       7.764   4.407  17.920  0.00  0.00    +0.000 NA
ATOM     18  H   UNL     1       8.357   4.381  19.873  0.00  0.00    +0.000 HD
ENDBRANCH  12  13
ENDBRANCH  11  12
ENDBRANCH   7  11
TORSDOF 3
ENDMDL
MODEL 4
REMARK VINA RESULT:      -6.2      2.069      2.758
REMARK  Name = 
REMARK  3 active torsions:
REMARK  status: ('A' for Active; 'I' for Inactive)
REMARK    1  A    between atoms: C_7  and  C_8
REMARK    2  A    between atoms: C_8  and  S_9
REMARK    3  A    between atoms: S_9  and  C_10
REMARK                            x       y       z     vdW  Elec       q    Type
REMARK                         _______ _______ _______ _____ _____    ______ ____
ROOT
ATOM      1 BR   UNL     1       1.371   2.454  21.798  0.00  0.00    +0.000 Br
ATOM      2  C   UNL     1       2.063   3.464  20.396  0.00  0.00    +0.000 A 
ATOM      3  C   UNL     1       1.263   3.616  19.187  0.00  0.00    +0.000 A 
ATOM      4  C   UNL     1       1.707   4.331  18.133  0.00  0.00    +0.000 A 
ATOM      5  C   UNL     1       2.984   4.958  18.192  0.00  0.00    +0.000 A 
ATOM      6  N   UNL     1       3.642   5.685  17.314  0.00  0.00    +0.000 NA
ATOM      7  C   UNL     1       4.826   6.050  17.931  0.00  0.00    +0.000 A 
ATOM      8  C   UNL     1       4.888   5.487  19.193  0.00  0.00    +0.000 A 
ATOM      9  N   UNL     1       3.714   4.798  19.363  0.00  0.00    +0.000 N 
ATOM     10  C   UNL     1       3.269   4.058  20.454  0.00  0.00    +0.000 A 
ENDROOT
BRANCH   7  11
ATOM     11  C   UNL     1       5.851   6.889  17.230  0.00  0.00    +0.000 C 
BRANCH  11  12
ATOM     12  S   UNL     1       7.412   5.998  16.997  0.00  0.00    +0.000 S 
BRANCH  12  13
ATOM     13  C   UNL     1       7.027   5.035  15.600  0.00  0.00    +0.000 A 
ATOM     14  N   UNL     1       7.359   5.368  14.312  0.00  0.00    +0.000 NA
ATOM     15  C   UNL     1       6.867   4.376  13.607  0.00  0.00    +0.000 A 
ATOM     16  N   UNL     1       6.262   3.487  14.439  0.00  0.00    +0.000 N 
ATOM     17  N   UNL     1       6.347   3.888  15.717  0.00  0.00    +0.000 NA
ATOM     18  H   UNL     1       5.786   2.619  14.219  0.00  0.00    +0.000 HD
ENDBRANCH  12  13
ENDBRANCH  11  12
ENDBRANCH   7  11
TORSDOF 3
ENDMDL
MODEL 5
REMARK VINA RESULT:      -6.1      3.424      5.796
REMARK  Name = 
REMARK  3 active torsions:
REMARK  status: ('A' for Active; 'I' for Inactive)
REMARK    1  A    between atoms: C_7  and  C_8
REMARK    2  A    between atoms: C_8  and  S_9
REMARK    3  A    between atoms: S_9  and  C_10
REMARK                            x       y       z     vdW  Elec       q    Type
REMARK                         _______ _______ _______ _____ _____    ______ ____
ROOT
ATOM      1 BR   UNL     1       7.042   4.601  13.924  0.00  0.00    +0.000 Br
ATOM      2  C   UNL     1       6.371   4.823  15.646  0.00  0.00    +0.000 A 
ATOM      3  C   UNL     1       7.287   4.684  16.773  0.00  0.00    +0.000 A 
ATOM      4  C   UNL     1       6.866   4.829  18.045  0.00  0.00    +0.000 A 
ATOM      5  C   UNL     1       5.499   5.127  18.308  0.00  0.00    +0.000 A 
ATOM      6  N   UNL     1       4.843   5.302  19.436  0.00  0.00    +0.000 NA
ATOM      7  C   UNL     1       3.539   5.597  19.078  0.00  0.00    +0.000 A 
ATOM      8  C   UNL     1       3.411   5.553  17.701  0.00  0.00    +0.000 A 
ATOM      9  N   UNL     1       4.658   5.262  17.209  0.00  0.00    +0.000 N 
ATOM     10  C   UNL     1       5.081   5.109  15.892  0.00  0.00    +0.000 A 
ENDROOT
BRANCH   7  11
ATOM     11  C   UNL     1       2.482   5.856  20.107  0.00  0.00    +0.000 C 
BRANCH  11  12
ATOM     12  S   UNL     1       2.169   4.400  21.140  0.00  0.00    +0.000 S 
BRANCH  12  13
ATOM     13  C   UNL     1       2.094   3.155  19.927  0.00  0.00    +0.000 A 
ATOM     14  N   UNL     1       3.150   2.357  19.569  0.00  0.00    +0.000 NA
ATOM     15  C   UNL     1       2.644   1.591  18.630  0.00  0.00    +0.000 A 
ATOM     16  N   UNL     1       1.340   1.920  18.432  0.00  0.00    +0.000 N 
ATOM     17  N   UNL     1       0.967   2.920  19.245  0.00  0.00    +0.000 NA
ATOM     18  H   UNL     1       0.668   1.525  17.784  0.00  0.00    +0.000 HD
ENDBRANCH  12  13
ENDBRANCH  11  12
ENDBRANCH   7  11
TORSDOF 3
ENDMDL
MODEL 6
REMARK VINA RESULT:      -6.1      2.616      3.430
REMARK  Name = 
REMARK  3 active torsions:
REMARK  status: ('A' for Active; 'I' for Inactive)
REMARK    1  A    between atoms: C_7  and  C_8
REMARK    2  A    between atoms: C_8  and  S_9
REMARK    3  A    between atoms: S_9  and  C_10
REMARK                            x       y       z     vdW  Elec       q    Type
REMARK                         _______ _______ _______ _____ _____    ______ ____
ROOT
ATOM      1 BR   UNL     1       1.085   8.462  21.272  0.00  0.00    +0.000 Br
ATOM      2  C   UNL     1       1.819   7.028  20.339  0.00  0.00    +0.000 A 
ATOM      3  C   UNL     1       1.535   5.676  20.806  0.00  0.00    +0.000 A 
ATOM      4  C   UNL     1       2.039   4.593  20.179  0.00  0.00    +0.000 A 
ATOM      5  C   UNL     1       2.865   4.762  19.032  0.00  0.00    +0.000 A 
ATOM      6  N   UNL     1       3.479   3.890  18.261  0.00  0.00    +0.000 NA
ATOM      7  C   UNL     1       4.116   4.629  17.279  0.00  0.00    +0.000 A 
ATOM      8  C   UNL     1       3.907   5.979  17.500  0.00  0.00    +0.000 A 
ATOM      9  N   UNL     1       3.106   6.065  18.611  0.00  0.00    +0.000 N 
ATOM     10  C   UNL     1       2.596   7.189  19.254  0.00  0.00    +0.000 A 
ENDROOT
BRANCH   7  11
ATOM     11  C   UNL     1       4.933   3.973  16.208  0.00  0.00    +0.000 C 
BRANCH  11  12
ATOM     12  S   UNL     1       6.672   4.481  16.275  0.00  0.00    +0.000 S 
BRANCH  12  13
ATOM     13  C   UNL     1       7.022   4.652  14.579  0.00  0.00    +0.000 A 
ATOM     14  N   UNL     1       6.429   3.914  13.587  0.00  0.00    +0.000 NA
ATOM     15  C   UNL     1       6.999   4.368  12.494  0.00  0.00    +0.000 A 
ATOM     16  N   UNL     1       7.898   5.334  12.819  0.00  0.00    +0.000 N 
ATOM     17  N   UNL     1       7.935   5.530  14.146  0.00  0.00    +0.000 NA
ATOM     18  H   UNL     1       8.502   5.881  12.217  0.00  0.00    +0.000 HD
ENDBRANCH  12  13
ENDBRANCH  11  12
ENDBRANCH   7  11
TORSDOF 3
ENDMDL
MODEL 7
REMARK VINA RESULT:      -6.0      3.321      5.474
REMARK  Name = 
REMARK  3 active torsions:
REMARK  status: ('A' for Active; 'I' for Inactive)
REMARK    1  A    between atoms: C_7  and  C_8
REMARK    2  A    between atoms: C_8  and  S_9
REMARK    3  A    between atoms: S_9  and  C_10
REMARK                            x       y       z     vdW  Elec       q    Type
REMARK                         _______ _______ _______ _____ _____    ______ ____
ROOT
ATOM      1 BR   UNL     1       7.943   7.844  17.941  0.00  0.00    +0.000 Br
ATOM      2  C   UNL     1       6.664   6.528  17.634  0.00  0.00    +0.000 A 
ATOM      3  C   UNL     1       5.944   6.540  16.365  0.00  0.00    +0.000 A 
ATOM      4  C   UNL     1       5.003   5.617  16.080  0.00  0.00    +0.000 A 
ATOM      5  C   UNL     1       4.698   4.602  17.030  0.00  0.00    +0.000 A 
ATOM      6  N   UNL     1       3.831   3.612  17.003  0.00  0.00    +0.000 NA
ATOM      7  C   UNL     1       3.996   2.928  18.195  0.00  0.00    +0.000 A 
ATOM      8  C   UNL     1       4.957   3.555  18.966  0.00  0.00    +0.000 A 
ATOM      9  N   UNL     1       5.410   4.617  18.223  0.00  0.00    +0.000 N 
ATOM     10  C   UNL     1       6.379   5.567  18.531  0.00  0.00    +0.000 A 
ENDROOT
BRANCH   7  11
ATOM     11  C   UNL     1       3.167   1.725  18.531  0.00  0.00    +0.000 C 
BRANCH  11  12
ATOM     12  S   UNL     1       1.462   2.174  18.956  0.00  0.00    +0.000 S 
BRANCH  12  13
ATOM     13  C   UNL     1       1.733   3.615  19.892  0.00  0.00    +0.000 A 
ATOM     14  N   UNL     1       1.586   4.891  19.412  0.00  0.00    +0.000 NA
ATOM     15  C   UNL     1       1.900   5.640  20.444  0.00  0.00    +0.000 A 
ATOM     16  N   UNL     1       2.226   4.844  21.497  0.00  0.00    +0.000 N 
ATOM     17  N   UNL     1       2.132   3.547  21.168  0.00  0.00    +0.000 NA
ATOM     18  H   UNL     1       2.514   5.102  22.434  0.00  0.00    +0.000 HD
ENDBRANCH  12  13
ENDBRANCH  11  12
ENDBRANCH   7  11
TORSDOF 3
ENDMDL
MODEL 8
REMARK VINA RESULT:      -6.0      2.356      3.162
REMARK  Name = 
REMARK  3 active torsions:
REMARK  status: ('A' for Active; 'I' for Inactive)
REMARK    1  A    between atoms: C_7  and  C_8
REMARK    2  A    between atoms: C_8  and  S_9
REMARK    3  A    between atoms: S_9  and  C_10
REMARK                            x       y       z     vdW  Elec       q    Type
REMARK                         _______ _______ _______ _____ _____    ______ ____
ROOT
ATOM      1 BR   UNL     1       1.464   2.510  21.954  0.00  0.00    +0.000 Br
ATOM      2  C   UNL     1       2.129   3.073  20.310  0.00  0.00    +0.000 A 
ATOM      3  C   UNL     1       1.535   2.526  19.095  0.00  0.00    +0.000 A 
ATOM      4  C   UNL     1       1.973   2.889  17.872  0.00  0.00    +0.000 A 
ATOM      5  C   UNL     1       3.036   3.827  17.751  0.00  0.00    +0.000 A 
ATOM      6  N   UNL     1       3.645   4.328  16.696  0.00  0.00    +0.000 NA
ATOM      7  C   UNL     1       4.585   5.218  17.185  0.00  0.00    +0.000 A 
ATOM      8  C   UNL     1       4.561   5.212  18.568  0.00  0.00    +0.000 A 
ATOM      9  N   UNL     1       3.571   4.333  18.930  0.00  0.00    +0.000 N 
ATOM     10  C   UNL     1       3.132   3.962  20.197  0.00  0.00    +0.000 A 
ENDROOT
BRANCH   7  11
ATOM     11  C   UNL     1       5.488   5.988  16.270  0.00  0.00    +0.000 C 
BRANCH  11  12
ATOM     12  S   UNL     1       7.101   5.185  16.075  0.00  0.00    +0.000 S 
BRANCH  12  13
ATOM     13  C   UNL     1       7.046   4.757  14.389  0.00  0.00    +0.000 A 
ATOM     14  N   UNL     1       6.284   3.741  13.871  0.00  0.00    +0.000 NA
ATOM     15  C   UNL     1       6.564   3.779  12.589  0.00  0.00    +0.000 A 
ATOM     16  N   UNL     1       7.459   4.774  12.350  0.00  0.00    +0.000 N 
ATOM     17  N   UNL     1       7.786   5.409  13.485  0.00  0.00    +0.000 NA
ATOM     18  H   UNL     1       7.878   5.066  11.475  0.00  0.00    +0.000 HD
ENDBRANCH  12  13
ENDBRANCH  11  12
ENDBRANCH   7  11
TORSDOF 3
ENDMDL
MODEL 9
REMARK VINA RESULT:      -6.0      3.545      6.127
REMARK  Name = 
REMARK  3 active torsions:
REMARK  status: ('A' for Active; 'I' for Inactive)
REMARK    1  A    between atoms: C_7  and  C_8
REMARK    2  A    between atoms: C_8  and  S_9
REMARK    3  A    between atoms: S_9  and  C_10
REMARK                            x       y       z     vdW  Elec       q    Type
REMARK                         _______ _______ _______ _____ _____    ______ ____
ROOT
ATOM      1 BR   UNL     1       6.070   3.226  12.240  0.00  0.00    +0.000 Br
ATOM      2  C   UNL     1       6.098   3.972  13.945  0.00  0.00    +0.000 A 
ATOM      3  C   UNL     1       7.199   4.861  14.297  0.00  0.00    +0.000 A 
ATOM      4  C   UNL     1       7.283   5.431  15.516  0.00  0.00    +0.000 A 
ATOM      5  C   UNL     1       6.277   5.170  16.489  0.00  0.00    +0.000 A 
ATOM      6  N   UNL     1       6.133   5.582  17.731  0.00  0.00    +0.000 NA
ATOM      7  C   UNL     1       4.949   5.027  18.183  0.00  0.00    +0.000 A 
ATOM      8  C   UNL     1       4.398   4.230  17.195  0.00  0.00    +0.000 A 
ATOM      9  N   UNL     1       5.238   4.325  16.114  0.00  0.00    +0.000 N 
ATOM     10  C   UNL     1       5.145   3.726  14.862  0.00  0.00    +0.000 A 
ENDROOT
BRANCH   7  11
ATOM     11  C   UNL     1       4.448   5.270  19.574  0.00  0.00    +0.000 C 
BRANCH  11  12
ATOM     12  S   UNL     1       2.729   5.845  19.587  0.00  0.00    +0.000 S 
BRANCH  12  13
ATOM     13  C   UNL     1       1.932   4.462  20.279  0.00  0.00    +0.000 A 
ATOM     14  N   UNL     1       2.252   3.910  21.493  0.00  0.00    +0.000 NA
ATOM     15  C   UNL     1       1.416   2.903  21.595  0.00  0.00    +0.000 A 
ATOM     16  N   UNL     1       0.631   2.852  20.486  0.00  0.00    +0.000 N 
ATOM     17  N   UNL     1       0.946   3.834  19.628  0.00  0.00    +0.000 NA
ATOM     18  H   UNL     1      -0.109   2.201  20.250  0.00  0.00    +0.000 HD
ENDBRANCH  12  13
ENDBRANCH  11  12
ENDBRANCH   7  11
TORSDOF 3
ENDMDL
