MODEL 1
REMARK VINA RESULT:      -7.0      0.000      0.000
REMARK  Name = 
REMARK  3 active torsions:
REMARK  status: ('A' for Active; 'I' for Inactive)
REMARK    1  A    between atoms: C_1  and  O_2
REMARK    2  A    between atoms: O_2  and  C_3
REMARK    3  A    between atoms: C_6  and  N_7
REMARK                            x       y       z     vdW  Elec       q    Type
REMARK                         _______ _______ _______ _____ _____    ______ ____
ROOT
ATOM      1  N   UNL     1       2.465   8.067  18.836  0.00  0.00    +0.000 N 
ATOM      2  C   UNL     1       2.642   6.702  18.756  0.00  0.00    +0.000 C 
ATOM      3  O   UNL     1       1.978   5.846  19.332  0.00  0.00    +0.000 OA
ATOM      4  N   UNL     1       3.687   6.352  17.946  0.00  0.00    +0.000 N 
ATOM      5  C   UNL     1       4.125   5.024  17.538  0.00  0.00    +0.000 C 
ATOM      6  C   UNL     1       5.265   5.786  16.793  0.00  0.00    +0.000 C 
ATOM      7  C   UNL     1       5.625   5.292  15.392  0.00  0.00    +0.000 C 
ATOM      8  C   UNL     1       6.568   4.094  15.486  0.00  0.00    +0.000 C 
ATOM      9  N   UNL     1       7.768   4.409  16.263  0.00  0.00    +0.000 NA
ATOM     10  C   UNL     1       7.420   4.806  17.629  0.00  0.00    +0.000 C 
ATOM     11  C   UNL     1       6.528   6.042  17.634  0.00  0.00    +0.000 C 
ATOM     12  C   UNL     1       4.298   6.998  16.799  0.00  0.00    +0.000 C 
ATOM     13  H   UNL     1       3.144   8.619  18.338  0.00  0.00    +0.000 HD
ATOM     14  H   UNL     1       8.271   5.175  15.812  0.00  0.00    +0.000 HD
ENDROOT
BRANCH   1  18
ATOM     15  C   UNL     1      -0.428  10.184  21.052  0.00  0.00    +0.000 A 
ATOM     16  C   UNL     1      -0.284  10.437  19.693  0.00  0.00    +0.000 A 
ATOM     17  C   UNL     1       0.647   9.728  18.927  0.00  0.00    +0.000 A 
ATOM     18  C   UNL     1       1.460   8.768  19.522  0.00  0.00    +0.000 A 
ATOM     19  C   UNL     1       1.299   8.497  20.889  0.00  0.00    +0.000 A 
ATOM     20  C   UNL     1       0.364   9.209  21.653  0.00  0.00    +0.000 A 
BRANCH  15  22
ATOM     21  C   UNL     1      -1.205  11.081  23.101  0.00  0.00    +0.000 C 
ATOM     22  O   UNL     1      -1.336  10.985  21.691  0.00  0.00    +0.000 OA
ENDBRANCH  15  22
ENDBRANCH   1  18
TORSDOF 2
ENDMDL
MODEL 2
REMARK VINA RESULT:      -6.8      0.138      1.082
REMARK  Name = 
REMARK  3 active torsions:
REMARK  status: ('A' for Active; 'I' for Inactive)
REMARK    1  A    between atoms: C_1  and  O_2
REMARK    2  A    between atoms: O_2  and  C_3
REMARK    3  A    between atoms: C_6  and  N_7
REMARK                            x       y       z     vdW  Elec       q    Type
REMARK                         _______ _______ _______ _____ _____    ______ ____
ROOT
ATOM      1  N   UNL     1       2.542   8.060  18.982  0.00  0.00    +0.000 N 
ATOM      2  C   UNL     1       2.681   6.694  18.868  0.00  0.00    +0.000 C 
ATOM      3  O   UNL     1       2.010   5.842  19.443  0.00  0.00    +0.000 OA
ATOM      4  N   UNL     1       3.694   6.336  18.022  0.00  0.00    +0.000 N 
ATOM      5  C   UNL     1       4.087   5.007  17.573  0.00  0.00    +0.000 C 
ATOM      6  C   UNL     1       5.226   5.756  16.815  0.00  0.00    +0.000 C 
ATOM      7  C   UNL     1       5.536   5.285  15.395  0.00  0.00    +0.000 C 
ATOM      8  C   UNL     1       6.450   4.062  15.437  0.00  0.00    +0.000 C 
ATOM      9  N   UNL     1       7.678   4.329  16.188  0.00  0.00    +0.000 NA
ATOM     10  C   UNL     1       7.376   4.703  17.571  0.00  0.00    +0.000 C 
ATOM     11  C   UNL     1       6.517   5.961  17.627  0.00  0.00    +0.000 C 
ATOM     12  C   UNL     1       4.291   6.992  16.874  0.00  0.00    +0.000 C 
ATOM     13  H   UNL     1       3.221   8.607  18.478  0.00  0.00    +0.000 HD
ATOM     14  H   UNL     1       8.188   5.092  15.740  0.00  0.00    +0.000 HD
ENDROOT
BRANCH   1  18
ATOM     15  C   UNL     1      -0.481  10.191  21.004  0.00  0.00    +0.000 A 
ATOM     16  C   UNL     1       0.252   9.226  21.686  0.00  0.00    +0.000 A 
ATOM     17  C   UNL     1       1.280   8.525  21.048  0.00  0.00    +0.000 A 
ATOM     18  C   UNL     1       1.574   8.771  19.710  0.00  0.00    +0.000 A 
ATOM     19  C   UNL     1       0.850   9.762  19.030  0.00  0.00    +0.000 A 
ATOM     20  C   UNL     1      -0.180  10.463  19.672  0.00  0.00    +0.000 A 
BRANCH  15  22
ATOM     21  C   UNL     1      -1.172  11.136  23.063  0.00  0.00    +0.000 C 
ATOM     22  O   UNL     1      -1.491  10.762  21.731  0.00  0.00    +0.000 OA
ENDBRANCH  15  22
ENDBRANCH   1  18
TORSDOF 2
ENDMDL
MODEL 3
REMARK VINA RESULT:      -6.8      2.990      3.813
REMARK  Name = 
REMARK  3 active torsions:
REMARK  status: ('A' for Active; 'I' for Inactive)
REMARK    1  A    between atoms: C_1  and  O_2
REMARK    2  A    between atoms: O_2  and  C_3
REMARK    3  A    between atoms: C_6  and  N_7
REMARK                            x       y       z     vdW  Elec       q    Type
REMARK                         _______ _______ _______ _____ _____    ______ ____
ROOT
ATOM      1  N   UNL     1       0.835   7.468  21.078  0.00  0.00    +0.000 N 
ATOM      2  C   UNL     1       1.805   7.194  20.138  0.00  0.00    +0.000 C 
ATOM      3  O   UNL     1       2.354   8.005  19.399  0.00  0.00    +0.000 OA
ATOM      4  N   UNL     1       2.121   5.865  20.078  0.00  0.00    +0.000 N 
ATOM      5  C   UNL     1       3.151   5.202  19.290  0.00  0.00    +0.000 C 
ATOM      6  C   UNL     1       2.585   3.890  19.916  0.00  0.00    +0.000 C 
ATOM      7  C   UNL     1       3.604   2.845  20.369  0.00  0.00    +0.000 C 
ATOM      8  C   UNL     1       4.059   2.008  19.175  0.00  0.00    +0.000 C 
ATOM      9  N   UNL     1       2.928   1.383  18.488  0.00  0.00    +0.000 NA
ATOM     10  C   UNL     1       1.996   2.395  17.988  0.00  0.00    +0.000 C 
ATOM     11  C   UNL     1       1.435   3.240  19.126  0.00  0.00    +0.000 C 
ATOM     12  C   UNL     1       2.071   4.799  21.062  0.00  0.00    +0.000 C 
ATOM     13  H   UNL     1       0.457   6.665  21.555  0.00  0.00    +0.000 HD
ATOM     14  H   UNL     1       2.436   0.769  19.138  0.00  0.00    +0.000 HD
ENDROOT
BRANCH   1  18
ATOM     15  C   UNL     1      -0.830  11.224  22.019  0.00  0.00    +0.000 A 
ATOM     16  C   UNL     1      -0.548  10.323  23.040  0.00  0.00    +0.000 A 
ATOM     17  C   UNL     1       0.032   9.082  22.760  0.00  0.00    +0.000 A 
ATOM     18  C   UNL     1       0.319   8.721  21.446  0.00  0.00    +0.000 A 
ATOM     19  C   UNL     1       0.056   9.640  20.419  0.00  0.00    +0.000 A 
ATOM     20  C   UNL     1      -0.525  10.884  20.704  0.00  0.00    +0.000 A 
BRANCH  15  22
ATOM     21  C   UNL     1      -2.612  12.218  23.219  0.00  0.00    +0.000 C 
ATOM     22  O   UNL     1      -1.444  12.377  22.427  0.00  0.00    +0.000 OA
ENDBRANCH  15  22
ENDBRANCH   1  18
TORSDOF 2
ENDMDL
MODEL 4
REMARK VINA RESULT:      -6.7      0.862      1.493
REMARK  Name = 
REMARK  3 active torsions:
REMARK  status: ('A' for Active; 'I' for Inactive)
REMARK    1  A    between atoms: C_1  and  O_2
REMARK    2  A    between atoms: O_2  and  C_3
REMARK    3  A    between atoms: C_6  and  N_7
REMARK                            x       y       z     vdW  Elec       q    Type
REMARK                         _______ _______ _______ _____ _____    ______ ____
ROOT
ATOM      1  N   UNL     1       2.460   8.369  18.428  0.00  0.00    +0.000 N 
ATOM      2  C   UNL     1       2.659   7.013  18.574  0.00  0.00    +0.000 C 
ATOM      3  O   UNL     1       2.002   6.251  19.278  0.00  0.00    +0.000 OA
ATOM      4  N   UNL     1       3.716   6.553  17.838  0.00  0.00    +0.000 N 
ATOM      5  C   UNL     1       4.179   5.184  17.656  0.00  0.00    +0.000 C 
ATOM      6  C   UNL     1       5.314   5.833  16.804  0.00  0.00    +0.000 C 
ATOM      7  C   UNL     1       5.694   5.123  15.505  0.00  0.00    +0.000 C 
ATOM      8  C   UNL     1       6.655   3.974  15.800  0.00  0.00    +0.000 C 
ATOM      9  N   UNL     1       7.843   4.432  16.522  0.00  0.00    +0.000 NA
ATOM     10  C   UNL     1       7.476   5.040  17.803  0.00  0.00    +0.000 C 
ATOM     11  C   UNL     1       6.565   6.245  17.600  0.00  0.00    +0.000 C 
ATOM     12  C   UNL     1       4.327   7.014  16.606  0.00  0.00    +0.000 C 
ATOM     13  H   UNL     1       3.135   8.845  17.851  0.00  0.00    +0.000 HD
ATOM     14  H   UNL     1       8.337   5.122  15.956  0.00  0.00    +0.000 HD
ENDROOT
BRANCH   1  18
ATOM     15  C   UNL     1      -0.728  10.673  19.945  0.00  0.00    +0.000 A 
ATOM     16  C   UNL     1       0.113  10.000  20.825  0.00  0.00    +0.000 A 
ATOM     17  C   UNL     1       1.196   9.253  20.351  0.00  0.00    +0.000 A 
ATOM     18  C   UNL     1       1.438   9.156  18.984  0.00  0.00    +0.000 A 
ATOM     19  C   UNL     1       0.603   9.853  18.098  0.00  0.00    +0.000 A 
ATOM     20  C   UNL     1      -0.482  10.602  18.576  0.00  0.00    +0.000 A 
BRANCH  15  22
ATOM     21  C   UNL     1      -2.249  12.486  19.879  0.00  0.00    +0.000 C 
ATOM     22  O   UNL     1      -1.778  11.320  20.538  0.00  0.00    +0.000 OA
ENDBRANCH  15  22
ENDBRANCH   1  18
TORSDOF 2
ENDMDL
MODEL 5
REMARK VINA RESULT:      -6.7      3.023      3.771
REMARK  Name = 
REMARK  3 active torsions:
REMARK  status: ('A' for Active; 'I' for Inactive)
REMARK    1  A    between atoms: C_1  and  O_2
REMARK    2  A    between atoms: O_2  and  C_3
REMARK    3  A    between atoms: C_6  and  N_7
REMARK                            x       y       z     vdW  Elec       q    Type
REMARK                         _______ _______ _______ _____ _____    ______ ____
ROOT
ATOM      1  N   UNL     1       0.916   7.634  21.084  0.00  0.00    +0.000 N 
ATOM      2  C   UNL     1       1.786   7.318  20.064  0.00  0.00    +0.000 C 
ATOM      3  O   UNL     1       2.259   8.096  19.241  0.00  0.00    +0.000 OA
ATOM      4  N   UNL     1       2.094   5.985  20.026  0.00  0.00    +0.000 N 
ATOM      5  C   UNL     1       3.039   5.286  19.166  0.00  0.00    +0.000 C 
ATOM      6  C   UNL     1       2.537   4.003  19.899  0.00  0.00    +0.000 C 
ATOM      7  C   UNL     1       3.595   2.973  20.289  0.00  0.00    +0.000 C 
ATOM      8  C   UNL     1       3.928   2.085  19.091  0.00  0.00    +0.000 C 
ATOM      9  N   UNL     1       2.733   1.439  18.546  0.00  0.00    +0.000 NA
ATOM     10  C   UNL     1       1.755   2.435  18.101  0.00  0.00    +0.000 C 
ATOM     11  C   UNL     1       1.312   3.328  19.255  0.00  0.00    +0.000 C 
ATOM     12  C   UNL     1       2.141   4.961  21.053  0.00  0.00    +0.000 C 
ATOM     13  H   UNL     1       0.587   6.853  21.628  0.00  0.00    +0.000 HD
ATOM     14  H   UNL     1       2.307   0.854  19.267  0.00  0.00    +0.000 HD
ENDROOT
BRANCH   1  18
ATOM     15  C   UNL     1      -0.483  11.395  22.377  0.00  0.00    +0.000 A 
ATOM     16  C   UNL     1       0.307  11.310  21.235  0.00  0.00    +0.000 A 
ATOM     17  C   UNL     1       0.760  10.074  20.767  0.00  0.00    +0.000 A 
ATOM     18  C   UNL     1       0.441   8.904  21.451  0.00  0.00    +0.000 A 
ATOM     19  C   UNL     1      -0.375   8.987  22.589  0.00  0.00    +0.000 A 
ATOM     20  C   UNL     1      -0.827  10.229  23.056  0.00  0.00    +0.000 A 
BRANCH  15  22
ATOM     21  C   UNL     1      -0.283  13.715  21.952  0.00  0.00    +0.000 C 
ATOM     22  O   UNL     1      -0.811  12.669  22.753  0.00  0.00    +0.000 OA
ENDBRANCH  15  22
ENDBRANCH   1  18
TORSDOF 2
ENDMDL
MODEL 6
REMARK VINA RESULT:      -6.7      2.279      3.174
REMARK  Name = 
REMARK  3 active torsions:
REMARK  status: ('A' for Active; 'I' for Inactive)
REMARK    1  A    between atoms: C_1  and  O_2
REMARK    2  A    between atoms: O_2  and  C_3
REMARK    3  A    between atoms: C_6  and  N_7
REMARK                            x       y       z     vdW  Elec       q    Type
REMARK                         _______ _______ _______ _____ _____    ______ ____
ROOT
ATOM      1  N   UNL     1       0.898   8.902  19.297  0.00  0.00    +0.000 N 
ATOM      2  C   UNL     1       1.875   8.694  18.348  0.00  0.00    +0.000 C 
ATOM      3  O   UNL     1       2.183   9.459  17.438  0.00  0.00    +0.000 OA
ATOM      4  N   UNL     1       2.510   7.492  18.498  0.00  0.00    +0.000 N 
ATOM      5  C   UNL     1       3.647   6.957  17.761  0.00  0.00    +0.000 C 
ATOM      6  C   UNL     1       3.443   5.690  18.649  0.00  0.00    +0.000 C 
ATOM      7  C   UNL     1       4.703   5.023  19.198  0.00  0.00    +0.000 C 
ATOM      8  C   UNL     1       5.315   4.108  18.138  0.00  0.00    +0.000 C 
ATOM      9  N   UNL     1       4.353   3.114  17.659  0.00  0.00    +0.000 NA
ATOM     10  C   UNL     1       3.183   3.762  17.062  0.00  0.00    +0.000 C 
ATOM     11  C   UNL     1       2.466   4.648  18.075  0.00  0.00    +0.000 C 
ATOM     12  C   UNL     1       2.755   6.650  19.654  0.00  0.00    +0.000 C 
ATOM     13  H   UNL     1       0.746   8.137  19.934  0.00  0.00    +0.000 HD
ATOM     14  H   UNL     1       4.049   2.534  18.443  0.00  0.00    +0.000 HD
ENDROOT
BRANCH   1  18
ATOM     15  C   UNL     1      -1.661  12.213  19.803  0.00  0.00    +0.000 A 
ATOM     16  C   UNL     1      -0.551  12.070  20.628  0.00  0.00    +0.000 A 
ATOM     17  C   UNL     1       0.331  10.998  20.464  0.00  0.00    +0.000 A 
ATOM     18  C   UNL     1       0.099  10.043  19.478  0.00  0.00    +0.000 A 
ATOM     19  C   UNL     1      -1.008  10.200  18.631  0.00  0.00    +0.000 A 
ATOM     20  C   UNL     1      -1.890  11.276  18.799  0.00  0.00    +0.000 A 
BRANCH  15  22
ATOM     21  C   UNL     1      -3.783  12.960  20.543  0.00  0.00    +0.000 C 
ATOM     22  O   UNL     1      -2.468  13.276  20.108  0.00  0.00    +0.000 OA
ENDBRANCH  15  22
ENDBRANCH   1  18
TORSDOF 2
ENDMDL
MODEL 7
REMARK VINA RESULT:      -6.5      2.249      3.007
REMARK  Name = 
REMARK  3 active torsions:
REMARK  status: ('A' for Active; 'I' for Inactive)
REMARK    1  A    between atoms: C_1  and  O_2
REMARK    2  A    between atoms: O_2  and  C_3
REMARK    3  A    between atoms: C_6  and  N_7
REMARK                            x       y       z     vdW  Elec       q    Type
REMARK                         _______ _______ _______ _____ _____    ______ ____
ROOT
ATOM      1  N   UNL     1       0.967   8.918  19.346  0.00  0.00    +0.000 N 
ATOM      2  C   UNL     1       1.898   8.700  18.353  0.00  0.00    +0.000 C 
ATOM      3  O   UNL     1       2.151   9.448  17.413  0.00  0.00    +0.000 OA
ATOM      4  N   UNL     1       2.553   7.508  18.496  0.00  0.00    +0.000 N 
ATOM      5  C   UNL     1       3.658   6.969  17.714  0.00  0.00    +0.000 C 
ATOM      6  C   UNL     1       3.514   5.719  18.638  0.00  0.00    +0.000 C 
ATOM      7  C   UNL     1       4.807   5.077  19.137  0.00  0.00    +0.000 C 
ATOM      8  C   UNL     1       5.375   4.146  18.068  0.00  0.00    +0.000 C 
ATOM      9  N   UNL     1       4.402   3.132  17.660  0.00  0.00    +0.000 NA
ATOM     10  C   UNL     1       3.196   3.754  17.109  0.00  0.00    +0.000 C 
ATOM     11  C   UNL     1       2.521   4.655  18.137  0.00  0.00    +0.000 C 
ATOM     12  C   UNL     1       2.866   6.694  19.656  0.00  0.00    +0.000 C 
ATOM     13  H   UNL     1       0.856   8.165  20.006  0.00  0.00    +0.000 HD
ATOM     14  H   UNL     1       4.144   2.566  18.469  0.00  0.00    +0.000 HD
ENDROOT
BRANCH   1  18
ATOM     15  C   UNL     1      -1.272  12.433  19.979  0.00  0.00    +0.000 A 
ATOM     16  C   UNL     1      -1.632  11.564  18.954  0.00  0.00    +0.000 A 
ATOM     17  C   UNL     1      -0.925  10.377  18.740  0.00  0.00    +0.000 A 
ATOM     18  C   UNL     1       0.166  10.054  19.542  0.00  0.00    +0.000 A 
ATOM     19  C   UNL     1       0.515  10.919  20.590  0.00  0.00    +0.000 A 
ATOM     20  C   UNL     1      -0.196  12.109  20.802  0.00  0.00    +0.000 A 
BRANCH  15  22
ATOM     21  C   UNL     1      -3.119  13.566  20.933  0.00  0.00    +0.000 C 
ATOM     22  O   UNL     1      -2.013  13.582  20.042  0.00  0.00    +0.000 OA
ENDBRANCH  15  22
ENDBRANCH   1  18
TORSDOF 2
ENDMDL
MODEL 8
REMARK VINA RESULT:      -6.5      2.520      3.260
REMARK  Name = 
REMARK  3 active torsions:
REMARK  status: ('A' for Active; 'I' for Inactive)
REMARK    1  A    between atoms: C_1  and  O_2
REMARK    2  A    between atoms: O_2  and  C_3
REMARK    3  A    between atoms: C_6  and  N_7
REMARK                            x       y       z     vdW  Elec       q    Type
REMARK                         _______ _______ _______ _____ _____    ______ ____
ROOT
ATOM      1  N   UNL     1       1.648   9.101  18.509  0.00  0.00    +0.000 N 
ATOM      2  C   UNL     1       1.836   8.228  19.558  0.00  0.00    +0.000 C 
ATOM      3  O   UNL     1       1.551   8.430  20.735  0.00  0.00    +0.000 OA
ATOM      4  N   UNL     1       2.409   7.048  19.168  0.00  0.00    +0.000 N 
ATOM      5  C   UNL     1       2.676   5.854  19.957  0.00  0.00    +0.000 C 
ATOM      6  C   UNL     1       3.310   5.301  18.642  0.00  0.00    +0.000 C 
ATOM      7  C   UNL     1       3.012   3.844  18.292  0.00  0.00    +0.000 C 
ATOM      8  C   UNL     1       3.951   2.919  19.063  0.00  0.00    +0.000 C 
ATOM      9  N   UNL     1       5.357   3.247  18.819  0.00  0.00    +0.000 NA
ATOM     10  C   UNL     1       5.653   4.620  19.232  0.00  0.00    +0.000 C 
ATOM     11  C   UNL     1       4.804   5.624  18.460  0.00  0.00    +0.000 C 
ATOM     12  C   UNL     1       2.395   6.319  17.914  0.00  0.00    +0.000 C 
ATOM     13  H   UNL     1       1.996   8.785  17.617  0.00  0.00    +0.000 HD
ATOM     14  H   UNL     1       5.559   3.147  17.824  0.00  0.00    +0.000 HD
ENDROOT
BRANCH   1  18
ATOM     15  C   UNL     1      -0.333  12.816  18.709  0.00  0.00    +0.000 A 
ATOM     16  C   UNL     1       1.057  12.777  18.722  0.00  0.00    +0.000 A 
ATOM     17  C   UNL     1       1.741  11.561  18.627  0.00  0.00    +0.000 A 
ATOM     18  C   UNL     1       1.036  10.365  18.536  0.00  0.00    +0.000 A 
ATOM     19  C   UNL     1      -0.366  10.406  18.499  0.00  0.00    +0.000 A 
ATOM     20  C   UNL     1      -1.048  11.626  18.594  0.00  0.00    +0.000 A 
BRANCH  15  22
ATOM     21  C   UNL     1       0.049  15.143  18.916  0.00  0.00    +0.000 C 
ATOM     22  O   UNL     1      -0.872  14.064  18.863  0.00  0.00    +0.000 OA
ENDBRANCH  15  22
ENDBRANCH   1  18
TORSDOF 2
ENDMDL
MODEL 9
REMARK VINA RESULT:      -6.5      2.506      3.317
REMARK  Name = 
REMARK  3 active torsions:
REMARK  status: ('A' for Active; 'I' for Inactive)
REMARK    1  A    between atoms: C_1  and  O_2
REMARK    2  A    between atoms: O_2  and  C_3
REMARK    3  A    between atoms: C_6  and  N_7
REMARK                            x       y       z     vdW  Elec       q    Type
REMARK                         _______ _______ _______ _____ _____    ______ ____
ROOT
ATOM      1  N   UNL     1       1.668   9.181  18.535  0.00  0.00    +0.000 N 
ATOM      2  C   UNL     1       1.832   8.274  19.560  0.00  0.00    +0.000 C 
ATOM      3  O   UNL     1       1.527   8.441  20.737  0.00  0.00    +0.000 OA
ATOM      4  N   UNL     1       2.406   7.105  19.143  0.00  0.00    +0.000 N 
ATOM      5  C   UNL     1       2.653   5.884  19.898  0.00  0.00    +0.000 C 
ATOM      6  C   UNL     1       3.307   5.370  18.578  0.00  0.00    +0.000 C 
ATOM      7  C   UNL     1       3.009   3.926  18.177  0.00  0.00    +0.000 C 
ATOM      8  C   UNL     1       3.929   2.972  18.934  0.00  0.00    +0.000 C 
ATOM      9  N   UNL     1       5.341   3.300  18.726  0.00  0.00    +0.000 NA
ATOM     10  C   UNL     1       5.636   4.658  19.187  0.00  0.00    +0.000 C 
ATOM     11  C   UNL     1       4.806   5.690  18.433  0.00  0.00    +0.000 C 
ATOM     12  C   UNL     1       2.411   6.416  17.866  0.00  0.00    +0.000 C 
ATOM     13  H   UNL     1       2.030   8.892  17.641  0.00  0.00    +0.000 HD
ATOM     14  H   UNL     1       5.560   3.231  17.732  0.00  0.00    +0.000 HD
ENDROOT
BRANCH   1  18
ATOM     15  C   UNL     1      -0.013  13.047  18.579  0.00  0.00    +0.000 A 
ATOM     16  C   UNL     1      -0.847  11.935  18.592  0.00  0.00    +0.000 A 
ATOM     17  C   UNL     1      -0.317  10.641  18.609  0.00  0.00    +0.000 A 
ATOM     18  C   UNL     1       1.061  10.447  18.592  0.00  0.00    +0.000 A 
ATOM     19  C   UNL     1       1.903  11.569  18.601  0.00  0.00    +0.000 A 
ATOM     20  C   UNL     1       1.368  12.864  18.586  0.00  0.00    +0.000 A 
BRANCH  15  22
ATOM     21  C   UNL     1       0.089  15.391  18.897  0.00  0.00    +0.000 C 
ATOM     22  O   UNL     1      -0.662  14.249  18.509  0.00  0.00    +0.000 OA
ENDBRANCH  15  22
ENDBRANCH   1  18
TORSDOF 2
ENDMDL
