MODEL 1
REMARK VINA RESULT:      -7.1      0.000      0.000
REMARK  Name = 
REMARK  8 active torsions:
REMARK  status: ('A' for Active; 'I' for Inactive)
REMARK    1  A    between atoms: C_1  and  C_2
REMARK    2  A    between atoms: C_2  and  C_3
REMARK    3  A    between atoms: C_2  and  N_4
REMARK    4  A    between atoms: N_4  and  C_5
REMARK    5  A    between atoms: C_10  and  N_11
REMARK    6  A    between atoms: C_14  and  O_15
REMARK    7  A    between atoms: O_15  and  C_16
REMARK    8  A    between atoms: N_28  and  C_29
REMARK                            x       y       z     vdW  Elec       q    Type
REMARK                         _______ _______ _______ _____ _____    ______ ____
ROOT
ATOM      1  C   UNL     1      -0.592  11.397  18.489  0.00  0.00    +0.000 A 
ATOM      2  N   UNL     1      -0.743  12.740  18.434  0.00  0.00    +0.000 NA
ATOM      3  C   UNL     1       0.307  13.499  18.814  0.00  0.00    +0.000 A 
ATOM      4  C   UNL     1       1.527  12.940  19.167  0.00  0.00    +0.000 A 
ATOM      5  N   UNL     1       1.716  11.588  19.196  0.00  0.00    +0.000 NA
ATOM      6  C   UNL     1       0.652  10.801  18.869  0.00  0.00    +0.000 A 
ATOM      7  C   UNL     1       2.670  13.825  19.589  0.00  0.00    +0.000 C 
ATOM      8  C   UNL     1       2.473  15.283  19.143  0.00  0.00    +0.000 C 
ATOM      9  N   UNL     1       1.135  15.754  19.526  0.00  0.00    +0.000 NA
ATOM     10  C   UNL     1       0.966  17.184  19.277  0.00  0.00    +0.000 C 
ATOM     11  C   UNL     1       0.112  14.994  18.781  0.00  0.00    +0.000 C 
ENDROOT
BRANCH   6  12
ATOM     12  N   UNL     1       0.833   9.421  18.925  0.00  0.00    +0.000 N 
ATOM     13  C   UNL     1       0.633   8.763  20.208  0.00  0.00    +0.000 C 
ATOM     14  C   UNL     1       1.936   8.129  20.664  0.00  0.00    +0.000 C 
ATOM     15  C   UNL     1       2.458   7.140  19.612  0.00  0.00    +0.000 C 
ATOM     16  C   UNL     1       2.705   7.919  18.319  0.00  0.00    +0.000 C 
ATOM     17  C   UNL     1       1.459   8.660  17.852  0.00  0.00    +0.000 C 
BRANCH  15  18
ATOM     18  O   UNL     1       1.531   6.070  19.335  0.00  0.00    +0.000 OA
BRANCH  18  19
ATOM     19  C   UNL     1       2.078   4.849  19.025  0.00  0.00    +0.000 A 
ATOM     20  C   UNL     1       2.968   4.172  19.859  0.00  0.00    +0.000 A 
ATOM     21  C   UNL     1       3.500   2.943  19.492  0.00  0.00    +0.000 A 
ATOM     22 CL   UNL     1       4.611   2.168  20.554  0.00  0.00    +0.000 Cl
ATOM     23  C   UNL     1       3.149   2.356  18.284  0.00  0.00    +0.000 A 
ATOM     24  C   UNL     1       2.238   3.005  17.447  0.00  0.00    +0.000 A 
ATOM     25  C   UNL     1       1.703   4.240  17.822  0.00  0.00    +0.000 A 
ATOM     26  F   UNL     1       0.841   4.844  16.990  0.00  0.00    +0.000 F 
ENDBRANCH  18  19
ENDBRANCH  15  18
ENDBRANCH   6  12
BRANCH   1  27
ATOM     27  N   UNL     1      -1.761  10.628  18.345  0.00  0.00    +0.000 N 
ATOM     28  H   UNL     1      -1.548   9.644  18.383  0.00  0.00    +0.000 HD
BRANCH  27  30
ATOM     29  C   UNL     1      -2.703   9.849  16.249  0.00  0.00    +0.000 C 
ATOM     30  C   UNL     1      -2.652  11.004  17.253  0.00  0.00    +0.000 C 
ATOM     31  C   UNL     1      -4.048  11.278  17.801  0.00  0.00    +0.000 C 
ENDBRANCH  27  30
ENDBRANCH   1  27
TORSDOF 5
ENDMDL
MODEL 2
REMARK VINA RESULT:      -7.1      1.175      1.253
REMARK  Name = 
REMARK  8 active torsions:
REMARK  status: ('A' for Active; 'I' for Inactive)
REMARK    1  A    between atoms: C_1  and  C_2
REMARK    2  A    between atoms: C_2  and  C_3
REMARK    3  A    between atoms: C_2  and  N_4
REMARK    4  A    between atoms: N_4  and  C_5
REMARK    5  A    between atoms: C_10  and  N_11
REMARK    6  A    between atoms: C_14  and  O_15
REMARK    7  A    between atoms: O_15  and  C_16
REMARK    8  A    between atoms: N_28  and  C_29
REMARK                            x       y       z     vdW  Elec       q    Type
REMARK                         _______ _______ _______ _____ _____    ______ ____
ROOT
ATOM      1  C   UNL     1      -0.705  11.572  18.547  0.00  0.00    +0.000 A 
ATOM      2  N   UNL     1      -0.890  12.912  18.564  0.00  0.00    +0.000 NA
ATOM      3  C   UNL     1       0.185  13.682  18.838  0.00  0.00    +0.000 A 
ATOM      4  C   UNL     1       1.451  13.141  19.012  0.00  0.00    +0.000 A 
ATOM      5  N   UNL     1       1.669  11.794  18.965  0.00  0.00    +0.000 NA
ATOM      6  C   UNL     1       0.588  10.993  18.744  0.00  0.00    +0.000 A 
ATOM      7  C   UNL     1       2.620  14.039  19.322  0.00  0.00    +0.000 C 
ATOM      8  C   UNL     1       2.339  15.506  18.961  0.00  0.00    +0.000 C 
ATOM      9  N   UNL     1       1.051  15.930  19.528  0.00  0.00    +0.000 NA
ATOM     10  C   UNL     1       0.824  17.363  19.358  0.00  0.00    +0.000 C 
ATOM     11  C   UNL     1      -0.042  15.172  18.888  0.00  0.00    +0.000 C 
ENDROOT
BRANCH   6  12
ATOM     12  N   UNL     1       0.802   9.617  18.723  0.00  0.00    +0.000 N 
ATOM     13  C   UNL     1       0.633   8.886  19.970  0.00  0.00    +0.000 C 
ATOM     14  C   UNL     1       1.955   8.260  20.377  0.00  0.00    +0.000 C 
ATOM     15  C   UNL     1       2.489   7.343  19.267  0.00  0.00    +0.000 C 
ATOM     16  C   UNL     1       2.702   8.196  18.017  0.00  0.00    +0.000 C 
ATOM     17  C   UNL     1       1.433   8.931  17.603  0.00  0.00    +0.000 C 
BRANCH  15  18
ATOM     18  O   UNL     1       1.584   6.267  18.942  0.00  0.00    +0.000 OA
BRANCH  18  19
ATOM     19  C   UNL     1       2.157   5.076  18.569  0.00  0.00    +0.000 A 
ATOM     20  C   UNL     1       3.261   4.986  17.722  0.00  0.00    +0.000 A 
ATOM     21  C   UNL     1       3.795   3.753  17.369  0.00  0.00    +0.000 A 
ATOM     22 CL   UNL     1       5.144   3.707  16.302  0.00  0.00    +0.000 Cl
ATOM     23  C   UNL     1       3.243   2.579  17.862  0.00  0.00    +0.000 A 
ATOM     24  C   UNL     1       2.154   2.649  18.734  0.00  0.00    +0.000 A 
ATOM     25  C   UNL     1       1.622   3.891  19.089  0.00  0.00    +0.000 A 
ATOM     26  F   UNL     1       0.567   3.924  19.918  0.00  0.00    +0.000 F 
ENDBRANCH  18  19
ENDBRANCH  15  18
ENDBRANCH   6  12
BRANCH   1  27
ATOM     27  N   UNL     1      -1.867  10.780  18.521  0.00  0.00    +0.000 N 
ATOM     28  H   UNL     1      -1.648   9.817  18.718  0.00  0.00    +0.000 HD
BRANCH  27  30
ATOM     29  C   UNL     1      -2.330   9.997  16.271  0.00  0.00    +0.000 C 
ATOM     30  C   UNL     1      -2.753  10.968  17.377  0.00  0.00    +0.000 C 
ATOM     31  C   UNL     1      -4.194  10.687  17.792  0.00  0.00    +0.000 C 
ENDBRANCH  27  30
ENDBRANCH   1  27
TORSDOF 5
ENDMDL
MODEL 3
REMARK VINA RESULT:      -7.1      0.990      1.062
REMARK  Name = 
REMARK  8 active torsions:
REMARK  status: ('A' for Active; 'I' for Inactive)
REMARK    1  A    between atoms: C_1  and  C_2
REMARK    2  A    between atoms: C_2  and  C_3
REMARK    3  A    between atoms: C_2  and  N_4
REMARK    4  A    between atoms: N_4  and  C_5
REMARK    5  A    between atoms: C_10  and  N_11
REMARK    6  A    between atoms: C_14  and  O_15
REMARK    7  A    between atoms: O_15  and  C_16
REMARK    8  A    between atoms: N_28  and  C_29
REMARK                            x       y       z     vdW  Elec       q    Type
REMARK                         _______ _______ _______ _____ _____    ______ ____
ROOT
ATOM      1  C   UNL     1      -0.633  11.777  18.602  0.00  0.00    +0.000 A 
ATOM      2  N   UNL     1      -0.787  13.120  18.635  0.00  0.00    +0.000 NA
ATOM      3  C   UNL     1       0.307  13.863  18.912  0.00  0.00    +0.000 A 
ATOM      4  C   UNL     1       1.560  13.293  19.073  0.00  0.00    +0.000 A 
ATOM      5  N   UNL     1       1.749  11.942  19.008  0.00  0.00    +0.000 NA
ATOM      6  C   UNL     1       0.649  11.167  18.784  0.00  0.00    +0.000 A 
ATOM      7  C   UNL     1       2.751  14.160  19.386  0.00  0.00    +0.000 C 
ATOM      8  C   UNL     1       2.501  15.637  19.044  0.00  0.00    +0.000 C 
ATOM      9  N   UNL     1       1.226  16.083  19.622  0.00  0.00    +0.000 NA
ATOM     10  C   UNL     1       1.030  17.523  19.470  0.00  0.00    +0.000 C 
ATOM     11  C   UNL     1       0.113  15.357  18.980  0.00  0.00    +0.000 C 
ENDROOT
BRANCH   6  12
ATOM     12  N   UNL     1       0.832   9.787  18.747  0.00  0.00    +0.000 N 
ATOM     13  C   UNL     1       0.605   9.039  19.974  0.00  0.00    +0.000 C 
ATOM     14  C   UNL     1       1.898   8.376  20.414  0.00  0.00    +0.000 C 
ATOM     15  C   UNL     1       2.448   7.465  19.306  0.00  0.00    +0.000 C 
ATOM     16  C   UNL     1       2.721   8.334  18.079  0.00  0.00    +0.000 C 
ATOM     17  C   UNL     1       1.484   9.105  17.637  0.00  0.00    +0.000 C 
BRANCH  15  18
ATOM     18  O   UNL     1       1.530   6.416  18.933  0.00  0.00    +0.000 OA
BRANCH  18  19
ATOM     19  C   UNL     1       1.919   5.131  19.218  0.00  0.00    +0.000 A 
ATOM     20  C   UNL     1       1.493   4.432  20.348  0.00  0.00    +0.000 A 
ATOM     21  C   UNL     1       1.926   3.135  20.594  0.00  0.00    +0.000 A 
ATOM     22 CL   UNL     1       1.384   2.334  22.016  0.00  0.00    +0.000 Cl
ATOM     23  C   UNL     1       2.789   2.502  19.711  0.00  0.00    +0.000 A 
ATOM     24  C   UNL     1       3.205   3.174  18.559  0.00  0.00    +0.000 A 
ATOM     25  C   UNL     1       2.765   4.478  18.314  0.00  0.00    +0.000 A 
ATOM     26  F   UNL     1       3.193   5.101  17.206  0.00  0.00    +0.000 F 
ENDBRANCH  18  19
ENDBRANCH  15  18
ENDBRANCH   6  12
BRANCH   1  27
ATOM     27  N   UNL     1      -1.812  11.011  18.573  0.00  0.00    +0.000 N 
ATOM     28  H   UNL     1      -1.629  10.062  18.857  0.00  0.00    +0.000 HD
BRANCH  27  30
ATOM     29  C   UNL     1      -2.426   9.869  16.522  0.00  0.00    +0.000 C 
ATOM     30  C   UNL     1      -2.630  11.127  17.370  0.00  0.00    +0.000 C 
ATOM     31  C   UNL     1      -4.099  11.258  17.760  0.00  0.00    +0.000 C 
ENDBRANCH  27  30
ENDBRANCH   1  27
TORSDOF 5
ENDMDL
MODEL 4
REMARK VINA RESULT:      -6.9      3.980      6.365
REMARK  Name = 
REMARK  8 active torsions:
REMARK  status: ('A' for Active; 'I' for Inactive)
REMARK    1  A    between atoms: C_1  and  C_2
REMARK    2  A    between atoms: C_2  and  C_3
REMARK    3  A    between atoms: C_2  and  N_4
REMARK    4  A    between atoms: N_4  and  C_5
REMARK    5  A    between atoms: C_10  and  N_11
REMARK    6  A    between atoms: C_14  and  O_15
REMARK    7  A    between atoms: O_15  and  C_16
REMARK    8  A    between atoms: N_28  and  C_29
REMARK                            x       y       z     vdW  Elec       q    Type
REMARK                         _______ _______ _______ _____ _____    ______ ____
ROOT
ATOM      1  C   UNL     1       2.158   6.191  20.476  0.00  0.00    +0.000 A 
ATOM      2  N   UNL     1       1.211   6.948  21.076  0.00  0.00    +0.000 NA
ATOM      3  C   UNL     1       1.010   8.191  20.587  0.00  0.00    +0.000 A 
ATOM      4  C   UNL     1       1.677   8.655  19.463  0.00  0.00    +0.000 A 
ATOM      5  N   UNL     1       2.612   7.897  18.818  0.00  0.00    +0.000 NA
ATOM      6  C   UNL     1       2.872   6.659  19.327  0.00  0.00    +0.000 A 
ATOM      7  C   UNL     1       1.425  10.050  18.957  0.00  0.00    +0.000 C 
ATOM      8  C   UNL     1       0.111  10.637  19.496  0.00  0.00    +0.000 C 
ATOM      9  N   UNL     1       0.043  10.473  20.954  0.00  0.00    +0.000 NA
ATOM     10  C   UNL     1      -1.106  11.168  21.531  0.00  0.00    +0.000 C 
ATOM     11  C   UNL     1      -0.023   9.037  21.287  0.00  0.00    +0.000 C 
ENDROOT
BRANCH   6  12
ATOM     12  N   UNL     1       3.845   5.894  18.690  0.00  0.00    +0.000 N 
ATOM     13  C   UNL     1       3.918   5.961  17.237  0.00  0.00    +0.000 C 
ATOM     14  C   UNL     1       3.623   4.593  16.648  0.00  0.00    +0.000 C 
ATOM     15  C   UNL     1       4.594   3.540  17.201  0.00  0.00    +0.000 C 
ATOM     16  C   UNL     1       4.410   3.484  18.717  0.00  0.00    +0.000 C 
ATOM     17  C   UNL     1       4.600   4.848  19.368  0.00  0.00    +0.000 C 
BRANCH  15  18
ATOM     18  O   UNL     1       5.976   3.845  16.916  0.00  0.00    +0.000 OA
BRANCH  18  19
ATOM     19  C   UNL     1       6.289   4.099  15.603  0.00  0.00    +0.000 A 
ATOM     20  C   UNL     1       5.795   3.350  14.536  0.00  0.00    +0.000 A 
ATOM     21  C   UNL     1       6.152   3.645  13.226  0.00  0.00    +0.000 A 
ATOM     22 CL   UNL     1       5.528   2.669  11.955  0.00  0.00    +0.000 Cl
ATOM     23  C   UNL     1       7.008   4.702  12.951  0.00  0.00    +0.000 A 
ATOM     24  C   UNL     1       7.492   5.483  14.004  0.00  0.00    +0.000 A 
ATOM     25  C   UNL     1       7.127   5.184  15.320  0.00  0.00    +0.000 A 
ATOM     26  F   UNL     1       7.620   5.944  16.309  0.00  0.00    +0.000 F 
ENDBRANCH  18  19
ENDBRANCH  15  18
ENDBRANCH   6  12
BRANCH   1  27
ATOM     27  N   UNL     1       2.538   5.015  21.147  0.00  0.00    +0.000 N 
ATOM     28  H   UNL     1       3.450   4.710  20.845  0.00  0.00    +0.000 HD
BRANCH  27  30
ATOM     29  C   UNL     1       0.959   3.758  19.801  0.00  0.00    +0.000 C 
ATOM     30  C   UNL     1       1.541   3.951  21.204  0.00  0.00    +0.000 C 
ATOM     31  C   UNL     1       2.197   2.658  21.677  0.00  0.00    +0.000 C 
ENDBRANCH  27  30
ENDBRANCH   1  27
TORSDOF 5
ENDMDL
MODEL 5
REMARK VINA RESULT:      -6.9      4.193      6.349
REMARK  Name = 
REMARK  8 active torsions:
REMARK  status: ('A' for Active; 'I' for Inactive)
REMARK    1  A    between atoms: C_1  and  C_2
REMARK    2  A    between atoms: C_2  and  C_3
REMARK    3  A    between atoms: C_2  and  N_4
REMARK    4  A    between atoms: N_4  and  C_5
REMARK    5  A    between atoms: C_10  and  N_11
REMARK    6  A    between atoms: C_14  and  O_15
REMARK    7  A    between atoms: O_15  and  C_16
REMARK    8  A    between atoms: N_28  and  C_29
REMARK                            x       y       z     vdW  Elec       q    Type
REMARK                         _______ _______ _______ _____ _____    ______ ____
ROOT
ATOM      1  C   UNL     1       2.037   6.214  20.435  0.00  0.00    +0.000 A 
ATOM      2  N   UNL     1       1.238   6.926  21.262  0.00  0.00    +0.000 NA
ATOM      3  C   UNL     1       0.991   8.212  20.931  0.00  0.00    +0.000 A 
ATOM      4  C   UNL     1       1.460   8.769  19.751  0.00  0.00    +0.000 A 
ATOM      5  N   UNL     1       2.239   8.061  18.882  0.00  0.00    +0.000 NA
ATOM      6  C   UNL     1       2.547   6.777  19.222  0.00  0.00    +0.000 A 
ATOM      7  C   UNL     1       1.164  10.209  19.425  0.00  0.00    +0.000 C 
ATOM      8  C   UNL     1      -0.013  10.762  20.245  0.00  0.00    +0.000 C 
ATOM      9  N   UNL     1       0.178  10.464  21.670  0.00  0.00    +0.000 NA
ATOM     10  C   UNL     1      -0.826  11.118  22.506  0.00  0.00    +0.000 C 
ATOM     11  C   UNL     1       0.127   9.003  21.880  0.00  0.00    +0.000 C 
ENDROOT
BRANCH   6  12
ATOM     12  N   UNL     1       3.365   6.061  18.353  0.00  0.00    +0.000 N 
ATOM     13  C   UNL     1       4.346   5.156  18.934  0.00  0.00    +0.000 C 
ATOM     14  C   UNL     1       5.745   5.616  18.567  0.00  0.00    +0.000 C 
ATOM     15  C   UNL     1       5.909   5.700  17.042  0.00  0.00    +0.000 C 
ATOM     16  C   UNL     1       4.893   6.715  16.518  0.00  0.00    +0.000 C 
ATOM     17  C   UNL     1       3.469   6.366  16.931  0.00  0.00    +0.000 C 
BRANCH  15  18
ATOM     18  O   UNL     1       5.681   4.438  16.380  0.00  0.00    +0.000 OA
BRANCH  18  19
ATOM     19  C   UNL     1       6.018   4.373  15.051  0.00  0.00    +0.000 A 
ATOM     20  C   UNL     1       5.200   3.798  14.078  0.00  0.00    +0.000 A 
ATOM     21  C   UNL     1       5.594   3.750  12.747  0.00  0.00    +0.000 A 
ATOM     22 CL   UNL     1       4.552   3.006  11.598  0.00  0.00    +0.000 Cl
ATOM     23  C   UNL     1       6.814   4.284  12.354  0.00  0.00    +0.000 A 
ATOM     24  C   UNL     1       7.635   4.890  13.308  0.00  0.00    +0.000 A 
ATOM     25  C   UNL     1       7.233   4.938  14.646  0.00  0.00    +0.000 A 
ATOM     26  F   UNL     1       8.050   5.515  15.540  0.00  0.00    +0.000 F 
ENDBRANCH  18  19
ENDBRANCH  15  18
ENDBRANCH   6  12
BRANCH   1  27
ATOM     27  N   UNL     1       2.495   4.976  20.918  0.00  0.00    +0.000 N 
ATOM     28  H   UNL     1       3.338   4.696  20.443  0.00  0.00    +0.000 HD
BRANCH  27  30
ATOM     29  C   UNL     1       1.001   3.561  19.631  0.00  0.00    +0.000 C 
ATOM     30  C   UNL     1       1.496   3.918  21.036  0.00  0.00    +0.000 C 
ATOM     31  C   UNL     1       2.122   2.692  21.693  0.00  0.00    +0.000 C 
ENDBRANCH  27  30
ENDBRANCH   1  27
TORSDOF 5
ENDMDL
MODEL 6
REMARK VINA RESULT:      -6.7      1.024      1.265
REMARK  Name = 
REMARK  8 active torsions:
REMARK  status: ('A' for Active; 'I' for Inactive)
REMARK    1  A    between atoms: C_1  and  C_2
REMARK    2  A    between atoms: C_2  and  C_3
REMARK    3  A    between atoms: C_2  and  N_4
REMARK    4  A    between atoms: N_4  and  C_5
REMARK    5  A    between atoms: C_10  and  N_11
REMARK    6  A    between atoms: C_14  and  O_15
REMARK    7  A    between atoms: O_15  and  C_16
REMARK    8  A    between atoms: N_28  and  C_29
REMARK                            x       y       z     vdW  Elec       q    Type
REMARK                         _______ _______ _______ _____ _____    ______ ____
ROOT
ATOM      1  C   UNL     1      -0.666  11.287  18.505  0.00  0.00    +0.000 A 
ATOM      2  N   UNL     1      -0.918  12.616  18.556  0.00  0.00    +0.000 NA
ATOM      3  C   UNL     1       0.095  13.425  18.933  0.00  0.00    +0.000 A 
ATOM      4  C   UNL     1       1.371  12.939  19.177  0.00  0.00    +0.000 A 
ATOM      5  N   UNL     1       1.661  11.607  19.097  0.00  0.00    +0.000 NA
ATOM      6  C   UNL     1       0.639  10.764  18.772  0.00  0.00    +0.000 A 
ATOM      7  C   UNL     1       2.470  13.879  19.600  0.00  0.00    +0.000 C 
ATOM      8  C   UNL     1       2.141  15.344  19.272  0.00  0.00    +0.000 C 
ATOM      9  N   UNL     1       0.798  15.683  19.761  0.00  0.00    +0.000 NA
ATOM     10  C   UNL     1       0.510  17.109  19.626  0.00  0.00    +0.000 C 
ATOM     11  C   UNL     1      -0.210  14.899  19.019  0.00  0.00    +0.000 C 
ENDROOT
BRANCH   6  12
ATOM     12  N   UNL     1       0.923   9.402  18.719  0.00  0.00    +0.000 N 
ATOM     13  C   UNL     1       0.775   8.629  19.943  0.00  0.00    +0.000 C 
ATOM     14  C   UNL     1       2.122   8.060  20.353  0.00  0.00    +0.000 C 
ATOM     15  C   UNL     1       2.716   7.202  19.227  0.00  0.00    +0.000 C 
ATOM     16  C   UNL     1       2.902   8.099  18.003  0.00  0.00    +0.000 C 
ATOM     17  C   UNL     1       1.603   8.779  17.590  0.00  0.00    +0.000 C 
BRANCH  15  18
ATOM     18  O   UNL     1       1.872   6.091  18.860  0.00  0.00    +0.000 OA
BRANCH  18  19
ATOM     19  C   UNL     1       2.077   4.915  19.538  0.00  0.00    +0.000 A 
ATOM     20  C   UNL     1       3.226   4.136  19.397  0.00  0.00    +0.000 A 
ATOM     21  C   UNL     1       3.378   2.949  20.101  0.00  0.00    +0.000 A 
ATOM     22 CL   UNL     1       4.808   2.021  19.866  0.00  0.00    +0.000 Cl
ATOM     23  C   UNL     1       2.387   2.513  20.970  0.00  0.00    +0.000 A 
ATOM     24  C   UNL     1       1.241   3.293  21.147  0.00  0.00    +0.000 A 
ATOM     25  C   UNL     1       1.094   4.488  20.439  0.00  0.00    +0.000 A 
ATOM     26  F   UNL     1      -0.024   5.207  20.621  0.00  0.00    +0.000 F 
ENDBRANCH  18  19
ENDBRANCH  15  18
ENDBRANCH   6  12
BRANCH   1  27
ATOM     27  N   UNL     1      -1.782  10.442  18.370  0.00  0.00    +0.000 N 
ATOM     28  H   UNL     1      -1.500   9.475  18.380  0.00  0.00    +0.000 HD
BRANCH  27  30
ATOM     29  C   UNL     1      -2.561   9.762  16.175  0.00  0.00    +0.000 C 
ATOM     30  C   UNL     1      -2.723  10.780  17.307  0.00  0.00    +0.000 C 
ATOM     31  C   UNL     1      -4.148  10.731  17.850  0.00  0.00    +0.000 C 
ENDBRANCH  27  30
ENDBRANCH   1  27
TORSDOF 5
ENDMDL
MODEL 7
REMARK VINA RESULT:      -6.7      2.565      2.822
REMARK  Name = 
REMARK  8 active torsions:
REMARK  status: ('A' for Active; 'I' for Inactive)
REMARK    1  A    between atoms: C_1  and  C_2
REMARK    2  A    between atoms: C_2  and  C_3
REMARK    3  A    between atoms: C_2  and  N_4
REMARK    4  A    between atoms: N_4  and  C_5
REMARK    5  A    between atoms: C_10  and  N_11
REMARK    6  A    between atoms: C_14  and  O_15
REMARK    7  A    between atoms: O_15  and  C_16
REMARK    8  A    between atoms: N_28  and  C_29
REMARK                            x       y       z     vdW  Elec       q    Type
REMARK                         _______ _______ _______ _____ _____    ______ ____
ROOT
ATOM      1  C   UNL     1      -1.156  11.620  18.784  0.00  0.00    +0.000 A 
ATOM      2  N   UNL     1      -1.740  12.738  19.274  0.00  0.00    +0.000 NA
ATOM      3  C   UNL     1      -1.738  12.901  20.615  0.00  0.00    +0.000 A 
ATOM      4  C   UNL     1      -1.094  12.013  21.462  0.00  0.00    +0.000 A 
ATOM      5  N   UNL     1      -0.466  10.896  20.990  0.00  0.00    +0.000 NA
ATOM      6  C   UNL     1      -0.502  10.681  19.644  0.00  0.00    +0.000 A 
ATOM      7  C   UNL     1      -1.123  12.233  22.952  0.00  0.00    +0.000 C 
ATOM      8  C   UNL     1      -1.493  13.678  23.320  0.00  0.00    +0.000 C 
ATOM      9  N   UNL     1      -2.704  14.091  22.597  0.00  0.00    +0.000 NA
ATOM     10  C   UNL     1      -3.191  15.393  23.045  0.00  0.00    +0.000 C 
ATOM     11  C   UNL     1      -2.424  14.134  21.149  0.00  0.00    +0.000 C 
ENDROOT
BRANCH   6  12
ATOM     12  N   UNL     1       0.112   9.528  19.161  0.00  0.00    +0.000 N 
ATOM     13  C   UNL     1       0.348   8.441  20.100  0.00  0.00    +0.000 C 
ATOM     14  C   UNL     1       1.841   8.197  20.231  0.00  0.00    +0.000 C 
ATOM     15  C   UNL     1       2.465   7.889  18.861  0.00  0.00    +0.000 C 
ATOM     16  C   UNL     1       2.232   9.100  17.958  0.00  0.00    +0.000 C 
ATOM     17  C   UNL     1       0.756   9.461  17.856  0.00  0.00    +0.000 C 
BRANCH  15  18
ATOM     18  O   UNL     1       1.890   6.726  18.230  0.00  0.00    +0.000 OA
BRANCH  18  19
ATOM     19  C   UNL     1       2.683   5.606  18.169  0.00  0.00    +0.000 A 
ATOM     20  C   UNL     1       3.889   5.555  17.469  0.00  0.00    +0.000 A 
ATOM     21  C   UNL     1       4.648   4.393  17.432  0.00  0.00    +0.000 A 
ATOM     22 CL   UNL     1       6.114   4.386  16.531  0.00  0.00    +0.000 Cl
ATOM     23  C   UNL     1       4.224   3.254  18.101  0.00  0.00    +0.000 A 
ATOM     24  C   UNL     1       3.034   3.292  18.832  0.00  0.00    +0.000 A 
ATOM     25  C   UNL     1       2.275   4.465  18.868  0.00  0.00    +0.000 A 
ATOM     26  F   UNL     1       1.130   4.465  19.568  0.00  0.00    +0.000 F 
ENDBRANCH  18  19
ENDBRANCH  15  18
ENDBRANCH   6  12
BRANCH   1  27
ATOM     27  N   UNL     1      -1.391  11.333  17.428  0.00  0.00    +0.000 N 
ATOM     28  H   UNL     1      -0.921  11.999  16.835  0.00  0.00    +0.000 HD
BRANCH  27  30
ATOM     29  C   UNL     1      -2.854  10.965  15.527  0.00  0.00    +0.000 C 
ATOM     30  C   UNL     1      -2.776  11.072  17.053  0.00  0.00    +0.000 C 
ATOM     31  C   UNL     1      -3.243   9.767  17.689  0.00  0.00    +0.000 C 
ENDBRANCH  27  30
ENDBRANCH   1  27
TORSDOF 5
ENDMDL
MODEL 8
REMARK VINA RESULT:      -6.7      3.982      6.131
REMARK  Name = 
REMARK  8 active torsions:
REMARK  status: ('A' for Active; 'I' for Inactive)
REMARK    1  A    between atoms: C_1  and  C_2
REMARK    2  A    between atoms: C_2  and  C_3
REMARK    3  A    between atoms: C_2  and  N_4
REMARK    4  A    between atoms: N_4  and  C_5
REMARK    5  A    between atoms: C_10  and  N_11
REMARK    6  A    between atoms: C_14  and  O_15
REMARK    7  A    between atoms: O_15  and  C_16
REMARK    8  A    between atoms: N_28  and  C_29
REMARK                            x       y       z     vdW  Elec       q    Type
REMARK                         _______ _______ _______ _____ _____    ______ ____
ROOT
ATOM      1  C   UNL     1       2.077   6.304  20.497  0.00  0.00    +0.000 A 
ATOM      2  N   UNL     1       1.157   7.025  21.178  0.00  0.00    +0.000 NA
ATOM      3  C   UNL     1       0.920   8.285  20.754  0.00  0.00    +0.000 A 
ATOM      4  C   UNL     1       1.524   8.804  19.619  0.00  0.00    +0.000 A 
ATOM      5  N   UNL     1       2.429   8.084  18.893  0.00  0.00    +0.000 NA
ATOM      6  C   UNL     1       2.726   6.828  19.334  0.00  0.00    +0.000 A 
ATOM      7  C   UNL     1       1.234  10.217  19.187  0.00  0.00    +0.000 C 
ATOM      8  C   UNL     1      -0.055  10.767  19.819  0.00  0.00    +0.000 C 
ATOM      9  N   UNL     1      -0.044  10.540  21.270  0.00  0.00    +0.000 NA
ATOM     10  C   UNL     1      -1.166  11.197  21.935  0.00  0.00    +0.000 C 
ATOM     11  C   UNL     1      -0.082   9.090  21.544  0.00  0.00    +0.000 C 
ENDROOT
BRANCH   6  12
ATOM     12  N   UNL     1       3.670   6.101  18.614  0.00  0.00    +0.000 N 
ATOM     13  C   UNL     1       4.563   5.225  19.358  0.00  0.00    +0.000 C 
ATOM     14  C   UNL     1       5.997   5.695  19.186  0.00  0.00    +0.000 C 
ATOM     15  C   UNL     1       6.381   5.742  17.700  0.00  0.00    +0.000 C 
ATOM     16  C   UNL     1       5.443   6.729  17.005  0.00  0.00    +0.000 C 
ATOM     17  C   UNL     1       3.978   6.369  17.215  0.00  0.00    +0.000 C 
BRANCH  15  18
ATOM     18  O   UNL     1       6.266   4.460  17.048  0.00  0.00    +0.000 OA
BRANCH  18  19
ATOM     19  C   UNL     1       6.368   4.457  15.679  0.00  0.00    +0.000 A 
ATOM     20  C   UNL     1       7.444   5.013  14.987  0.00  0.00    +0.000 A 
ATOM     21  C   UNL     1       7.492   4.992  13.599  0.00  0.00    +0.000 A 
ATOM     22 CL   UNL     1       8.834   5.716  12.803  0.00  0.00    +0.000 Cl
ATOM     23  C   UNL     1       6.468   4.406  12.868  0.00  0.00    +0.000 A 
ATOM     24  C   UNL     1       5.395   3.818  13.543  0.00  0.00    +0.000 A 
ATOM     25  C   UNL     1       5.353   3.839  14.939  0.00  0.00    +0.000 A 
ATOM     26  F   UNL     1       4.302   3.278  15.557  0.00  0.00    +0.000 F 
ENDBRANCH  18  19
ENDBRANCH  15  18
ENDBRANCH   6  12
BRANCH   1  27
ATOM     27  N   UNL     1       2.501   5.104  21.096  0.00  0.00    +0.000 N 
ATOM     28  H   UNL     1       3.414   4.840  20.760  0.00  0.00    +0.000 HD
BRANCH  27  30
ATOM     29  C   UNL     1       1.015   3.801  19.688  0.00  0.00    +0.000 C 
ATOM     30  C   UNL     1       1.533   4.013  21.114  0.00  0.00    +0.000 C 
ATOM     31  C   UNL     1       2.205   2.739  21.616  0.00  0.00    +0.000 C 
ENDBRANCH  27  30
ENDBRANCH   1  27
TORSDOF 5
ENDMDL
MODEL 9
REMARK VINA RESULT:      -6.6      4.603      8.893
REMARK  Name = 
REMARK  8 active torsions:
REMARK  status: ('A' for Active; 'I' for Inactive)
REMARK    1  A    between atoms: C_1  and  C_2
REMARK    2  A    between atoms: C_2  and  C_3
REMARK    3  A    between atoms: C_2  and  N_4
REMARK    4  A    between atoms: N_4  and  C_5
REMARK    5  A    between atoms: C_10  and  N_11
REMARK    6  A    between atoms: C_14  and  O_15
REMARK    7  A    between atoms: O_15  and  C_16
REMARK    8  A    between atoms: N_28  and  C_29
REMARK                            x       y       z     vdW  Elec       q    Type
REMARK                         _______ _______ _______ _____ _____    ______ ____
ROOT
ATOM      1  C   UNL     1       2.699   5.690  19.443  0.00  0.00    +0.000 A 
ATOM      2  N   UNL     1       3.602   4.865  18.865  0.00  0.00    +0.000 NA
ATOM      3  C   UNL     1       4.272   5.335  17.791  0.00  0.00    +0.000 A 
ATOM      4  C   UNL     1       4.115   6.636  17.339  0.00  0.00    +0.000 A 
ATOM      5  N   UNL     1       3.236   7.500  17.927  0.00  0.00    +0.000 NA
ATOM      6  C   UNL     1       2.508   7.030  18.980  0.00  0.00    +0.000 A 
ATOM      7  C   UNL     1       4.879   7.115  16.133  0.00  0.00    +0.000 C 
ATOM      8  C   UNL     1       6.089   6.222  15.817  0.00  0.00    +0.000 C 
ATOM      9  N   UNL     1       5.682   4.810  15.787  0.00  0.00    +0.000 NA
ATOM     10  C   UNL     1       6.759   3.940  15.322  0.00  0.00    +0.000 C 
ATOM     11  C   UNL     1       5.249   4.392  17.135  0.00  0.00    +0.000 C 
ENDROOT
BRANCH   6  12
ATOM     12  N   UNL     1       1.590   7.899  19.564  0.00  0.00    +0.000 N 
ATOM     13  C   UNL     1       1.073   8.988  18.749  0.00  0.00    +0.000 C 
ATOM     14  C   UNL     1       1.482  10.318  19.358  0.00  0.00    +0.000 C 
ATOM     15  C   UNL     1       0.986  10.430  20.807  0.00  0.00    +0.000 C 
ATOM     16  C   UNL     1       1.623   9.295  21.608  0.00  0.00    +0.000 C 
ATOM     17  C   UNL     1       1.331   7.930  20.998  0.00  0.00    +0.000 C 
BRANCH  15  18
ATOM     18  O   UNL     1      -0.449  10.326  20.921  0.00  0.00    +0.000 OA
BRANCH  18  19
ATOM     19  C   UNL     1      -1.095  11.381  21.516  0.00  0.00    +0.000 A 
ATOM     20  C   UNL     1      -1.408  12.565  20.848  0.00  0.00    +0.000 A 
ATOM     21  C   UNL     1      -2.055  13.607  21.500  0.00  0.00    +0.000 A 
ATOM     22 CL   UNL     1      -2.393  15.051  20.629  0.00  0.00    +0.000 Cl
ATOM     23  C   UNL     1      -2.411  13.487  22.836  0.00  0.00    +0.000 A 
ATOM     24  C   UNL     1      -2.132  12.299  23.516  0.00  0.00    +0.000 A 
ATOM     25  C   UNL     1      -1.484  11.252  22.854  0.00  0.00    +0.000 A 
ATOM     26  F   UNL     1      -1.217  10.130  23.538  0.00  0.00    +0.000 F 
ENDBRANCH  18  19
ENDBRANCH  15  18
ENDBRANCH   6  12
BRANCH   1  27
ATOM     27  N   UNL     1       1.831   5.108  20.384  0.00  0.00    +0.000 N 
ATOM     28  H   UNL     1       1.926   5.554  21.282  0.00  0.00    +0.000 HD
BRANCH  27  30
ATOM     29  C   UNL     1       1.909   3.220  21.906  0.00  0.00    +0.000 C 
ATOM     30  C   UNL     1       1.821   3.650  20.439  0.00  0.00    +0.000 C 
ATOM     31  C   UNL     1       0.531   3.122  19.820  0.00  0.00    +0.000 C 
ENDBRANCH  27  30
ENDBRANCH   1  27
TORSDOF 5
ENDMDL
