MODEL 1
REMARK VINA RESULT:      -9.0      0.000      0.000
REMARK  Name = 
REMARK  9 active torsions:
REMARK  status: ('A' for Active; 'I' for Inactive)
REMARK    1  A    between atoms: C_1  and  C_2
REMARK    2  A    between atoms: C_4  and  C_5
REMARK    3  A    between atoms: C_7  and  C_8
REMARK    4  A    between atoms: C_13  and  C_14
REMARK    5  A    between atoms: C_14  and  O_15
REMARK    6  A    between atoms: O_15  and  C_16
REMARK    7  A    between atoms: C_16  and  C_17
REMARK    8  A    between atoms: C_17  and  C_18
REMARK    9  A    between atoms: N_27  and  C_28
REMARK                            x       y       z     vdW  Elec       q    Type
REMARK                         _______ _______ _______ _____ _____    ______ ____
ROOT
ATOM      1  O   UNL     1       2.712   8.048  18.351  0.00  0.00    +0.000 OA
ENDROOT
BRANCH   1   2
ATOM      2  C   UNL     1       2.138   9.243  17.821  0.00  0.00    +0.000 C 
BRANCH   2   7
ATOM      3  C   UNL     1      -1.151  10.690  18.758  0.00  0.00    +0.000 A 
ATOM      4  C   UNL     1      -1.205  10.495  20.137  0.00  0.00    +0.000 A 
ATOM      5  C   UNL     1      -0.136   9.883  20.803  0.00  0.00    +0.000 A 
ATOM      6  C   UNL     1       0.967   9.479  20.050  0.00  0.00    +0.000 A 
ATOM      7  C   UNL     1       0.963   9.675  18.674  0.00  0.00    +0.000 A 
ATOM      8  N   UNL     1      -0.072  10.284  18.040  0.00  0.00    +0.000 NA
BRANCH   3  12
ATOM      9  C   UNL     1      -4.882  11.007  17.768  0.00  0.00    +0.000 C 
ATOM     10  C   UNL     1      -3.499  10.465  17.631  0.00  0.00    +0.000 C 
ATOM     11  C   UNL     1      -2.576  10.983  16.566  0.00  0.00    +0.000 C 
ATOM     12  C   UNL     1      -2.310  11.320  18.018  0.00  0.00    +0.000 C 
ENDBRANCH   3  12
BRANCH   5  13
ATOM     13  C   UNL     1      -0.165   9.647  22.287  0.00  0.00    +0.000 C 
ATOM     14  F   UNL     1      -0.871   8.540  22.649  0.00  0.00    +0.000 F 
ATOM     15  F   UNL     1       1.080   9.481  22.815  0.00  0.00    +0.000 F 
ATOM     16  F   UNL     1      -0.726  10.684  22.969  0.00  0.00    +0.000 F 
ENDBRANCH   5  13
ENDBRANCH   2   7
ENDBRANCH   1   2
BRANCH   1  17
ATOM     17  C   UNL     1       2.296   6.871  17.660  0.00  0.00    +0.000 C 
BRANCH  17  18
ATOM     18  C   UNL     1       2.568   5.609  18.534  0.00  0.00    +0.000 C 
ATOM     19  C   UNL     1       1.567   4.483  18.144  0.00  0.00    +0.000 C 
ATOM     20  C   UNL     1       1.680   3.269  19.071  0.00  0.00    +0.000 C 
ATOM     21  N   UNL     1       1.424   3.634  20.469  0.00  0.00    +0.000 NA
ATOM     22  C   UNL     1       1.569   2.461  21.331  0.00  0.00    +0.000 C 
ATOM     23  C   UNL     1       2.308   4.713  20.929  0.00  0.00    +0.000 C 
ATOM     24  C   UNL     1       2.228   5.942  20.019  0.00  0.00    +0.000 C 
BRANCH  18  25
ATOM     25  C   UNL     1       4.050   5.216  18.301  0.00  0.00    +0.000 A 
ATOM     26  C   UNL     1       5.044   5.480  19.265  0.00  0.00    +0.000 A 
ATOM     27  C   UNL     1       6.386   5.159  19.036  0.00  0.00    +0.000 A 
ATOM     28  C   UNL     1       6.760   4.583  17.833  0.00  0.00    +0.000 A 
ATOM     29  F   UNL     1       8.048   4.293  17.607  0.00  0.00    +0.000 F 
ATOM     30  C   UNL     1       5.814   4.315  16.856  0.00  0.00    +0.000 A 
ATOM     31  C   UNL     1       4.472   4.635  17.087  0.00  0.00    +0.000 A 
ENDBRANCH  18  25
ENDBRANCH  17  18
ENDBRANCH   1  17
TORSDOF 7
ENDMDL
MODEL 2
REMARK VINA RESULT:      -8.8      1.002      1.572
REMARK  Name = 
REMARK  9 active torsions:
REMARK  status: ('A' for Active; 'I' for Inactive)
REMARK    1  A    between atoms: C_1  and  C_2
REMARK    2  A    between atoms: C_4  and  C_5
REMARK    3  A    between atoms: C_7  and  C_8
REMARK    4  A    between atoms: C_13  and  C_14
REMARK    5  A    between atoms: C_14  and  O_15
REMARK    6  A    between atoms: O_15  and  C_16
REMARK    7  A    between atoms: C_16  and  C_17
REMARK    8  A    between atoms: C_17  and  C_18
REMARK    9  A    between atoms: N_27  and  C_28
REMARK                            x       y       z     vdW  Elec       q    Type
REMARK                         _______ _______ _______ _____ _____    ______ ____
ROOT
ATOM      1  O   UNL     1       2.439   8.161  18.580  0.00  0.00    +0.000 OA
ENDROOT
BRANCH   1   2
ATOM      2  C   UNL     1       2.146   9.390  17.914  0.00  0.00    +0.000 C 
BRANCH   2   7
ATOM      3  C   UNL     1      -1.483  10.179  17.913  0.00  0.00    +0.000 A 
ATOM      4  C   UNL     1      -1.664  10.851  19.121  0.00  0.00    +0.000 A 
ATOM      5  C   UNL     1      -0.575  11.072  19.973  0.00  0.00    +0.000 A 
ATOM      6  C   UNL     1       0.679  10.603  19.579  0.00  0.00    +0.000 A 
ATOM      7  C   UNL     1       0.803   9.920  18.374  0.00  0.00    +0.000 A 
ATOM      8  N   UNL     1      -0.256   9.725  17.547  0.00  0.00    +0.000 NA
BRANCH   3  12
ATOM      9  C   UNL     1      -3.280  10.163  14.482  0.00  0.00    +0.000 C 
ATOM     10  C   UNL     1      -2.864  10.778  15.776  0.00  0.00    +0.000 C 
ATOM     11  C   UNL     1      -3.825  10.861  16.928  0.00  0.00    +0.000 C 
ATOM     12  C   UNL     1      -2.653   9.904  16.996  0.00  0.00    +0.000 C 
ENDBRANCH   3  12
BRANCH   5  13
ATOM     13  C   UNL     1      -0.736  11.781  21.288  0.00  0.00    +0.000 C 
ATOM     14  F   UNL     1      -0.308  13.074  21.266  0.00  0.00    +0.000 F 
ATOM     15  F   UNL     1      -2.033  11.828  21.703  0.00  0.00    +0.000 F 
ATOM     16  F   UNL     1      -0.043  11.178  22.294  0.00  0.00    +0.000 F 
ENDBRANCH   5  13
ENDBRANCH   2   7
ENDBRANCH   1   2
BRANCH   1  17
ATOM     17  C   UNL     1       2.266   7.016  17.747  0.00  0.00    +0.000 C 
BRANCH  17  18
ATOM     18  C   UNL     1       2.519   5.712  18.565  0.00  0.00    +0.000 C 
ATOM     19  C   UNL     1       1.493   4.624  18.137  0.00  0.00    +0.000 C 
ATOM     20  C   UNL     1       1.589   3.370  19.011  0.00  0.00    +0.000 C 
ATOM     21  N   UNL     1       1.351   3.680  20.424  0.00  0.00    +0.000 NA
ATOM     22  C   UNL     1       1.479   2.469  21.235  0.00  0.00    +0.000 C 
ATOM     23  C   UNL     1       2.260   4.721  20.922  0.00  0.00    +0.000 C 
ATOM     24  C   UNL     1       2.197   5.989  20.066  0.00  0.00    +0.000 C 
BRANCH  18  25
ATOM     25  C   UNL     1       3.992   5.301  18.304  0.00  0.00    +0.000 A 
ATOM     26  C   UNL     1       5.006   5.540  19.254  0.00  0.00    +0.000 A 
ATOM     27  C   UNL     1       6.339   5.202  18.999  0.00  0.00    +0.000 A 
ATOM     28  C   UNL     1       6.685   4.633  17.783  0.00  0.00    +0.000 A 
ATOM     29  F   UNL     1       7.964   4.327  17.533  0.00  0.00    +0.000 F 
ATOM     30  C   UNL     1       5.718   4.390  16.820  0.00  0.00    +0.000 A 
ATOM     31  C   UNL     1       4.385   4.727  17.076  0.00  0.00    +0.000 A 
ENDBRANCH  18  25
ENDBRANCH  17  18
ENDBRANCH   1  17
TORSDOF 7
ENDMDL
MODEL 3
REMARK VINA RESULT:      -8.7      1.494      1.942
REMARK  Name = 
REMARK  9 active torsions:
REMARK  status: ('A' for Active; 'I' for Inactive)
REMARK    1  A    between atoms: C_1  and  C_2
REMARK    2  A    between atoms: C_4  and  C_5
REMARK    3  A    between atoms: C_7  and  C_8
REMARK    4  A    between atoms: C_13  and  C_14
REMARK    5  A    between atoms: C_14  and  O_15
REMARK    6  A    between atoms: O_15  and  C_16
REMARK    7  A    between atoms: C_16  and  C_17
REMARK    8  A    between atoms: C_17  and  C_18
REMARK    9  A    between atoms: N_27  and  C_28
REMARK                            x       y       z     vdW  Elec       q    Type
REMARK                         _______ _______ _______ _____ _____    ______ ____
ROOT
ATOM      1  O   UNL     1       2.455   8.180  18.484  0.00  0.00    +0.000 OA
ENDROOT
BRANCH   1   2
ATOM      2  C   UNL     1       1.781   9.307  17.924  0.00  0.00    +0.000 C 
BRANCH   2   7
ATOM      3  C   UNL     1      -0.302  11.880  19.607  0.00  0.00    +0.000 A 
ATOM      4  C   UNL     1      -0.563  11.314  20.854  0.00  0.00    +0.000 A 
ATOM      5  C   UNL     1      -0.041  10.056  21.178  0.00  0.00    +0.000 A 
ATOM      6  C   UNL     1       0.737   9.397  20.225  0.00  0.00    +0.000 A 
ATOM      7  C   UNL     1       0.949   9.993  18.987  0.00  0.00    +0.000 A 
ATOM      8  N   UNL     1       0.451  11.221  18.688  0.00  0.00    +0.000 NA
BRANCH   3  12
ATOM      9  C   UNL     1      -0.074  15.653  18.765  0.00  0.00    +0.000 C 
ATOM     10  C   UNL     1      -0.195  14.490  19.691  0.00  0.00    +0.000 C 
ATOM     11  C   UNL     1      -1.527  14.110  20.273  0.00  0.00    +0.000 C 
ATOM     12  C   UNL     1      -0.885  13.223  19.227  0.00  0.00    +0.000 C 
ENDBRANCH   3  12
BRANCH   5  13
ATOM     13  C   UNL     1      -0.311   9.411  22.509  0.00  0.00    +0.000 C 
ATOM     14  F   UNL     1      -0.885   8.180  22.411  0.00  0.00    +0.000 F 
ATOM     15  F   UNL     1       0.821   9.234  23.245  0.00  0.00    +0.000 F 
ATOM     16  F   UNL     1      -1.151  10.151  23.285  0.00  0.00    +0.000 F 
ENDBRANCH   5  13
ENDBRANCH   2   7
ENDBRANCH   1   2
BRANCH   1  17
ATOM     17  C   UNL     1       2.411   7.025  17.647  0.00  0.00    +0.000 C 
BRANCH  17  18
ATOM     18  C   UNL     1       2.628   5.736  18.496  0.00  0.00    +0.000 C 
ATOM     19  C   UNL     1       1.603   4.649  18.060  0.00  0.00    +0.000 C 
ATOM     20  C   UNL     1       1.662   3.412  18.960  0.00  0.00    +0.000 C 
ATOM     21  N   UNL     1       1.389   3.752  20.360  0.00  0.00    +0.000 NA
ATOM     22  C   UNL     1       1.481   2.555  21.197  0.00  0.00    +0.000 C 
ATOM     23  C   UNL     1       2.294   4.793  20.863  0.00  0.00    +0.000 C 
ATOM     24  C   UNL     1       2.268   6.044  19.981  0.00  0.00    +0.000 C 
BRANCH  18  25
ATOM     25  C   UNL     1       4.103   5.305  18.284  0.00  0.00    +0.000 A 
ATOM     26  C   UNL     1       5.100   5.589  19.239  0.00  0.00    +0.000 A 
ATOM     27  C   UNL     1       6.436   5.233  19.027  0.00  0.00    +0.000 A 
ATOM     28  C   UNL     1       6.802   4.601  17.849  0.00  0.00    +0.000 A 
ATOM     29  F   UNL     1       8.084   4.277  17.639  0.00  0.00    +0.000 F 
ATOM     30  C   UNL     1       5.852   4.312  16.882  0.00  0.00    +0.000 A 
ATOM     31  C   UNL     1       4.516   4.667  17.095  0.00  0.00    +0.000 A 
ENDBRANCH  18  25
ENDBRANCH  17  18
ENDBRANCH   1  17
TORSDOF 7
ENDMDL
MODEL 4
REMARK VINA RESULT:      -8.7      1.921      2.420
REMARK  Name = 
REMARK  9 active torsions:
REMARK  status: ('A' for Active; 'I' for Inactive)
REMARK    1  A    between atoms: C_1  and  C_2
REMARK    2  A    between atoms: C_4  and  C_5
REMARK    3  A    between atoms: C_7  and  C_8
REMARK    4  A    between atoms: C_13  and  C_14
REMARK    5  A    between atoms: C_14  and  O_15
REMARK    6  A    between atoms: O_15  and  C_16
REMARK    7  A    between atoms: C_16  and  C_17
REMARK    8  A    between atoms: C_17  and  C_18
REMARK    9  A    between atoms: N_27  and  C_28
REMARK                            x       y       z     vdW  Elec       q    Type
REMARK                         _______ _______ _______ _____ _____    ______ ____
ROOT
ATOM      1  O   UNL     1       2.376   8.266  18.531  0.00  0.00    +0.000 OA
ENDROOT
BRANCH   1   2
ATOM      2  C   UNL     1       1.551   9.342  18.085  0.00  0.00    +0.000 C 
BRANCH   2   7
ATOM      3  C   UNL     1       0.759  12.281  20.213  0.00  0.00    +0.000 A 
ATOM      4  C   UNL     1       0.245  11.705  21.375  0.00  0.00    +0.000 A 
ATOM      5  C   UNL     1       0.156  10.313  21.489  0.00  0.00    +0.000 A 
ATOM      6  C   UNL     1       0.591   9.532  20.418  0.00  0.00    +0.000 A 
ATOM      7  C   UNL     1       1.075  10.155  19.273  0.00  0.00    +0.000 A 
ATOM      8  N   UNL     1       1.172  11.506  19.177  0.00  0.00    +0.000 NA
BRANCH   3  12
ATOM      9  C   UNL     1      -0.756  15.785  19.560  0.00  0.00    +0.000 C 
ATOM     10  C   UNL     1      -0.150  14.486  19.146  0.00  0.00    +0.000 C 
ATOM     11  C   UNL     1       1.300  14.406  18.761  0.00  0.00    +0.000 C 
ATOM     12  C   UNL     1       0.832  13.783  20.060  0.00  0.00    +0.000 C 
ENDBRANCH   3  12
BRANCH   5  13
ATOM     13  C   UNL     1      -0.404   9.658  22.721  0.00  0.00    +0.000 C 
ATOM     14  F   UNL     1      -1.385  10.384  23.326  0.00  0.00    +0.000 F 
ATOM     15  F   UNL     1      -0.952   8.438  22.464  0.00  0.00    +0.000 F 
ATOM     16  F   UNL     1       0.545   9.449  23.676  0.00  0.00    +0.000 F 
ENDBRANCH   5  13
ENDBRANCH   2   7
ENDBRANCH   1   2
BRANCH   1  17
ATOM     17  C   UNL     1       2.366   7.147  17.645  0.00  0.00    +0.000 C 
BRANCH  17  18
ATOM     18  C   UNL     1       2.610   5.828  18.440  0.00  0.00    +0.000 C 
ATOM     19  C   UNL     1       1.600   4.743  17.967  0.00  0.00    +0.000 C 
ATOM     20  C   UNL     1       1.684   3.472  18.816  0.00  0.00    +0.000 C 
ATOM     21  N   UNL     1       1.414   3.750  20.230  0.00  0.00    +0.000 NA
ATOM     22  C   UNL     1       1.531   2.523  21.018  0.00  0.00    +0.000 C 
ATOM     23  C   UNL     1       2.305   4.786  20.770  0.00  0.00    +0.000 C 
ATOM     24  C   UNL     1       2.253   6.071  19.939  0.00  0.00    +0.000 C 
BRANCH  18  25
ATOM     25  C   UNL     1       4.090   5.430  18.203  0.00  0.00    +0.000 A 
ATOM     26  C   UNL     1       4.509   4.827  17.000  0.00  0.00    +0.000 A 
ATOM     27  C   UNL     1       5.837   4.435  16.804  0.00  0.00    +0.000 A 
ATOM     28  C   UNL     1       6.767   4.626  17.813  0.00  0.00    +0.000 A 
ATOM     29  F   UNL     1       8.034   4.233  17.632  0.00  0.00    +0.000 F 
ATOM     30  C   UNL     1       6.393   5.209  19.014  0.00  0.00    +0.000 A 
ATOM     31  C   UNL     1       5.065   5.601  19.209  0.00  0.00    +0.000 A 
ENDBRANCH  18  25
ENDBRANCH  17  18
ENDBRANCH   1  17
TORSDOF 7
ENDMDL
MODEL 5
REMARK VINA RESULT:      -8.6      0.501      1.352
REMARK  Name = 
REMARK  9 active torsions:
REMARK  status: ('A' for Active; 'I' for Inactive)
REMARK    1  A    between atoms: C_1  and  C_2
REMARK    2  A    between atoms: C_4  and  C_5
REMARK    3  A    between atoms: C_7  and  C_8
REMARK    4  A    between atoms: C_13  and  C_14
REMARK    5  A    between atoms: C_14  and  O_15
REMARK    6  A    between atoms: O_15  and  C_16
REMARK    7  A    between atoms: C_16  and  C_17
REMARK    8  A    between atoms: C_17  and  C_18
REMARK    9  A    between atoms: N_27  and  C_28
REMARK                            x       y       z     vdW  Elec       q    Type
REMARK                         _______ _______ _______ _____ _____    ______ ____
ROOT
ATOM      1  O   UNL     1       2.957   7.958  18.078  0.00  0.00    +0.000 OA
ENDROOT
BRANCH   1   2
ATOM      2  C   UNL     1       2.388   9.212  17.701  0.00  0.00    +0.000 C 
BRANCH   2   7
ATOM      3  C   UNL     1      -1.150   9.972  18.536  0.00  0.00    +0.000 A 
ATOM      4  C   UNL     1      -1.152   9.992  19.930  0.00  0.00    +0.000 A 
ATOM      5  C   UNL     1       0.034   9.763  20.638  0.00  0.00    +0.000 A 
ATOM      6  C   UNL     1       1.200   9.516  19.913  0.00  0.00    +0.000 A 
ATOM      7  C   UNL     1       1.145   9.484  18.524  0.00  0.00    +0.000 A 
ATOM      8  N   UNL     1      -0.007   9.723  17.846  0.00  0.00    +0.000 NA
BRANCH   3  12
ATOM      9  C   UNL     1      -3.172  10.902  15.366  0.00  0.00    +0.000 C 
ATOM     10  C   UNL     1      -2.455  11.207  16.638  0.00  0.00    +0.000 C 
ATOM     11  C   UNL     1      -3.221  11.466  17.904  0.00  0.00    +0.000 C 
ATOM     12  C   UNL     1      -2.428  10.185  17.755  0.00  0.00    +0.000 C 
ENDBRANCH   3  12
BRANCH   5  13
ATOM     13  C   UNL     1       0.066   9.767  22.141  0.00  0.00    +0.000 C 
ATOM     14  F   UNL     1      -0.156  10.994  22.688  0.00  0.00    +0.000 F 
ATOM     15  F   UNL     1      -0.872   8.944  22.687  0.00  0.00    +0.000 F 
ATOM     16  F   UNL     1       1.264   9.351  22.637  0.00  0.00    +0.000 F 
ENDBRANCH   5  13
ENDBRANCH   2   7
ENDBRANCH   1   2
BRANCH   1  17
ATOM     17  C   UNL     1       2.163   6.839  17.682  0.00  0.00    +0.000 C 
BRANCH  17  18
ATOM     18  C   UNL     1       2.511   5.597  18.557  0.00  0.00    +0.000 C 
ATOM     19  C   UNL     1       1.566   4.418  18.183  0.00  0.00    +0.000 C 
ATOM     20  C   UNL     1       1.753   3.216  19.112  0.00  0.00    +0.000 C 
ATOM     21  N   UNL     1       1.493   3.572  20.511  0.00  0.00    +0.000 NA
ATOM     22  C   UNL     1       1.709   2.412  21.376  0.00  0.00    +0.000 C 
ATOM     23  C   UNL     1       2.324   4.698  20.958  0.00  0.00    +0.000 C 
ATOM     24  C   UNL     1       2.170   5.917  20.045  0.00  0.00    +0.000 C 
BRANCH  18  25
ATOM     25  C   UNL     1       4.009   5.282  18.310  0.00  0.00    +0.000 A 
ATOM     26  C   UNL     1       4.467   4.793  17.069  0.00  0.00    +0.000 A 
ATOM     27  C   UNL     1       5.813   4.474  16.862  0.00  0.00    +0.000 A 
ATOM     28  C   UNL     1       6.723   4.623  17.896  0.00  0.00    +0.000 A 
ATOM     29  F   UNL     1       8.007   4.300  17.703  0.00  0.00    +0.000 F 
ATOM     30  C   UNL     1       6.311   5.092  19.134  0.00  0.00    +0.000 A 
ATOM     31  C   UNL     1       4.965   5.412  19.340  0.00  0.00    +0.000 A 
ENDBRANCH  18  25
ENDBRANCH  17  18
ENDBRANCH   1  17
TORSDOF 7
ENDMDL
MODEL 6
REMARK VINA RESULT:      -8.4      1.069      1.448
REMARK  Name = 
REMARK  9 active torsions:
REMARK  status: ('A' for Active; 'I' for Inactive)
REMARK    1  A    between atoms: C_1  and  C_2
REMARK    2  A    between atoms: C_4  and  C_5
REMARK    3  A    between atoms: C_7  and  C_8
REMARK    4  A    between atoms: C_13  and  C_14
REMARK    5  A    between atoms: C_14  and  O_15
REMARK    6  A    between atoms: O_15  and  C_16
REMARK    7  A    between atoms: C_16  and  C_17
REMARK    8  A    between atoms: C_17  and  C_18
REMARK    9  A    between atoms: N_27  and  C_28
REMARK                            x       y       z     vdW  Elec       q    Type
REMARK                         _______ _______ _______ _____ _____    ______ ____
ROOT
ATOM      1  O   UNL     1       2.130   7.921  17.811  0.00  0.00    +0.000 OA
ENDROOT
BRANCH   1   2
ATOM      2  C   UNL     1       2.130   9.348  17.831  0.00  0.00    +0.000 C 
BRANCH   2   7
ATOM      3  C   UNL     1      -1.468  10.231  18.085  0.00  0.00    +0.000 A 
ATOM      4  C   UNL     1      -1.578  10.760  19.371  0.00  0.00    +0.000 A 
ATOM      5  C   UNL     1      -0.448  10.849  20.193  0.00  0.00    +0.000 A 
ATOM      6  C   UNL     1       0.773  10.396  19.690  0.00  0.00    +0.000 A 
ATOM      7  C   UNL     1       0.825   9.857  18.410  0.00  0.00    +0.000 A 
ATOM      8  N   UNL     1      -0.274   9.790  17.614  0.00  0.00    +0.000 NA
BRANCH   3  12
ATOM      9  C   UNL     1      -3.287  10.213  14.666  0.00  0.00    +0.000 C 
ATOM     10  C   UNL     1      -2.738  10.864  15.890  0.00  0.00    +0.000 C 
ATOM     11  C   UNL     1      -3.646  11.256  17.021  0.00  0.00    +0.000 C 
ATOM     12  C   UNL     1      -2.684  10.098  17.196  0.00  0.00    +0.000 C 
ENDBRANCH   3  12
BRANCH   5  13
ATOM     13  C   UNL     1      -0.531  11.402  21.588  0.00  0.00    +0.000 C 
ATOM     14  F   UNL     1       0.051  10.604  22.526  0.00  0.00    +0.000 F 
ATOM     15  F   UNL     1       0.075  12.616  21.707  0.00  0.00    +0.000 F 
ATOM     16  F   UNL     1      -1.817  11.582  22.001  0.00  0.00    +0.000 F 
ENDBRANCH   5  13
ENDBRANCH   2   7
ENDBRANCH   1   2
BRANCH   1  17
ATOM     17  C   UNL     1       2.719   7.343  18.976  0.00  0.00    +0.000 C 
BRANCH  17  18
ATOM     18  C   UNL     1       2.715   5.787  18.866  0.00  0.00    +0.000 C 
ATOM     19  C   UNL     1       1.596   5.340  17.882  0.00  0.00    +0.000 C 
ATOM     20  C   UNL     1       1.438   3.817  17.848  0.00  0.00    +0.000 C 
ATOM     21  N   UNL     1       1.111   3.280  19.173  0.00  0.00    +0.000 NA
ATOM     22  C   UNL     1       0.996   1.823  19.113  0.00  0.00    +0.000 C 
ATOM     23  C   UNL     1       2.102   3.669  20.186  0.00  0.00    +0.000 C 
ATOM     24  C   UNL     1       2.293   5.187  20.242  0.00  0.00    +0.000 C 
BRANCH  18  25
ATOM     25  C   UNL     1       4.136   5.369  18.407  0.00  0.00    +0.000 A 
ATOM     26  C   UNL     1       5.235   5.393  19.290  0.00  0.00    +0.000 A 
ATOM     27  C   UNL     1       6.522   5.051  18.862  0.00  0.00    +0.000 A 
ATOM     28  C   UNL     1       6.736   4.694  17.541  0.00  0.00    +0.000 A 
ATOM     29  F   UNL     1       7.972   4.385  17.128  0.00  0.00    +0.000 F 
ATOM     30  C   UNL     1       5.684   4.666  16.640  0.00  0.00    +0.000 A 
ATOM     31  C   UNL     1       4.396   5.007  17.068  0.00  0.00    +0.000 A 
ENDBRANCH  18  25
ENDBRANCH  17  18
ENDBRANCH   1  17
TORSDOF 7
ENDMDL
MODEL 7
REMARK VINA RESULT:      -8.4      2.472      3.240
REMARK  Name = 
REMARK  9 active torsions:
REMARK  status: ('A' for Active; 'I' for Inactive)
REMARK    1  A    between atoms: C_1  and  C_2
REMARK    2  A    between atoms: C_4  and  C_5
REMARK    3  A    between atoms: C_7  and  C_8
REMARK    4  A    between atoms: C_13  and  C_14
REMARK    5  A    between atoms: C_14  and  O_15
REMARK    6  A    between atoms: O_15  and  C_16
REMARK    7  A    between atoms: C_16  and  C_17
REMARK    8  A    between atoms: C_17  and  C_18
REMARK    9  A    between atoms: N_27  and  C_28
REMARK                            x       y       z     vdW  Elec       q    Type
REMARK                         _______ _______ _______ _____ _____    ______ ____
ROOT
ATOM      1  O   UNL     1       2.076   8.260  18.657  0.00  0.00    +0.000 OA
ENDROOT
BRANCH   1   2
ATOM      2  C   UNL     1       1.949   9.547  18.052  0.00  0.00    +0.000 C 
BRANCH   2   7
ATOM      3  C   UNL     1      -0.610  11.637  19.747  0.00  0.00    +0.000 A 
ATOM      4  C   UNL     1      -1.791  11.290  19.092  0.00  0.00    +0.000 A 
ATOM      5  C   UNL     1      -1.772  10.336  18.068  0.00  0.00    +0.000 A 
ATOM      6  C   UNL     1      -0.550   9.754  17.728  0.00  0.00    +0.000 A 
ATOM      7  C   UNL     1       0.603  10.150  18.396  0.00  0.00    +0.000 A 
ATOM      8  N   UNL     1       0.572  11.065  19.400  0.00  0.00    +0.000 NA
BRANCH   3  12
ATOM      9  C   UNL     1      -1.318  15.171  21.164  0.00  0.00    +0.000 C 
ATOM     10  C   UNL     1      -0.494  14.151  20.453  0.00  0.00    +0.000 C 
ATOM     11  C   UNL     1       0.651  13.471  21.149  0.00  0.00    +0.000 C 
ATOM     12  C   UNL     1      -0.607  12.689  20.834  0.00  0.00    +0.000 C 
ENDBRANCH   3  12
BRANCH   5  13
ATOM     13  C   UNL     1      -3.024   9.946  17.332  0.00  0.00    +0.000 C 
ATOM     14  F   UNL     1      -3.935  10.954  17.235  0.00  0.00    +0.000 F 
ATOM     15  F   UNL     1      -2.777   9.544  16.054  0.00  0.00    +0.000 F 
ATOM     16  F   UNL     1      -3.679   8.912  17.930  0.00  0.00    +0.000 F 
ENDBRANCH   5  13
ENDBRANCH   2   7
ENDBRANCH   1   2
BRANCH   1  17
ATOM     17  C   UNL     1       2.529   7.256  17.750  0.00  0.00    +0.000 C 
BRANCH  17  18
ATOM     18  C   UNL     1       2.676   5.890  18.488  0.00  0.00    +0.000 C 
ATOM     19  C   UNL     1       1.606   4.895  17.954  0.00  0.00    +0.000 C 
ATOM     20  C   UNL     1       1.596   3.584  18.746  0.00  0.00    +0.000 C 
ATOM     21  N   UNL     1       1.323   3.817  20.168  0.00  0.00    +0.000 NA
ATOM     22  C   UNL     1       1.350   2.551  20.901  0.00  0.00    +0.000 C 
ATOM     23  C   UNL     1       2.271   4.768  20.764  0.00  0.00    +0.000 C 
ATOM     24  C   UNL     1       2.314   6.089  19.991  0.00  0.00    +0.000 C 
BRANCH  18  25
ATOM     25  C   UNL     1       4.131   5.409  18.250  0.00  0.00    +0.000 A 
ATOM     26  C   UNL     1       5.139   5.600  19.217  0.00  0.00    +0.000 A 
ATOM     27  C   UNL     1       6.459   5.199  18.984  0.00  0.00    +0.000 A 
ATOM     28  C   UNL     1       6.797   4.614  17.774  0.00  0.00    +0.000 A 
ATOM     29  F   UNL     1       8.064   4.247  17.544  0.00  0.00    +0.000 F 
ATOM     30  C   UNL     1       5.836   4.416  16.795  0.00  0.00    +0.000 A 
ATOM     31  C   UNL     1       4.516   4.816  17.029  0.00  0.00    +0.000 A 
ENDBRANCH  18  25
ENDBRANCH  17  18
ENDBRANCH   1  17
TORSDOF 7
ENDMDL
MODEL 8
REMARK VINA RESULT:      -8.3      2.318      3.147
REMARK  Name = 
REMARK  9 active torsions:
REMARK  status: ('A' for Active; 'I' for Inactive)
REMARK    1  A    between atoms: C_1  and  C_2
REMARK    2  A    between atoms: C_4  and  C_5
REMARK    3  A    between atoms: C_7  and  C_8
REMARK    4  A    between atoms: C_13  and  C_14
REMARK    5  A    between atoms: C_14  and  O_15
REMARK    6  A    between atoms: O_15  and  C_16
REMARK    7  A    between atoms: C_16  and  C_17
REMARK    8  A    between atoms: C_17  and  C_18
REMARK    9  A    between atoms: N_27  and  C_28
REMARK                            x       y       z     vdW  Elec       q    Type
REMARK                         _______ _______ _______ _____ _____    ______ ____
ROOT
ATOM      1  O   UNL     1       2.368   8.214  18.641  0.00  0.00    +0.000 OA
ENDROOT
BRANCH   1   2
ATOM      2  C   UNL     1       2.129   9.457  17.980  0.00  0.00    +0.000 C 
BRANCH   2   7
ATOM      3  C   UNL     1      -0.475  11.274  19.905  0.00  0.00    +0.000 A 
ATOM      4  C   UNL     1      -1.640  11.027  19.179  0.00  0.00    +0.000 A 
ATOM      5  C   UNL     1      -1.595  10.234  18.026  0.00  0.00    +0.000 A 
ATOM      6  C   UNL     1      -0.363   9.708  17.633  0.00  0.00    +0.000 A 
ATOM      7  C   UNL     1       0.773  10.002  18.378  0.00  0.00    +0.000 A 
ATOM      8  N   UNL     1       0.716  10.759  19.504  0.00  0.00    +0.000 NA
BRANCH   3  12
ATOM      9  C   UNL     1      -1.855  12.402  23.343  0.00  0.00    +0.000 C 
ATOM     10  C   UNL     1      -1.813  12.391  21.853  0.00  0.00    +0.000 C 
ATOM     11  C   UNL     1      -1.162  13.516  21.098  0.00  0.00    +0.000 C 
ATOM     12  C   UNL     1      -0.500  12.154  21.135  0.00  0.00    +0.000 C 
ENDBRANCH   3  12
BRANCH   5  13
ATOM     13  C   UNL     1      -2.828   9.957  17.213  0.00  0.00    +0.000 C 
ATOM     14  F   UNL     1      -2.563   9.447  15.978  0.00  0.00    +0.000 F 
ATOM     15  F   UNL     1      -3.661   9.061  17.813  0.00  0.00    +0.000 F 
ATOM     16  F   UNL     1      -3.574  11.077  16.999  0.00  0.00    +0.000 F 
ENDBRANCH   5  13
ENDBRANCH   2   7
ENDBRANCH   1   2
BRANCH   1  17
ATOM     17  C   UNL     1       2.409   7.101  17.748  0.00  0.00    +0.000 C 
BRANCH  17  18
ATOM     18  C   UNL     1       2.621   5.778  18.546  0.00  0.00    +0.000 C 
ATOM     19  C   UNL     1       1.578   4.720  18.083  0.00  0.00    +0.000 C 
ATOM     20  C   UNL     1       1.634   3.450  18.935  0.00  0.00    +0.000 C 
ATOM     21  N   UNL     1       1.382   3.740  20.351  0.00  0.00    +0.000 NA
ATOM     22  C   UNL     1       1.471   2.512  21.141  0.00  0.00    +0.000 C 
ATOM     23  C   UNL     1       2.305   4.752  20.881  0.00  0.00    +0.000 C 
ATOM     24  C   UNL     1       2.283   6.035  20.046  0.00  0.00    +0.000 C 
BRANCH  18  25
ATOM     25  C   UNL     1       4.088   5.340  18.299  0.00  0.00    +0.000 A 
ATOM     26  C   UNL     1       5.098   5.565  19.256  0.00  0.00    +0.000 A 
ATOM     27  C   UNL     1       6.427   5.203  19.014  0.00  0.00    +0.000 A 
ATOM     28  C   UNL     1       6.773   4.622  17.805  0.00  0.00    +0.000 A 
ATOM     29  F   UNL     1       8.049   4.292  17.567  0.00  0.00    +0.000 F 
ATOM     30  C   UNL     1       5.811   4.391  16.835  0.00  0.00    +0.000 A 
ATOM     31  C   UNL     1       4.482   4.753  17.078  0.00  0.00    +0.000 A 
ENDBRANCH  18  25
ENDBRANCH  17  18
ENDBRANCH   1  17
TORSDOF 7
ENDMDL
MODEL 9
REMARK VINA RESULT:      -8.3      2.921      8.546
REMARK  Name = 
REMARK  9 active torsions:
REMARK  status: ('A' for Active; 'I' for Inactive)
REMARK    1  A    between atoms: C_1  and  C_2
REMARK    2  A    between atoms: C_4  and  C_5
REMARK    3  A    between atoms: C_7  and  C_8
REMARK    4  A    between atoms: C_13  and  C_14
REMARK    5  A    between atoms: C_14  and  O_15
REMARK    6  A    between atoms: O_15  and  C_16
REMARK    7  A    between atoms: C_16  and  C_17
REMARK    8  A    between atoms: C_17  and  C_18
REMARK    9  A    between atoms: N_27  and  C_28
REMARK                            x       y       z     vdW  Elec       q    Type
REMARK                         _______ _______ _______ _____ _____    ______ ____
ROOT
ATOM      1  O   UNL     1       2.088   8.492  18.208  0.00  0.00    +0.000 OA
ENDROOT
BRANCH   1   2
ATOM      2  C   UNL     1       3.353   8.284  17.581  0.00  0.00    +0.000 C 
BRANCH   2   7
ATOM      3  C   UNL     1       2.963   4.614  17.992  0.00  0.00    +0.000 A 
ATOM      4  C   UNL     1       4.080   4.098  17.337  0.00  0.00    +0.000 A 
ATOM      5  C   UNL     1       5.009   4.963  16.746  0.00  0.00    +0.000 A 
ATOM      6  C   UNL     1       4.781   6.337  16.830  0.00  0.00    +0.000 A 
ATOM      7  C   UNL     1       3.640   6.800  17.474  0.00  0.00    +0.000 A 
ATOM      8  N   UNL     1       2.753   5.954  18.060  0.00  0.00    +0.000 NA
BRANCH   3  12
ATOM      9  C   UNL     1       1.147   2.933  20.971  0.00  0.00    +0.000 C 
ATOM     10  C   UNL     1       2.224   3.042  19.945  0.00  0.00    +0.000 C 
ATOM     11  C   UNL     1       2.182   2.203  18.700  0.00  0.00    +0.000 C 
ATOM     12  C   UNL     1       1.933   3.694  18.609  0.00  0.00    +0.000 C 
ENDBRANCH   3  12
BRANCH   5  13
ATOM     13  C   UNL     1       6.219   4.441  16.022  0.00  0.00    +0.000 C 
ATOM     14  F   UNL     1       7.279   4.195  16.841  0.00  0.00    +0.000 F 
ATOM     15  F   UNL     1       5.975   3.270  15.370  0.00  0.00    +0.000 F 
ATOM     16  F   UNL     1       6.675   5.309  15.076  0.00  0.00    +0.000 F 
ENDBRANCH   5  13
ENDBRANCH   2   7
ENDBRANCH   1   2
BRANCH   1  17
ATOM     17  C   UNL     1       1.601   9.826  18.062  0.00  0.00    +0.000 C 
BRANCH  17  18
ATOM     18  C   UNL     1       0.560  10.145  19.178  0.00  0.00    +0.000 C 
ATOM     19  C   UNL     1       1.051  11.364  20.012  0.00  0.00    +0.000 C 
ATOM     20  C   UNL     1       0.149  11.632  21.220  0.00  0.00    +0.000 C 
ATOM     21  N   UNL     1       0.088  10.471  22.114  0.00  0.00    +0.000 NA
ATOM     22  C   UNL     1      -0.803  10.748  23.241  0.00  0.00    +0.000 C 
ATOM     23  C   UNL     1      -0.345   9.255  21.413  0.00  0.00    +0.000 C 
ATOM     24  C   UNL     1       0.530   8.960  20.192  0.00  0.00    +0.000 C 
BRANCH  18  25
ATOM     25  C   UNL     1      -0.794  10.397  18.466  0.00  0.00    +0.000 A 
ATOM     26  C   UNL     1      -1.197   9.633  17.352  0.00  0.00    +0.000 A 
ATOM     27  C   UNL     1      -2.402   9.889  16.689  0.00  0.00    +0.000 A 
ATOM     28  C   UNL     1      -3.218  10.923  17.118  0.00  0.00    +0.000 A 
ATOM     29  F   UNL     1      -4.362  11.179  16.471  0.00  0.00    +0.000 F 
ATOM     30  C   UNL     1      -2.853  11.703  18.204  0.00  0.00    +0.000 A 
ATOM     31  C   UNL     1      -1.649  11.446  18.868  0.00  0.00    +0.000 A 
ENDBRANCH  18  25
ENDBRANCH  17  18
ENDBRANCH   1  17
TORSDOF 7
ENDMDL
