MODEL 1
REMARK VINA RESULT:      -8.1      0.000      0.000
REMARK  Name = 
REMARK  7 active torsions:
REMARK  status: ('A' for Active; 'I' for Inactive)
REMARK    1  A    between atoms: C_1  and  C_2
REMARK    2  A    between atoms: C_2  and  O_4
REMARK    3  A    between atoms: O_4  and  C_5
REMARK    4  A    between atoms: C_11  and  N_12
REMARK    5  A    between atoms: C_20  and  O_21
REMARK    6  A    between atoms: O_21  and  C_22
REMARK    7  A    between atoms: C_22  and  C_23
REMARK                            x       y       z     vdW  Elec       q    Type
REMARK                         _______ _______ _______ _____ _____    ______ ____
ROOT
ATOM      1  C   UNL     1       6.306   5.318  15.165  0.00  0.00    +0.000 C 
ATOM      2  C   UNL     1       5.338   4.185  15.552  0.00  0.00    +0.000 C 
ATOM      3  C   UNL     1       4.238   4.619  16.523  0.00  0.00    +0.000 C 
ATOM      4  C   UNL     1       4.286   5.822  17.171  0.00  0.00    +0.000 C 
ATOM      5  C   UNL     1       3.145   6.317  18.038  0.00  0.00    +0.000 C 
ATOM      6  C   UNL     1       1.826   5.558  17.806  0.00  0.00    +0.000 C 
ATOM      7  C   UNL     1       1.983   4.027  17.740  0.00  0.00    +0.000 C 
ATOM      8  C   UNL     1       3.073   3.647  16.700  0.00  0.00    +0.000 C 
ATOM      9  C   UNL     1       5.477   6.768  17.037  0.00  0.00    +0.000 C 
ATOM     10  C   UNL     1       6.724   6.154  16.378  0.00  0.00    +0.000 C 
ENDROOT
BRANCH   7  11
ATOM     11  N   UNL     1       2.109   3.308  19.047  0.00  0.00    +0.000 NA
ATOM     12  C   UNL     1       3.457   3.227  19.642  0.00  0.00    +0.000 C 
ATOM     13  C   UNL     1       3.454   2.281  20.854  0.00  0.00    +0.000 C 
ATOM     14  C   UNL     1       2.454   2.780  21.899  0.00  0.00    +0.000 C 
ATOM     15  C   UNL     1       1.070   2.875  21.264  0.00  0.00    +0.000 C 
ATOM     16  C   UNL     1       1.121   3.801  20.042  0.00  0.00    +0.000 C 
ENDBRANCH   7  11
BRANCH   1  17
ATOM     17  O   UNL     1       7.421   4.801  14.521  0.00  0.00    +0.000 OA
BRANCH  17  19
ATOM     18  C   UNL     1       7.273   4.503  12.070  0.00  0.00    +0.000 C 
ATOM     19  C   UNL     1       7.867   5.156  13.283  0.00  0.00    +0.000 C 
ATOM     20  O   UNL     1       8.752   5.987  13.145  0.00  0.00    +0.000 OA
ENDBRANCH  17  19
ENDBRANCH   1  17
BRANCH  10  21
ATOM     21  O   UNL     1       7.576   5.505  17.274  0.00  0.00    +0.000 OA
BRANCH  21  22
ATOM     22  C   UNL     1       7.447   5.179  18.589  0.00  0.00    +0.000 C 
ATOM     23  C   UNL     1       8.201   5.965  19.612  0.00  0.00    +0.000 C 
ATOM     24  O   UNL     1       6.715   4.285  18.964  0.00  0.00    +0.000 OA
ENDBRANCH  21  22
ENDBRANCH  10  21
TORSDOF 5
ENDMDL
MODEL 2
REMARK VINA RESULT:      -7.9      0.500      1.119
REMARK  Name = 
REMARK  7 active torsions:
REMARK  status: ('A' for Active; 'I' for Inactive)
REMARK    1  A    between atoms: C_1  and  C_2
REMARK    2  A    between atoms: C_2  and  O_4
REMARK    3  A    between atoms: O_4  and  C_5
REMARK    4  A    between atoms: C_11  and  N_12
REMARK    5  A    between atoms: C_20  and  O_21
REMARK    6  A    between atoms: O_21  and  C_22
REMARK    7  A    between atoms: C_22  and  C_23
REMARK                            x       y       z     vdW  Elec       q    Type
REMARK                         _______ _______ _______ _____ _____    ______ ____
ROOT
ATOM      1  C   UNL     1       6.120   5.304  15.100  0.00  0.00    +0.000 C 
ATOM      2  C   UNL     1       5.118   4.284  15.672  0.00  0.00    +0.000 C 
ATOM      3  C   UNL     1       4.148   4.878  16.694  0.00  0.00    +0.000 C 
ATOM      4  C   UNL     1       4.339   6.124  17.225  0.00  0.00    +0.000 C 
ATOM      5  C   UNL     1       3.322   6.773  18.143  0.00  0.00    +0.000 C 
ATOM      6  C   UNL     1       1.939   6.100  18.098  0.00  0.00    +0.000 C 
ATOM      7  C   UNL     1       1.984   4.561  18.155  0.00  0.00    +0.000 C 
ATOM      8  C   UNL     1       2.942   4.015  17.060  0.00  0.00    +0.000 C 
ATOM      9  C   UNL     1       5.573   6.962  16.902  0.00  0.00    +0.000 C 
ATOM     10  C   UNL     1       6.707   6.203  16.192  0.00  0.00    +0.000 C 
ENDROOT
BRANCH   7  11
ATOM     11  N   UNL     1       2.185   3.945  19.505  0.00  0.00    +0.000 NA
ATOM     12  C   UNL     1       0.981   3.477  20.216  0.00  0.00    +0.000 C 
ATOM     13  C   UNL     1       1.329   3.078  21.660  0.00  0.00    +0.000 C 
ATOM     14  C   UNL     1       2.388   1.974  21.651  0.00  0.00    +0.000 C 
ATOM     15  C   UNL     1       3.620   2.467  20.897  0.00  0.00    +0.000 C 
ATOM     16  C   UNL     1       3.226   2.884  19.474  0.00  0.00    +0.000 C 
ENDBRANCH   7  11
BRANCH   1  17
ATOM     17  O   UNL     1       7.130   4.653  14.408  0.00  0.00    +0.000 OA
BRANCH  17  19
ATOM     18  C   UNL     1       6.803   3.808  12.107  0.00  0.00    +0.000 C 
ATOM     19  C   UNL     1       7.402   4.780  13.078  0.00  0.00    +0.000 C 
ATOM     20  O   UNL     1       8.136   5.666  12.666  0.00  0.00    +0.000 OA
ENDBRANCH  17  19
ENDBRANCH   1  17
BRANCH  10  21
ATOM     21  O   UNL     1       7.594   5.568  17.063  0.00  0.00    +0.000 OA
BRANCH  21  22
ATOM     22  C   UNL     1       7.477   5.161  18.356  0.00  0.00    +0.000 C 
ATOM     23  C   UNL     1       8.134   5.960  19.434  0.00  0.00    +0.000 C 
ATOM     24  O   UNL     1       6.830   4.182  18.668  0.00  0.00    +0.000 OA
ENDBRANCH  21  22
ENDBRANCH  10  21
TORSDOF 5
ENDMDL
MODEL 3
REMARK VINA RESULT:      -7.7      4.575      6.706
REMARK  Name = 
REMARK  7 active torsions:
REMARK  status: ('A' for Active; 'I' for Inactive)
REMARK    1  A    between atoms: C_1  and  C_2
REMARK    2  A    between atoms: C_2  and  O_4
REMARK    3  A    between atoms: O_4  and  C_5
REMARK    4  A    between atoms: C_11  and  N_12
REMARK    5  A    between atoms: C_20  and  O_21
REMARK    6  A    between atoms: O_21  and  C_22
REMARK    7  A    between atoms: C_22  and  C_23
REMARK                            x       y       z     vdW  Elec       q    Type
REMARK                         _______ _______ _______ _____ _____    ______ ____
ROOT
ATOM      1  C   UNL     1       3.611   6.769  18.194  0.00  0.00    +0.000 C 
ATOM      2  C   UNL     1       2.858   7.990  17.635  0.00  0.00    +0.000 C 
ATOM      3  C   UNL     1       1.947   8.674  18.656  0.00  0.00    +0.000 C 
ATOM      4  C   UNL     1       1.647   8.090  19.855  0.00  0.00    +0.000 C 
ATOM      5  C   UNL     1       0.848   8.808  20.924  0.00  0.00    +0.000 C 
ATOM      6  C   UNL     1       0.759  10.329  20.703  0.00  0.00    +0.000 C 
ATOM      7  C   UNL     1       0.432  10.738  19.254  0.00  0.00    +0.000 C 
ATOM      8  C   UNL     1       1.422  10.056  18.271  0.00  0.00    +0.000 C 
ATOM      9  C   UNL     1       2.125   6.686  20.215  0.00  0.00    +0.000 C 
ATOM     10  C   UNL     1       2.701   5.874  19.042  0.00  0.00    +0.000 C 
ENDROOT
BRANCH   7  11
ATOM     11  N   UNL     1      -1.003  10.644  18.839  0.00  0.00    +0.000 NA
ATOM     12  C   UNL     1      -1.813  11.874  18.937  0.00  0.00    +0.000 C 
ATOM     13  C   UNL     1      -3.298  11.561  18.687  0.00  0.00    +0.000 C 
ATOM     14  C   UNL     1      -3.469  10.935  17.301  0.00  0.00    +0.000 C 
ATOM     15  C   UNL     1      -2.613   9.676  17.210  0.00  0.00    +0.000 C 
ATOM     16  C   UNL     1      -1.146  10.023  17.496  0.00  0.00    +0.000 C 
ENDBRANCH   7  11
BRANCH   1  17
ATOM     17  O   UNL     1       4.187   6.042  17.163  0.00  0.00    +0.000 OA
BRANCH  17  19
ATOM     18  C   UNL     1       6.653   6.210  17.093  0.00  0.00    +0.000 C 
ATOM     19  C   UNL     1       5.304   6.390  16.463  0.00  0.00    +0.000 C 
ATOM     20  O   UNL     1       5.223   6.858  15.337  0.00  0.00    +0.000 OA
ENDBRANCH  17  19
ENDBRANCH   1  17
BRANCH  10  21
ATOM     21  O   UNL     1       1.741   5.162  18.321  0.00  0.00    +0.000 OA
BRANCH  21  22
ATOM     22  C   UNL     1       1.603   3.839  18.035  0.00  0.00    +0.000 C 
ATOM     23  C   UNL     1       0.858   2.960  18.986  0.00  0.00    +0.000 C 
ATOM     24  O   UNL     1       2.042   3.350  17.013  0.00  0.00    +0.000 OA
ENDBRANCH  21  22
ENDBRANCH  10  21
TORSDOF 5
ENDMDL
MODEL 4
REMARK VINA RESULT:      -7.2      4.785      7.152
REMARK  Name = 
REMARK  7 active torsions:
REMARK  status: ('A' for Active; 'I' for Inactive)
REMARK    1  A    between atoms: C_1  and  C_2
REMARK    2  A    between atoms: C_2  and  O_4
REMARK    3  A    between atoms: O_4  and  C_5
REMARK    4  A    between atoms: C_11  and  N_12
REMARK    5  A    between atoms: C_20  and  O_21
REMARK    6  A    between atoms: O_21  and  C_22
REMARK    7  A    between atoms: C_22  and  C_23
REMARK                            x       y       z     vdW  Elec       q    Type
REMARK                         _______ _______ _______ _____ _____    ______ ____
ROOT
ATOM      1  C   UNL     1       3.264   6.621  18.768  0.00  0.00    +0.000 C 
ATOM      2  C   UNL     1       2.492   7.666  17.942  0.00  0.00    +0.000 C 
ATOM      3  C   UNL     1       1.671   8.638  18.790  0.00  0.00    +0.000 C 
ATOM      4  C   UNL     1       1.450   8.420  20.122  0.00  0.00    +0.000 C 
ATOM      5  C   UNL     1       0.745   9.435  20.999  0.00  0.00    +0.000 C 
ATOM      6  C   UNL     1       0.665  10.838  20.370  0.00  0.00    +0.000 C 
ATOM      7  C   UNL     1       0.238  10.842  18.890  0.00  0.00    +0.000 C 
ATOM      8  C   UNL     1       1.142   9.879  18.072  0.00  0.00    +0.000 C 
ATOM      9  C   UNL     1       1.931   7.154  20.826  0.00  0.00    +0.000 C 
ATOM     10  C   UNL     1       2.405   6.029  19.889  0.00  0.00    +0.000 C 
ENDROOT
BRANCH   7  11
ATOM     11  N   UNL     1      -1.225  10.689  18.614  0.00  0.00    +0.000 NA
ATOM     12  C   UNL     1      -2.053  11.909  18.680  0.00  0.00    +0.000 C 
ATOM     13  C   UNL     1      -3.546  11.552  18.591  0.00  0.00    +0.000 C 
ATOM     14  C   UNL     1      -3.823  10.807  17.283  0.00  0.00    +0.000 C 
ATOM     15  C   UNL     1      -2.948   9.558  17.222  0.00  0.00    +0.000 C 
ATOM     16  C   UNL     1      -1.470   9.953  17.346  0.00  0.00    +0.000 C 
ENDBRANCH   7  11
BRANCH   1  17
ATOM     17  O   UNL     1       3.750   5.617  17.944  0.00  0.00    +0.000 OA
BRANCH  17  19
ATOM     18  C   UNL     1       5.931   5.077  18.977  0.00  0.00    +0.000 C 
ATOM     19  C   UNL     1       4.662   4.665  18.292  0.00  0.00    +0.000 C 
ATOM     20  O   UNL     1       4.469   3.484  18.044  0.00  0.00    +0.000 OA
ENDBRANCH  17  19
ENDBRANCH   1  17
BRANCH  10  21
ATOM     21  O   UNL     1       1.382   5.181  19.461  0.00  0.00    +0.000 OA
BRANCH  21  22
ATOM     22  C   UNL     1       1.098   3.877  19.728  0.00  0.00    +0.000 C 
ATOM     23  C   UNL     1       1.009   2.903  18.599  0.00  0.00    +0.000 C 
ATOM     24  O   UNL     1       0.941   3.471  20.862  0.00  0.00    +0.000 OA
ENDBRANCH  21  22
ENDBRANCH  10  21
TORSDOF 5
ENDMDL
MODEL 5
REMARK VINA RESULT:      -7.2      4.455      6.783
REMARK  Name = 
REMARK  7 active torsions:
REMARK  status: ('A' for Active; 'I' for Inactive)
REMARK    1  A    between atoms: C_1  and  C_2
REMARK    2  A    between atoms: C_2  and  O_4
REMARK    3  A    between atoms: O_4  and  C_5
REMARK    4  A    between atoms: C_11  and  N_12
REMARK    5  A    between atoms: C_20  and  O_21
REMARK    6  A    between atoms: O_21  and  C_22
REMARK    7  A    between atoms: C_22  and  C_23
REMARK                            x       y       z     vdW  Elec       q    Type
REMARK                         _______ _______ _______ _____ _____    ______ ____
ROOT
ATOM      1  C   UNL     1       3.588   6.474  18.690  0.00  0.00    +0.000 C 
ATOM      2  C   UNL     1       3.059   7.675  17.885  0.00  0.00    +0.000 C 
ATOM      3  C   UNL     1       2.104   8.573  18.674  0.00  0.00    +0.000 C 
ATOM      4  C   UNL     1       1.583   8.186  19.877  0.00  0.00    +0.000 C 
ATOM      5  C   UNL     1       0.736   9.114  20.725  0.00  0.00    +0.000 C 
ATOM      6  C   UNL     1       0.849  10.593  20.314  0.00  0.00    +0.000 C 
ATOM      7  C   UNL     1       0.765  10.834  18.795  0.00  0.00    +0.000 C 
ATOM      8  C   UNL     1       1.794   9.936  18.055  0.00  0.00    +0.000 C 
ATOM      9  C   UNL     1       1.848   6.804  20.468  0.00  0.00    +0.000 C 
ATOM     10  C   UNL     1       2.479   5.791  19.496  0.00  0.00    +0.000 C 
ENDROOT
BRANCH   7  11
ATOM     11  N   UNL     1      -0.604  10.822  18.188  0.00  0.00    +0.000 NA
ATOM     12  C   UNL     1      -1.019   9.590  17.491  0.00  0.00    +0.000 C 
ATOM     13  C   UNL     1      -2.344   9.815  16.744  0.00  0.00    +0.000 C 
ATOM     14  C   UNL     1      -3.430  10.243  17.734  0.00  0.00    +0.000 C 
ATOM     15  C   UNL     1      -2.979  11.507  18.459  0.00  0.00    +0.000 C 
ATOM     16  C   UNL     1      -1.640  11.252  19.163  0.00  0.00    +0.000 C 
ENDBRANCH   7  11
BRANCH   1  17
ATOM     17  O   UNL     1       4.210   5.565  17.848  0.00  0.00    +0.000 OA
BRANCH  17  19
ATOM     18  C   UNL     1       6.633   5.094  18.007  0.00  0.00    +0.000 C 
ATOM     19  C   UNL     1       5.200   4.695  18.198  0.00  0.00    +0.000 C 
ATOM     20  O   UNL     1       4.939   3.591  18.654  0.00  0.00    +0.000 OA
ENDBRANCH  17  19
ENDBRANCH   1  17
BRANCH  10  21
ATOM     21  O   UNL     1       1.548   5.084  18.733  0.00  0.00    +0.000 OA
BRANCH  21  22
ATOM     22  C   UNL     1       1.406   3.759  18.455  0.00  0.00    +0.000 C 
ATOM     23  C   UNL     1       0.884   2.844  19.515  0.00  0.00    +0.000 C 
ATOM     24  O   UNL     1       1.663   3.297  17.362  0.00  0.00    +0.000 OA
ENDBRANCH  21  22
ENDBRANCH  10  21
TORSDOF 5
ENDMDL
MODEL 6
REMARK VINA RESULT:      -7.2      4.394      6.503
REMARK  Name = 
REMARK  7 active torsions:
REMARK  status: ('A' for Active; 'I' for Inactive)
REMARK    1  A    between atoms: C_1  and  C_2
REMARK    2  A    between atoms: C_2  and  O_4
REMARK    3  A    between atoms: O_4  and  C_5
REMARK    4  A    between atoms: C_11  and  N_12
REMARK    5  A    between atoms: C_20  and  O_21
REMARK    6  A    between atoms: O_21  and  C_22
REMARK    7  A    between atoms: C_22  and  C_23
REMARK                            x       y       z     vdW  Elec       q    Type
REMARK                         _______ _______ _______ _____ _____    ______ ____
ROOT
ATOM      1  C   UNL     1       3.724   6.554  18.302  0.00  0.00    +0.000 C 
ATOM      2  C   UNL     1       3.144   7.789  17.588  0.00  0.00    +0.000 C 
ATOM      3  C   UNL     1       2.192   8.613  18.457  0.00  0.00    +0.000 C 
ATOM      4  C   UNL     1       1.716   8.141  19.648  0.00  0.00    +0.000 C 
ATOM      5  C   UNL     1       0.874   8.994  20.575  0.00  0.00    +0.000 C 
ATOM      6  C   UNL     1       0.942  10.498  20.253  0.00  0.00    +0.000 C 
ATOM      7  C   UNL     1       0.807  10.829  18.755  0.00  0.00    +0.000 C 
ATOM      8  C   UNL     1       1.834  10.003  17.932  0.00  0.00    +0.000 C 
ATOM      9  C   UNL     1       2.029   6.732  20.144  0.00  0.00    +0.000 C 
ATOM     10  C   UNL     1       2.654   5.796  19.095  0.00  0.00    +0.000 C 
ENDROOT
BRANCH   7  11
ATOM     11  N   UNL     1      -0.578  10.821  18.187  0.00  0.00    +0.000 NA
ATOM     12  C   UNL     1      -1.043   9.566  17.567  0.00  0.00    +0.000 C 
ATOM     13  C   UNL     1      -2.383   9.786  16.846  0.00  0.00    +0.000 C 
ATOM     14  C   UNL     1      -3.430  10.292  17.841  0.00  0.00    +0.000 C 
ATOM     15  C   UNL     1      -2.927  11.581  18.485  0.00  0.00    +0.000 C 
ATOM     16  C   UNL     1      -1.575  11.328  19.166  0.00  0.00    +0.000 C 
ENDBRANCH   7  11
BRANCH   1  17
ATOM     17  O   UNL     1       4.341   5.713  17.388  0.00  0.00    +0.000 OA
BRANCH  17  19
ATOM     18  C   UNL     1       5.830   5.281  15.461  0.00  0.00    +0.000 C 
ATOM     19  C   UNL     1       5.542   5.932  16.781  0.00  0.00    +0.000 C 
ATOM     20  O   UNL     1       6.392   6.640  17.300  0.00  0.00    +0.000 OA
ENDBRANCH  17  19
ENDBRANCH   1  17
BRANCH  10  21
ATOM     21  O   UNL     1       1.718   5.115  18.316  0.00  0.00    +0.000 OA
BRANCH  21  22
ATOM     22  C   UNL     1       1.565   3.798  18.007  0.00  0.00    +0.000 C 
ATOM     23  C   UNL     1       0.825   2.908  18.952  0.00  0.00    +0.000 C 
ATOM     24  O   UNL     1       1.988   3.325  16.971  0.00  0.00    +0.000 OA
ENDBRANCH  21  22
ENDBRANCH  10  21
TORSDOF 5
ENDMDL
MODEL 7
REMARK VINA RESULT:      -7.1      5.642      8.097
REMARK  Name = 
REMARK  7 active torsions:
REMARK  status: ('A' for Active; 'I' for Inactive)
REMARK    1  A    between atoms: C_1  and  C_2
REMARK    2  A    between atoms: C_2  and  O_4
REMARK    3  A    between atoms: O_4  and  C_5
REMARK    4  A    between atoms: C_11  and  N_12
REMARK    5  A    between atoms: C_20  and  O_21
REMARK    6  A    between atoms: O_21  and  C_22
REMARK    7  A    between atoms: C_22  and  C_23
REMARK                            x       y       z     vdW  Elec       q    Type
REMARK                         _______ _______ _______ _____ _____    ______ ____
ROOT
ATOM      1  C   UNL     1       0.607  10.224  20.128  0.00  0.00    +0.000 C 
ATOM      2  C   UNL     1       0.898   8.815  20.677  0.00  0.00    +0.000 C 
ATOM      3  C   UNL     1       1.798   7.974  19.770  0.00  0.00    +0.000 C 
ATOM      4  C   UNL     1       2.085   8.356  18.489  0.00  0.00    +0.000 C 
ATOM      5  C   UNL     1       3.072   7.598  17.624  0.00  0.00    +0.000 C 
ATOM      6  C   UNL     1       3.978   6.642  18.422  0.00  0.00    +0.000 C 
ATOM      7  C   UNL     1       3.231   5.790  19.465  0.00  0.00    +0.000 C 
ATOM      8  C   UNL     1       2.379   6.703  20.389  0.00  0.00    +0.000 C 
ATOM      9  C   UNL     1       1.460   9.595  17.854  0.00  0.00    +0.000 C 
ATOM     10  C   UNL     1       0.278  10.200  18.632  0.00  0.00    +0.000 C 
ENDROOT
BRANCH   7  11
ATOM     11  N   UNL     1       2.500   4.588  18.952  0.00  0.00    +0.000 NA
ATOM     12  C   UNL     1       3.308   3.535  18.309  0.00  0.00    +0.000 C 
ATOM     13  C   UNL     1       2.397   2.487  17.647  0.00  0.00    +0.000 C 
ATOM     14  C   UNL     1       1.475   1.865  18.699  0.00  0.00    +0.000 C 
ATOM     15  C   UNL     1       0.660   2.968  19.367  0.00  0.00    +0.000 C 
ATOM     16  C   UNL     1       1.603   4.009  19.985  0.00  0.00    +0.000 C 
ENDBRANCH   7  11
BRANCH   1  17
ATOM     17  O   UNL     1      -0.422  10.818  20.844  0.00  0.00    +0.000 OA
BRANCH  17  19
ATOM     18  C   UNL     1      -1.250  11.866  22.926  0.00  0.00    +0.000 C 
ATOM     19  C   UNL     1      -0.284  11.799  21.780  0.00  0.00    +0.000 C 
ATOM     20  O   UNL     1       0.606  12.633  21.696  0.00  0.00    +0.000 OA
ENDBRANCH  17  19
ENDBRANCH   1  17
BRANCH  10  21
ATOM     21  O   UNL     1      -0.958   9.637  18.311  0.00  0.00    +0.000 OA
BRANCH  21  22
ATOM     22  C   UNL     1      -2.112  10.172  17.828  0.00  0.00    +0.000 C 
ATOM     23  C   UNL     1      -2.151  11.623  17.474  0.00  0.00    +0.000 C 
ATOM     24  O   UNL     1      -3.109   9.501  17.648  0.00  0.00    +0.000 OA
ENDBRANCH  21  22
ENDBRANCH  10  21
TORSDOF 5
ENDMDL
MODEL 8
REMARK VINA RESULT:      -7.1      5.980      8.538
REMARK  Name = 
REMARK  7 active torsions:
REMARK  status: ('A' for Active; 'I' for Inactive)
REMARK    1  A    between atoms: C_1  and  C_2
REMARK    2  A    between atoms: C_2  and  O_4
REMARK    3  A    between atoms: O_4  and  C_5
REMARK    4  A    between atoms: C_11  and  N_12
REMARK    5  A    between atoms: C_20  and  O_21
REMARK    6  A    between atoms: O_21  and  C_22
REMARK    7  A    between atoms: C_22  and  C_23
REMARK                            x       y       z     vdW  Elec       q    Type
REMARK                         _______ _______ _______ _____ _____    ______ ____
ROOT
ATOM      1  C   UNL     1       0.131  10.661  20.292  0.00  0.00    +0.000 C 
ATOM      2  C   UNL     1       0.520   9.275  20.840  0.00  0.00    +0.000 C 
ATOM      3  C   UNL     1       1.386   8.455  19.882  0.00  0.00    +0.000 C 
ATOM      4  C   UNL     1       1.565   8.826  18.579  0.00  0.00    +0.000 C 
ATOM      5  C   UNL     1       2.517   8.093  17.655  0.00  0.00    +0.000 C 
ATOM      6  C   UNL     1       3.518   7.190  18.399  0.00  0.00    +0.000 C 
ATOM      7  C   UNL     1       2.884   6.326  19.507  0.00  0.00    +0.000 C 
ATOM      8  C   UNL     1       2.064   7.221  20.476  0.00  0.00    +0.000 C 
ATOM      9  C   UNL     1       0.844  10.027  17.972  0.00  0.00    +0.000 C 
ATOM     10  C   UNL     1      -0.303  10.597  18.825  0.00  0.00    +0.000 C 
ENDROOT
BRANCH   7  11
ATOM     11  N   UNL     1       2.169   5.087  19.066  0.00  0.00    +0.000 NA
ATOM     12  C   UNL     1       2.882   4.197  18.130  0.00  0.00    +0.000 C 
ATOM     13  C   UNL     1       1.941   3.099  17.609  0.00  0.00    +0.000 C 
ATOM     14  C   UNL     1       1.393   2.286  18.784  0.00  0.00    +0.000 C 
ATOM     15  C   UNL     1       0.674   3.222  19.750  0.00  0.00    +0.000 C 
ATOM     16  C   UNL     1       1.636   4.320  20.222  0.00  0.00    +0.000 C 
ENDBRANCH   7  11
BRANCH   1  17
ATOM     17  O   UNL     1      -0.867  11.226  21.072  0.00  0.00    +0.000 OA
BRANCH  17  19
ATOM     18  C   UNL     1      -0.597  13.341  22.326  0.00  0.00    +0.000 C 
ATOM     19  C   UNL     1      -0.692  11.845  22.274  0.00  0.00    +0.000 C 
ATOM     20  O   UNL     1      -0.598  11.200  23.308  0.00  0.00    +0.000 OA
ENDBRANCH  17  19
ENDBRANCH   1  17
BRANCH  10  21
ATOM     21  O   UNL     1      -1.534   9.978  18.603  0.00  0.00    +0.000 OA
BRANCH  21  22
ATOM     22  C   UNL     1      -2.580  10.282  17.786  0.00  0.00    +0.000 C 
ATOM     23  C   UNL     1      -2.563   9.803  16.371  0.00  0.00    +0.000 C 
ATOM     24  O   UNL     1      -3.543  10.909  18.178  0.00  0.00    +0.000 OA
ENDBRANCH  21  22
ENDBRANCH  10  21
TORSDOF 5
ENDMDL
