MODEL 1
REMARK VINA RESULT:      -7.7      0.000      0.000
REMARK  Name = 
REMARK  13 active torsions:
REMARK  status: ('A' for Active; 'I' for Inactive)
REMARK    1  A    between atoms: C_1  and  O_2
REMARK    2  A    between atoms: O_2  and  C_3
REMARK    3  A    between atoms: C_6  and  C_7
REMARK    4  A    between atoms: C_7  and  C_8
REMARK    5  A    between atoms: N_9  and  N_10
REMARK    6  A    between atoms: C_11  and  C_13
REMARK    7  A    between atoms: C_14  and  C_15
REMARK    8  A    between atoms: C_18  and  C_19
REMARK    9  A    between atoms: C_19  and  C_20
REMARK   10  A    between atoms: C_19  and  C_21
REMARK   11  A    between atoms: C_19  and  C_22
REMARK   12  A    between atoms: C_26  and  O_27
REMARK   13  A    between atoms: O_27  and  C_28
REMARK                            x       y       z     vdW  Elec       q    Type
REMARK                         _______ _______ _______ _____ _____    ______ ____
ROOT
ATOM      1  N   UNL     1       1.417   9.039  18.563  0.00  0.00    +0.000 N 
ATOM      2  C   UNL     1       1.528  10.419  18.519  0.00  0.00    +0.000 C 
ATOM      3  O   UNL     1       2.378  11.054  17.898  0.00  0.00    +0.000 OA
ATOM      4  H   UNL     1       0.696   8.601  19.122  0.00  0.00    +0.000 HD
ENDROOT
BRANCH   1   7
ATOM      5  C   UNL     1       2.735   7.145  18.469  0.00  0.00    +0.000 C 
ATOM      6  C   UNL     1       2.213   6.646  19.804  0.00  0.00    +0.000 C 
ATOM      7  N   UNL     1       2.332   8.249  17.910  0.00  0.00    +0.000 NA
BRANCH   5  11
ATOM      8  C   UNL     1       5.687   4.764  16.387  0.00  0.00    +0.000 A 
ATOM      9  C   UNL     1       4.455   4.214  16.780  0.00  0.00    +0.000 A 
ATOM     10  C   UNL     1       3.493   4.985  17.443  0.00  0.00    +0.000 A 
ATOM     11  C   UNL     1       3.768   6.315  17.770  0.00  0.00    +0.000 A 
ATOM     12  C   UNL     1       5.009   6.851  17.416  0.00  0.00    +0.000 A 
ATOM     13  C   UNL     1       5.978   6.092  16.736  0.00  0.00    +0.000 A 
BRANCH   8  15
ATOM     14  C   UNL     1       6.474   4.045  14.273  0.00  0.00    +0.000 C 
ATOM     15  O   UNL     1       6.612   4.029  15.694  0.00  0.00    +0.000 OA
ENDBRANCH   8  15
BRANCH  13  16
ATOM     16  O   UNL     1       7.106   6.829  16.494  0.00  0.00    +0.000 OA
ATOM     17  C   UNL     1       7.624   7.676  17.506  0.00  0.00    +0.000 C 
ENDBRANCH  13  16
ENDBRANCH   5  11
ENDBRANCH   1   7
BRANCH   2  18
ATOM     18  C   UNL     1       0.485  11.107  19.337  0.00  0.00    +0.000 C 
ATOM     19  C   UNL     1       0.595  11.179  20.675  0.00  0.00    +0.000 C 
BRANCH  19  20
ATOM     20  C   UNL     1      -0.393  11.826  21.560  0.00  0.00    +0.000 A 
ATOM     21  C   UNL     1      -0.728  13.177  21.430  0.00  0.00    +0.000 A 
ATOM     22  C   UNL     1      -1.709  13.760  22.243  0.00  0.00    +0.000 A 
ATOM     23  C   UNL     1      -2.413  13.017  23.202  0.00  0.00    +0.000 A 
ATOM     24  C   UNL     1      -2.064  11.660  23.332  0.00  0.00    +0.000 A 
ATOM     25  C   UNL     1      -1.078  11.073  22.517  0.00  0.00    +0.000 A 
BRANCH  23  26
ATOM     26  C   UNL     1      -3.554  13.626  24.042  0.00  0.00    +0.000 C 
ATOM     27  C   UNL     1      -3.050  14.593  25.140  0.00  0.00    +0.000 C 
ATOM     28  C   UNL     1      -4.499  14.433  23.125  0.00  0.00    +0.000 C 
ATOM     29  C   UNL     1      -4.371  12.524  24.747  0.00  0.00    +0.000 C 
ENDBRANCH  23  26
ENDBRANCH  19  20
ENDBRANCH   2  18
TORSDOF 7
ENDMDL
MODEL 2
REMARK VINA RESULT:      -7.7      1.128      2.040
REMARK  Name = 
REMARK  13 active torsions:
REMARK  status: ('A' for Active; 'I' for Inactive)
REMARK    1  A    between atoms: C_1  and  O_2
REMARK    2  A    between atoms: O_2  and  C_3
REMARK    3  A    between atoms: C_6  and  C_7
REMARK    4  A    between atoms: C_7  and  C_8
REMARK    5  A    between atoms: N_9  and  N_10
REMARK    6  A    between atoms: C_11  and  C_13
REMARK    7  A    between atoms: C_14  and  C_15
REMARK    8  A    between atoms: C_18  and  C_19
REMARK    9  A    between atoms: C_19  and  C_20
REMARK   10  A    between atoms: C_19  and  C_21
REMARK   11  A    between atoms: C_19  and  C_22
REMARK   12  A    between atoms: C_26  and  O_27
REMARK   13  A    between atoms: O_27  and  C_28
REMARK                            x       y       z     vdW  Elec       q    Type
REMARK                         _______ _______ _______ _____ _____    ______ ____
ROOT
ATOM      1  N   UNL     1       1.547   9.174  18.750  0.00  0.00    +0.000 N 
ATOM      2  C   UNL     1       1.688  10.540  18.564  0.00  0.00    +0.000 C 
ATOM      3  O   UNL     1       2.424  11.082  17.742  0.00  0.00    +0.000 OA
ATOM      4  H   UNL     1       0.933   8.816  19.470  0.00  0.00    +0.000 HD
ENDROOT
BRANCH   1   7
ATOM      5  C   UNL     1       2.658   7.159  18.542  0.00  0.00    +0.000 C 
ATOM      6  C   UNL     1       2.252   6.726  19.939  0.00  0.00    +0.000 C 
ATOM      7  N   UNL     1       2.299   8.293  18.011  0.00  0.00    +0.000 NA
BRANCH   5  11
ATOM      8  C   UNL     1       5.187   4.470  16.287  0.00  0.00    +0.000 A 
ATOM      9  C   UNL     1       5.289   5.863  16.134  0.00  0.00    +0.000 A 
ATOM     10  C   UNL     1       4.479   6.736  16.871  0.00  0.00    +0.000 A 
ATOM     11  C   UNL     1       3.516   6.227  17.744  0.00  0.00    +0.000 A 
ATOM     12  C   UNL     1       3.387   4.840  17.867  0.00  0.00    +0.000 A 
ATOM     13  C   UNL     1       4.202   3.953  17.144  0.00  0.00    +0.000 A 
BRANCH   8  15
ATOM     14  C   UNL     1       6.274   3.962  14.246  0.00  0.00    +0.000 C 
ATOM     15  O   UNL     1       6.009   3.612  15.606  0.00  0.00    +0.000 OA
ENDBRANCH   8  15
BRANCH  13  16
ATOM     16  O   UNL     1       3.896   2.650  17.432  0.00  0.00    +0.000 OA
ATOM     17  C   UNL     1       2.590   2.315  17.870  0.00  0.00    +0.000 C 
ENDBRANCH  13  16
ENDBRANCH   5  11
ENDBRANCH   1   7
BRANCH   2  18
ATOM     18  C   UNL     1       0.840  11.339  19.497  0.00  0.00    +0.000 C 
ATOM     19  C   UNL     1      -0.203  10.776  20.133  0.00  0.00    +0.000 C 
BRANCH  19  20
ATOM     20  C   UNL     1      -1.100  11.493  21.059  0.00  0.00    +0.000 A 
ATOM     21  C   UNL     1      -2.072  12.387  20.602  0.00  0.00    +0.000 A 
ATOM     22  C   UNL     1      -2.952  13.016  21.493  0.00  0.00    +0.000 A 
ATOM     23  C   UNL     1      -2.916  12.762  22.872  0.00  0.00    +0.000 A 
ATOM     24  C   UNL     1      -1.930  11.866  23.325  0.00  0.00    +0.000 A 
ATOM     25  C   UNL     1      -1.044  11.236  22.432  0.00  0.00    +0.000 A 
BRANCH  23  26
ATOM     26  C   UNL     1      -3.934  13.381  23.851  0.00  0.00    +0.000 C 
ATOM     27  C   UNL     1      -3.319  14.477  24.755  0.00  0.00    +0.000 C 
ATOM     28  C   UNL     1      -5.083  14.040  23.056  0.00  0.00    +0.000 C 
ATOM     29  C   UNL     1      -4.531  12.306  24.782  0.00  0.00    +0.000 C 
ENDBRANCH  23  26
ENDBRANCH  19  20
ENDBRANCH   2  18
TORSDOF 7
ENDMDL
MODEL 3
REMARK VINA RESULT:      -7.6      1.055      1.389
REMARK  Name = 
REMARK  13 active torsions:
REMARK  status: ('A' for Active; 'I' for Inactive)
REMARK    1  A    between atoms: C_1  and  O_2
REMARK    2  A    between atoms: O_2  and  C_3
REMARK    3  A    between atoms: C_6  and  C_7
REMARK    4  A    between atoms: C_7  and  C_8
REMARK    5  A    between atoms: N_9  and  N_10
REMARK    6  A    between atoms: C_11  and  C_13
REMARK    7  A    between atoms: C_14  and  C_15
REMARK    8  A    between atoms: C_18  and  C_19
REMARK    9  A    between atoms: C_19  and  C_20
REMARK   10  A    between atoms: C_19  and  C_21
REMARK   11  A    between atoms: C_19  and  C_22
REMARK   12  A    between atoms: C_26  and  O_27
REMARK   13  A    between atoms: O_27  and  C_28
REMARK                            x       y       z     vdW  Elec       q    Type
REMARK                         _______ _______ _______ _____ _____    ______ ____
ROOT
ATOM      1  N   UNL     1       1.815   8.303  19.277  0.00  0.00    +0.000 N 
ATOM      2  C   UNL     1       1.105   9.408  18.835  0.00  0.00    +0.000 C 
ATOM      3  O   UNL     1       1.203   9.928  17.725  0.00  0.00    +0.000 OA
ATOM      4  H   UNL     1       1.686   7.956  20.219  0.00  0.00    +0.000 HD
ENDROOT
BRANCH   1   7
ATOM      5  C   UNL     1       3.015   6.446  18.610  0.00  0.00    +0.000 C 
ATOM      6  C   UNL     1       2.296   5.553  19.604  0.00  0.00    +0.000 C 
ATOM      7  N   UNL     1       2.756   7.714  18.468  0.00  0.00    +0.000 NA
BRANCH   5  11
ATOM      8  C   UNL     1       6.048   4.679  16.081  0.00  0.00    +0.000 A 
ATOM      9  C   UNL     1       4.845   4.006  16.352  0.00  0.00    +0.000 A 
ATOM     10  C   UNL     1       3.857   4.580  17.160  0.00  0.00    +0.000 A 
ATOM     11  C   UNL     1       4.076   5.825  17.755  0.00  0.00    +0.000 A 
ATOM     12  C   UNL     1       5.290   6.477  17.519  0.00  0.00    +0.000 A 
ATOM     13  C   UNL     1       6.285   5.918  16.697  0.00  0.00    +0.000 A 
BRANCH   8  15
ATOM     14  C   UNL     1       6.851   4.454  13.865  0.00  0.00    +0.000 C 
ATOM     15  O   UNL     1       6.998   4.144  15.252  0.00  0.00    +0.000 OA
ENDBRANCH   8  15
BRANCH  13  16
ATOM     16  O   UNL     1       7.377   6.739  16.612  0.00  0.00    +0.000 OA
ATOM     17  C   UNL     1       7.555   7.774  17.565  0.00  0.00    +0.000 C 
ENDBRANCH  13  16
ENDBRANCH   5  11
ENDBRANCH   1   7
BRANCH   2  18
ATOM     18  C   UNL     1       0.175   9.948  19.870  0.00  0.00    +0.000 C 
ATOM     19  C   UNL     1      -0.468  11.112  19.677  0.00  0.00    +0.000 C 
BRANCH  19  20
ATOM     20  C   UNL     1      -1.393  11.726  20.651  0.00  0.00    +0.000 A 
ATOM     21  C   UNL     1      -2.497  12.480  20.246  0.00  0.00    +0.000 A 
ATOM     22  C   UNL     1      -3.396  13.007  21.183  0.00  0.00    +0.000 A 
ATOM     23  C   UNL     1      -3.244  12.786  22.560  0.00  0.00    +0.000 A 
ATOM     24  C   UNL     1      -2.125  12.031  22.960  0.00  0.00    +0.000 A 
ATOM     25  C   UNL     1      -1.222  11.502  22.019  0.00  0.00    +0.000 A 
BRANCH  23  26
ATOM     26  C   UNL     1      -4.272  13.288  23.594  0.00  0.00    +0.000 C 
ATOM     27  C   UNL     1      -5.709  13.379  23.028  0.00  0.00    +0.000 C 
ATOM     28  C   UNL     1      -4.318  12.315  24.793  0.00  0.00    +0.000 C 
ATOM     29  C   UNL     1      -3.896  14.691  24.111  0.00  0.00    +0.000 C 
ENDBRANCH  23  26
ENDBRANCH  19  20
ENDBRANCH   2  18
TORSDOF 7
ENDMDL
MODEL 4
REMARK VINA RESULT:      -7.5      1.114      2.289
REMARK  Name = 
REMARK  13 active torsions:
REMARK  status: ('A' for Active; 'I' for Inactive)
REMARK    1  A    between atoms: C_1  and  O_2
REMARK    2  A    between atoms: O_2  and  C_3
REMARK    3  A    between atoms: C_6  and  C_7
REMARK    4  A    between atoms: C_7  and  C_8
REMARK    5  A    between atoms: N_9  and  N_10
REMARK    6  A    between atoms: C_11  and  C_13
REMARK    7  A    between atoms: C_14  and  C_15
REMARK    8  A    between atoms: C_18  and  C_19
REMARK    9  A    between atoms: C_19  and  C_20
REMARK   10  A    between atoms: C_19  and  C_21
REMARK   11  A    between atoms: C_19  and  C_22
REMARK   12  A    between atoms: C_26  and  O_27
REMARK   13  A    between atoms: O_27  and  C_28
REMARK                            x       y       z     vdW  Elec       q    Type
REMARK                         _______ _______ _______ _____ _____    ______ ____
ROOT
ATOM      1  N   UNL     1       1.330   9.164  18.531  0.00  0.00    +0.000 N 
ATOM      2  C   UNL     1       1.609  10.521  18.505  0.00  0.00    +0.000 C 
ATOM      3  O   UNL     1       2.514  11.057  17.868  0.00  0.00    +0.000 OA
ATOM      4  H   UNL     1       0.577   8.808  19.105  0.00  0.00    +0.000 HD
ENDROOT
BRANCH   1   7
ATOM      5  C   UNL     1       2.591   7.231  18.452  0.00  0.00    +0.000 C 
ATOM      6  C   UNL     1       2.273   6.895  19.897  0.00  0.00    +0.000 C 
ATOM      7  N   UNL     1       2.123   8.280  17.840  0.00  0.00    +0.000 NA
BRANCH   5  11
ATOM      8  C   UNL     1       5.242   4.545  16.337  0.00  0.00    +0.000 A 
ATOM      9  C   UNL     1       5.324   5.936  16.159  0.00  0.00    +0.000 A 
ATOM     10  C   UNL     1       4.476   6.809  16.851  0.00  0.00    +0.000 A 
ATOM     11  C   UNL     1       3.492   6.298  17.701  0.00  0.00    +0.000 A 
ATOM     12  C   UNL     1       3.383   4.913  17.847  0.00  0.00    +0.000 A 
ATOM     13  C   UNL     1       4.238   4.026  17.170  0.00  0.00    +0.000 A 
BRANCH   8  15
ATOM     14  C   UNL     1       6.460   4.054  14.366  0.00  0.00    +0.000 C 
ATOM     15  O   UNL     1       6.102   3.689  15.700  0.00  0.00    +0.000 OA
ENDBRANCH   8  15
BRANCH  13  16
ATOM     16  O   UNL     1       3.945   2.724  17.473  0.00  0.00    +0.000 OA
ATOM     17  C   UNL     1       2.603   2.348  17.733  0.00  0.00    +0.000 C 
ENDBRANCH  13  16
ENDBRANCH   5  11
ENDBRANCH   1   7
BRANCH   2  18
ATOM     18  C   UNL     1       0.682  11.316  19.363  0.00  0.00    +0.000 C 
ATOM     19  C   UNL     1      -0.186  10.707  20.188  0.00  0.00    +0.000 C 
BRANCH  19  20
ATOM     20  C   UNL     1      -1.146  11.412  21.060  0.00  0.00    +0.000 A 
ATOM     21  C   UNL     1      -1.075  11.332  22.453  0.00  0.00    +0.000 A 
ATOM     22  C   UNL     1      -1.960  12.054  23.265  0.00  0.00    +0.000 A 
ATOM     23  C   UNL     1      -2.936  12.904  22.723  0.00  0.00    +0.000 A 
ATOM     24  C   UNL     1      -3.006  12.973  21.319  0.00  0.00    +0.000 A 
ATOM     25  C   UNL     1      -2.118  12.247  20.503  0.00  0.00    +0.000 A 
BRANCH  23  26
ATOM     26  C   UNL     1      -3.859  13.768  23.606  0.00  0.00    +0.000 C 
ATOM     27  C   UNL     1      -4.547  14.914  22.826  0.00  0.00    +0.000 C 
ATOM     28  C   UNL     1      -4.979  12.888  24.202  0.00  0.00    +0.000 C 
ATOM     29  C   UNL     1      -3.070  14.415  24.763  0.00  0.00    +0.000 C 
ENDBRANCH  23  26
ENDBRANCH  19  20
ENDBRANCH   2  18
TORSDOF 7
ENDMDL
MODEL 5
REMARK VINA RESULT:      -7.4      1.295      2.042
REMARK  Name = 
REMARK  13 active torsions:
REMARK  status: ('A' for Active; 'I' for Inactive)
REMARK    1  A    between atoms: C_1  and  O_2
REMARK    2  A    between atoms: O_2  and  C_3
REMARK    3  A    between atoms: C_6  and  C_7
REMARK    4  A    between atoms: C_7  and  C_8
REMARK    5  A    between atoms: N_9  and  N_10
REMARK    6  A    between atoms: C_11  and  C_13
REMARK    7  A    between atoms: C_14  and  C_15
REMARK    8  A    between atoms: C_18  and  C_19
REMARK    9  A    between atoms: C_19  and  C_20
REMARK   10  A    between atoms: C_19  and  C_21
REMARK   11  A    between atoms: C_19  and  C_22
REMARK   12  A    between atoms: C_26  and  O_27
REMARK   13  A    between atoms: O_27  and  C_28
REMARK                            x       y       z     vdW  Elec       q    Type
REMARK                         _______ _______ _______ _____ _____    ______ ____
ROOT
ATOM      1  N   UNL     1       1.040   9.119  18.382  0.00  0.00    +0.000 N 
ATOM      2  C   UNL     1       1.221  10.483  18.548  0.00  0.00    +0.000 C 
ATOM      3  O   UNL     1       2.212  11.124  18.205  0.00  0.00    +0.000 OA
ATOM      4  H   UNL     1       0.198   8.670  18.719  0.00  0.00    +0.000 HD
ENDROOT
BRANCH   1   7
ATOM      5  C   UNL     1       2.583   7.408  18.541  0.00  0.00    +0.000 C 
ATOM      6  C   UNL     1       2.152   7.073  19.957  0.00  0.00    +0.000 C 
ATOM      7  N   UNL     1       2.035   8.350  17.829  0.00  0.00    +0.000 NA
BRANCH   5  11
ATOM      8  C   UNL     1       5.852   5.138  16.845  0.00  0.00    +0.000 A 
ATOM      9  C   UNL     1       5.307   6.243  16.169  0.00  0.00    +0.000 A 
ATOM     10  C   UNL     1       4.257   6.987  16.721  0.00  0.00    +0.000 A 
ATOM     11  C   UNL     1       3.698   6.607  17.944  0.00  0.00    +0.000 A 
ATOM     12  C   UNL     1       4.214   5.484  18.597  0.00  0.00    +0.000 A 
ATOM     13  C   UNL     1       5.277   4.737  18.061  0.00  0.00    +0.000 A 
BRANCH   8  15
ATOM     14  C   UNL     1       6.973   4.366  14.908  0.00  0.00    +0.000 C 
ATOM     15  O   UNL     1       6.912   4.436  16.333  0.00  0.00    +0.000 OA
ENDBRANCH   8  15
BRANCH  13  16
ATOM     16  O   UNL     1       5.611   3.691  18.878  0.00  0.00    +0.000 OA
ATOM     17  C   UNL     1       4.589   2.947  19.521  0.00  0.00    +0.000 C 
ENDBRANCH  13  16
ENDBRANCH   5  11
ENDBRANCH   1   7
BRANCH   2  18
ATOM     18  C   UNL     1       0.062  11.140  19.222  0.00  0.00    +0.000 C 
ATOM     19  C   UNL     1      -0.105  11.046  20.553  0.00  0.00    +0.000 C 
BRANCH  19  20
ATOM     20  C   UNL     1      -1.226  11.651  21.298  0.00  0.00    +0.000 A 
ATOM     21  C   UNL     1      -2.206  12.418  20.662  0.00  0.00    +0.000 A 
ATOM     22  C   UNL     1      -3.294  12.938  21.377  0.00  0.00    +0.000 A 
ATOM     23  C   UNL     1      -3.462  12.696  22.748  0.00  0.00    +0.000 A 
ATOM     24  C   UNL     1      -2.468  11.928  23.382  0.00  0.00    +0.000 A 
ATOM     25  C   UNL     1      -1.374  11.407  22.666  0.00  0.00    +0.000 A 
BRANCH  23  26
ATOM     26  C   UNL     1      -4.698  13.190  23.527  0.00  0.00    +0.000 C 
ATOM     27  C   UNL     1      -6.026  12.971  22.763  0.00  0.00    +0.000 C 
ATOM     28  C   UNL     1      -4.811  12.421  24.862  0.00  0.00    +0.000 C 
ATOM     29  C   UNL     1      -4.593  14.698  23.833  0.00  0.00    +0.000 C 
ENDBRANCH  23  26
ENDBRANCH  19  20
ENDBRANCH   2  18
TORSDOF 7
ENDMDL
MODEL 6
REMARK VINA RESULT:      -7.4      0.832      2.008
REMARK  Name = 
REMARK  13 active torsions:
REMARK  status: ('A' for Active; 'I' for Inactive)
REMARK    1  A    between atoms: C_1  and  O_2
REMARK    2  A    between atoms: O_2  and  C_3
REMARK    3  A    between atoms: C_6  and  C_7
REMARK    4  A    between atoms: C_7  and  C_8
REMARK    5  A    between atoms: N_9  and  N_10
REMARK    6  A    between atoms: C_11  and  C_13
REMARK    7  A    between atoms: C_14  and  C_15
REMARK    8  A    between atoms: C_18  and  C_19
REMARK    9  A    between atoms: C_19  and  C_20
REMARK   10  A    between atoms: C_19  and  C_21
REMARK   11  A    between atoms: C_19  and  C_22
REMARK   12  A    between atoms: C_26  and  O_27
REMARK   13  A    between atoms: O_27  and  C_28
REMARK                            x       y       z     vdW  Elec       q    Type
REMARK                         _______ _______ _______ _____ _____    ______ ____
ROOT
ATOM      1  N   UNL     1       1.195   9.121  18.472  0.00  0.00    +0.000 N 
ATOM      2  C   UNL     1       1.454  10.481  18.533  0.00  0.00    +0.000 C 
ATOM      3  O   UNL     1       2.397  11.058  17.994  0.00  0.00    +0.000 OA
ATOM      4  H   UNL     1       0.405   8.728  18.968  0.00  0.00    +0.000 HD
ENDROOT
BRANCH   1   7
ATOM      5  C   UNL     1       2.596   7.285  18.439  0.00  0.00    +0.000 C 
ATOM      6  C   UNL     1       2.303   6.964  19.893  0.00  0.00    +0.000 C 
ATOM      7  N   UNL     1       2.051   8.281  17.802  0.00  0.00    +0.000 NA
BRANCH   5  11
ATOM      8  C   UNL     1       5.435   4.742  16.393  0.00  0.00    +0.000 A 
ATOM      9  C   UNL     1       5.526   6.143  16.316  0.00  0.00    +0.000 A 
ATOM     10  C   UNL     1       4.616   6.968  16.987  0.00  0.00    +0.000 A 
ATOM     11  C   UNL     1       3.563   6.404  17.711  0.00  0.00    +0.000 A 
ATOM     12  C   UNL     1       3.448   5.012  17.755  0.00  0.00    +0.000 A 
ATOM     13  C   UNL     1       4.364   4.171  17.098  0.00  0.00    +0.000 A 
BRANCH   8  15
ATOM     14  C   UNL     1       6.326   3.941  14.351  0.00  0.00    +0.000 C 
ATOM     15  O   UNL     1       6.351   3.929  15.779  0.00  0.00    +0.000 OA
ENDBRANCH   8  15
BRANCH  13  16
ATOM     16  O   UNL     1       4.051   2.852  17.287  0.00  0.00    +0.000 OA
ATOM     17  C   UNL     1       3.558   2.419  18.544  0.00  0.00    +0.000 C 
ENDBRANCH  13  16
ENDBRANCH   5  11
ENDBRANCH   1   7
BRANCH   2  18
ATOM     18  C   UNL     1       0.453  11.222  19.354  0.00  0.00    +0.000 C 
ATOM     19  C   UNL     1       0.428  11.094  20.692  0.00  0.00    +0.000 C 
BRANCH  19  20
ATOM     20  C   UNL     1      -0.533  11.777  21.579  0.00  0.00    +0.000 A 
ATOM     21  C   UNL     1      -0.870  13.122  21.406  0.00  0.00    +0.000 A 
ATOM     22  C   UNL     1      -1.827  13.739  22.223  0.00  0.00    +0.000 A 
ATOM     23  C   UNL     1      -2.505  13.035  23.230  0.00  0.00    +0.000 A 
ATOM     24  C   UNL     1      -2.155  11.683  23.403  0.00  0.00    +0.000 A 
ATOM     25  C   UNL     1      -1.192  11.063  22.584  0.00  0.00    +0.000 A 
BRANCH  23  26
ATOM     26  C   UNL     1      -3.620  13.679  24.078  0.00  0.00    +0.000 C 
ATOM     27  C   UNL     1      -4.452  12.646  24.874  0.00  0.00    +0.000 C 
ATOM     28  C   UNL     1      -2.995  14.648  25.107  0.00  0.00    +0.000 C 
ATOM     29  C   UNL     1      -4.603  14.469  23.191  0.00  0.00    +0.000 C 
ENDBRANCH  23  26
ENDBRANCH  19  20
ENDBRANCH   2  18
TORSDOF 7
ENDMDL
MODEL 7
REMARK VINA RESULT:      -7.4      0.802      1.307
REMARK  Name = 
REMARK  13 active torsions:
REMARK  status: ('A' for Active; 'I' for Inactive)
REMARK    1  A    between atoms: C_1  and  O_2
REMARK    2  A    between atoms: O_2  and  C_3
REMARK    3  A    between atoms: C_6  and  C_7
REMARK    4  A    between atoms: C_7  and  C_8
REMARK    5  A    between atoms: N_9  and  N_10
REMARK    6  A    between atoms: C_11  and  C_13
REMARK    7  A    between atoms: C_14  and  C_15
REMARK    8  A    between atoms: C_18  and  C_19
REMARK    9  A    between atoms: C_19  and  C_20
REMARK   10  A    between atoms: C_19  and  C_21
REMARK   11  A    between atoms: C_19  and  C_22
REMARK   12  A    between atoms: C_26  and  O_27
REMARK   13  A    between atoms: O_27  and  C_28
REMARK                            x       y       z     vdW  Elec       q    Type
REMARK                         _______ _______ _______ _____ _____    ______ ____
ROOT
ATOM      1  N   UNL     1       1.334   8.546  18.267  0.00  0.00    +0.000 N 
ATOM      2  C   UNL     1       1.294   9.923  18.418  0.00  0.00    +0.000 C 
ATOM      3  O   UNL     1       2.118  10.720  17.974  0.00  0.00    +0.000 OA
ATOM      4  H   UNL     1       0.622   7.965  18.690  0.00  0.00    +0.000 HD
ENDROOT
BRANCH   1   7
ATOM      5  C   UNL     1       3.032   6.983  18.190  0.00  0.00    +0.000 C 
ATOM      6  C   UNL     1       2.664   6.431  19.555  0.00  0.00    +0.000 C 
ATOM      7  N   UNL     1       2.383   7.952  17.611  0.00  0.00    +0.000 NA
BRANCH   5  11
ATOM      8  C   UNL     1       6.390   5.244  16.089  0.00  0.00    +0.000 A 
ATOM      9  C   UNL     1       5.187   4.535  16.249  0.00  0.00    +0.000 A 
ATOM     10  C   UNL     1       4.095   5.100  16.919  0.00  0.00    +0.000 A 
ATOM     11  C   UNL     1       4.203   6.373  17.484  0.00  0.00    +0.000 A 
ATOM     12  C   UNL     1       5.413   7.062  17.360  0.00  0.00    +0.000 A 
ATOM     13  C   UNL     1       6.513   6.513  16.677  0.00  0.00    +0.000 A 
BRANCH   8  15
ATOM     14  C   UNL     1       7.222   4.512  13.997  0.00  0.00    +0.000 C 
ATOM     15  O   UNL     1       7.445   4.717  15.393  0.00  0.00    +0.000 OA
ENDBRANCH   8  15
BRANCH  13  16
ATOM     16  O   UNL     1       7.579   7.371  16.683  0.00  0.00    +0.000 OA
ATOM     17  C   UNL     1       7.824   8.181  17.820  0.00  0.00    +0.000 C 
ENDBRANCH  13  16
ENDBRANCH   5  11
ENDBRANCH   1   7
BRANCH   2  18
ATOM     18  C   UNL     1       0.115  10.382  19.211  0.00  0.00    +0.000 C 
ATOM     19  C   UNL     1       0.276  11.148  20.304  0.00  0.00    +0.000 C 
BRANCH  19  20
ATOM     20  C   UNL     1      -0.829  11.634  21.153  0.00  0.00    +0.000 A 
ATOM     21  C   UNL     1      -0.779  11.555  22.547  0.00  0.00    +0.000 A 
ATOM     22  C   UNL     1      -1.813  12.072  23.339  0.00  0.00    +0.000 A 
ATOM     23  C   UNL     1      -2.928  12.710  22.775  0.00  0.00    +0.000 A 
ATOM     24  C   UNL     1      -2.974  12.780  21.370  0.00  0.00    +0.000 A 
ATOM     25  C   UNL     1      -1.937  12.259  20.574  0.00  0.00    +0.000 A 
BRANCH  23  26
ATOM     26  C   UNL     1      -4.030  13.359  23.637  0.00  0.00    +0.000 C 
ATOM     27  C   UNL     1      -4.720  12.359  24.595  0.00  0.00    +0.000 C 
ATOM     28  C   UNL     1      -3.414  14.474  24.511  0.00  0.00    +0.000 C 
ATOM     29  C   UNL     1      -5.132  13.977  22.753  0.00  0.00    +0.000 C 
ENDBRANCH  23  26
ENDBRANCH  19  20
ENDBRANCH   2  18
TORSDOF 7
ENDMDL
MODEL 8
REMARK VINA RESULT:      -7.3      3.413     11.720
REMARK  Name = 
REMARK  13 active torsions:
REMARK  status: ('A' for Active; 'I' for Inactive)
REMARK    1  A    between atoms: C_1  and  O_2
REMARK    2  A    between atoms: O_2  and  C_3
REMARK    3  A    between atoms: C_6  and  C_7
REMARK    4  A    between atoms: C_7  and  C_8
REMARK    5  A    between atoms: N_9  and  N_10
REMARK    6  A    between atoms: C_11  and  C_13
REMARK    7  A    between atoms: C_14  and  C_15
REMARK    8  A    between atoms: C_18  and  C_19
REMARK    9  A    between atoms: C_19  and  C_20
REMARK   10  A    between atoms: C_19  and  C_21
REMARK   11  A    between atoms: C_19  and  C_22
REMARK   12  A    between atoms: C_26  and  O_27
REMARK   13  A    between atoms: O_27  and  C_28
REMARK                            x       y       z     vdW  Elec       q    Type
REMARK                         _______ _______ _______ _____ _____    ______ ____
ROOT
ATOM      1  N   UNL     1       0.726   9.779  22.094  0.00  0.00    +0.000 N 
ATOM      2  C   UNL     1       0.217   8.544  21.724  0.00  0.00    +0.000 C 
ATOM      3  O   UNL     1      -0.922   8.140  21.945  0.00  0.00    +0.000 OA
ATOM      4  H   UNL     1       1.688  10.018  21.889  0.00  0.00    +0.000 HD
ENDROOT
BRANCH   1   7
ATOM      5  C   UNL     1      -0.673  11.614  22.183  0.00  0.00    +0.000 C 
ATOM      6  C   UNL     1      -0.635  11.790  20.676  0.00  0.00    +0.000 C 
ATOM      7  N   UNL     1      -0.047  10.660  22.810  0.00  0.00    +0.000 NA
BRANCH   5  11
ATOM      8  C   UNL     1      -3.012  14.484  24.421  0.00  0.00    +0.000 A 
ATOM      9  C   UNL     1      -1.700  14.776  24.013  0.00  0.00    +0.000 A 
ATOM     10  C   UNL     1      -0.945  13.854  23.279  0.00  0.00    +0.000 A 
ATOM     11  C   UNL     1      -1.475  12.597  22.979  0.00  0.00    +0.000 A 
ATOM     12  C   UNL     1      -2.765  12.291  23.420  0.00  0.00    +0.000 A 
ATOM     13  C   UNL     1      -3.540  13.213  24.145  0.00  0.00    +0.000 A 
BRANCH   8  15
ATOM     14  C   UNL     1      -4.421  16.382  24.287  0.00  0.00    +0.000 C 
ATOM     15  O   UNL     1      -3.774  15.400  25.098  0.00  0.00    +0.000 OA
ENDBRANCH   8  15
BRANCH  13  16
ATOM     16  O   UNL     1      -4.766  12.691  24.461  0.00  0.00    +0.000 OA
ATOM     17  C   UNL     1      -5.887  12.985  23.645  0.00  0.00    +0.000 C 
ENDBRANCH  13  16
ENDBRANCH   5  11
ENDBRANCH   1   7
BRANCH   2  18
ATOM     18  C   UNL     1       1.219   7.699  21.009  0.00  0.00    +0.000 C 
ATOM     19  C   UNL     1       1.765   8.109  19.851  0.00  0.00    +0.000 C 
BRANCH  19  20
ATOM     20  C   UNL     1       2.750   7.334  19.072  0.00  0.00    +0.000 A 
ATOM     21  C   UNL     1       3.235   6.101  19.514  0.00  0.00    +0.000 A 
ATOM     22  C   UNL     1       4.128   5.353  18.734  0.00  0.00    +0.000 A 
ATOM     23  C   UNL     1       4.555   5.792  17.472  0.00  0.00    +0.000 A 
ATOM     24  C   UNL     1       4.068   7.038  17.038  0.00  0.00    +0.000 A 
ATOM     25  C   UNL     1       3.173   7.791  17.821  0.00  0.00    +0.000 A 
BRANCH  23  26
ATOM     26  C   UNL     1       5.469   4.939  16.569  0.00  0.00    +0.000 C 
ATOM     27  C   UNL     1       6.911   4.807  17.114  0.00  0.00    +0.000 C 
ATOM     28  C   UNL     1       4.894   3.510  16.453  0.00  0.00    +0.000 C 
ATOM     29  C   UNL     1       5.571   5.546  15.155  0.00  0.00    +0.000 C 
ENDBRANCH  23  26
ENDBRANCH  19  20
ENDBRANCH   2  18
TORSDOF 7
ENDMDL
MODEL 9
REMARK VINA RESULT:      -7.2      2.389      3.001
REMARK  Name = 
REMARK  13 active torsions:
REMARK  status: ('A' for Active; 'I' for Inactive)
REMARK    1  A    between atoms: C_1  and  O_2
REMARK    2  A    between atoms: O_2  and  C_3
REMARK    3  A    between atoms: C_6  and  C_7
REMARK    4  A    between atoms: C_7  and  C_8
REMARK    5  A    between atoms: N_9  and  N_10
REMARK    6  A    between atoms: C_11  and  C_13
REMARK    7  A    between atoms: C_14  and  C_15
REMARK    8  A    between atoms: C_18  and  C_19
REMARK    9  A    between atoms: C_19  and  C_20
REMARK   10  A    between atoms: C_19  and  C_21
REMARK   11  A    between atoms: C_19  and  C_22
REMARK   12  A    between atoms: C_26  and  O_27
REMARK   13  A    between atoms: O_27  and  C_28
REMARK                            x       y       z     vdW  Elec       q    Type
REMARK                         _______ _______ _______ _____ _____    ______ ____
ROOT
ATOM      1  N   UNL     1       1.284   8.947  21.008  0.00  0.00    +0.000 N 
ATOM      2  C   UNL     1       0.046   9.038  21.625  0.00  0.00    +0.000 C 
ATOM      3  O   UNL     1      -0.692   8.094  21.898  0.00  0.00    +0.000 OA
ATOM      4  H   UNL     1       1.814   9.784  20.800  0.00  0.00    +0.000 HD
ENDROOT
BRANCH   1   7
ATOM      5  C   UNL     1       2.090   7.554  19.352  0.00  0.00    +0.000 C 
ATOM      6  C   UNL     1       2.002   8.650  18.306  0.00  0.00    +0.000 C 
ATOM      7  N   UNL     1       1.768   7.728  20.602  0.00  0.00    +0.000 NA
BRANCH   5  11
ATOM      8  C   UNL     1       3.505   3.691  18.014  0.00  0.00    +0.000 A 
ATOM      9  C   UNL     1       2.198   4.124  17.731  0.00  0.00    +0.000 A 
ATOM     10  C   UNL     1       1.741   5.379  18.153  0.00  0.00    +0.000 A 
ATOM     11  C   UNL     1       2.573   6.207  18.911  0.00  0.00    +0.000 A 
ATOM     12  C   UNL     1       3.858   5.759  19.227  0.00  0.00    +0.000 A 
ATOM     13  C   UNL     1       4.335   4.508  18.798  0.00  0.00    +0.000 A 
BRANCH   8  15
ATOM     14  C   UNL     1       3.700   1.364  18.404  0.00  0.00    +0.000 C 
ATOM     15  O   UNL     1       3.974   2.485  17.563  0.00  0.00    +0.000 OA
ENDBRANCH   8  15
BRANCH  13  16
ATOM     16  O   UNL     1       5.618   4.292  19.223  0.00  0.00    +0.000 OA
ATOM     17  C   UNL     1       6.706   4.750  18.438  0.00  0.00    +0.000 C 
ENDBRANCH  13  16
ENDBRANCH   5  11
ENDBRANCH   1   7
BRANCH   2  18
ATOM     18  C   UNL     1      -0.340  10.446  21.937  0.00  0.00    +0.000 C 
ATOM     19  C   UNL     1      -1.303  10.713  22.836  0.00  0.00    +0.000 C 
BRANCH  19  20
ATOM     20  C   UNL     1      -1.757  12.070  23.195  0.00  0.00    +0.000 A 
ATOM     21  C   UNL     1      -0.934  13.189  23.043  0.00  0.00    +0.000 A 
ATOM     22  C   UNL     1      -1.401  14.477  23.336  0.00  0.00    +0.000 A 
ATOM     23  C   UNL     1      -2.715  14.706  23.771  0.00  0.00    +0.000 A 
ATOM     24  C   UNL     1      -3.536  13.574  23.928  0.00  0.00    +0.000 A 
ATOM     25  C   UNL     1      -3.067  12.280  23.636  0.00  0.00    +0.000 A 
BRANCH  23  26
ATOM     26  C   UNL     1      -3.267  16.125  24.014  0.00  0.00    +0.000 C 
ATOM     27  C   UNL     1      -2.633  16.821  25.242  0.00  0.00    +0.000 C 
ATOM     28  C   UNL     1      -2.971  17.014  22.785  0.00  0.00    +0.000 C 
ATOM     29  C   UNL     1      -4.791  16.094  24.245  0.00  0.00    +0.000 C 
ENDBRANCH  23  26
ENDBRANCH  19  20
ENDBRANCH   2  18
TORSDOF 7
ENDMDL
