MODEL 1
REMARK VINA RESULT:      -9.3      0.000      0.000
REMARK  Name = 
REMARK  8 active torsions:
REMARK  status: ('A' for Active; 'I' for Inactive)
REMARK    1  A    between atoms: C_2  and  C_3
REMARK    2  A    between atoms: C_3  and  C_4
REMARK    3  A    between atoms: C_4  and  C_5
REMARK    4  A    between atoms: C_4  and  C_11
REMARK    5  A    between atoms: C_17  and  O_18
REMARK    6  A    between atoms: N_19  and  C_20
REMARK    7  A    between atoms: C_20  and  C_21
REMARK    8  A    between atoms: C_21  and  C_22
REMARK                            x       y       z     vdW  Elec       q    Type
REMARK                         _______ _______ _______ _____ _____    ______ ____
ROOT
ATOM      1  C   UNL     1       2.667   6.825  17.833  0.00  0.00    +0.000 C 
ENDROOT
BRANCH   1   3
ATOM      2  O   UNL     1       2.381   8.025  19.927  0.00  0.00    +0.000 OA
ATOM      3  C   UNL     1       2.320   8.027  18.703  0.00  0.00    +0.000 C 
ATOM      4  N   UNL     1       2.006   9.153  17.964  0.00  0.00    +0.000 N 
ATOM      5  H   UNL     1       1.822   9.036  16.979  0.00  0.00    +0.000 HD
BRANCH   4   6
ATOM      6  C   UNL     1       1.618  10.401  18.609  0.00  0.00    +0.000 C 
BRANCH   6   7
ATOM      7  C   UNL     1       0.079  10.620  18.764  0.00  0.00    +0.000 C 
ATOM      8  C   UNL     1      -0.349  11.960  18.114  0.00  0.00    +0.000 C 
ATOM      9  C   UNL     1      -1.835  11.807  17.806  0.00  0.00    +0.000 C 
ATOM     10  C   UNL     1      -2.053  10.319  17.560  0.00  0.00    +0.000 C 
ATOM     11  C   UNL     1      -0.738   9.617  17.909  0.00  0.00    +0.000 C 
BRANCH   7  12
ATOM     12  C   UNL     1      -0.282  10.481  20.263  0.00  0.00    +0.000 A 
ATOM     13  C   UNL     1      -0.635  11.573  21.075  0.00  0.00    +0.000 A 
ATOM     14  C   UNL     1      -0.863  11.420  22.449  0.00  0.00    +0.000 A 
ATOM     15  C   UNL     1      -0.741  10.172  23.045  0.00  0.00    +0.000 A 
ATOM     16  C   UNL     1      -0.415   9.069  22.265  0.00  0.00    +0.000 A 
ATOM     17  C   UNL     1      -0.200   9.219  20.890  0.00  0.00    +0.000 A 
ENDBRANCH   7  12
ENDBRANCH   6   7
ENDBRANCH   4   6
ENDBRANCH   1   3
BRANCH   1  18
ATOM     18  C   UNL     1       3.547   5.780  18.563  0.00  0.00    +0.000 C 
BRANCH  18  19
ATOM     19  C   UNL     1       4.779   5.324  17.767  0.00  0.00    +0.000 A 
ATOM     20  C   UNL     1       4.720   5.020  16.397  0.00  0.00    +0.000 A 
ATOM     21  C   UNL     1       5.858   4.612  15.696  0.00  0.00    +0.000 A 
ATOM     22 BR   UNL     1       5.737   4.232  13.847  0.00  0.00    +0.000 Br
ATOM     23  C   UNL     1       7.082   4.489  16.345  0.00  0.00    +0.000 A 
ATOM     24  C   UNL     1       7.167   4.772  17.706  0.00  0.00    +0.000 A 
ATOM     25  C   UNL     1       6.029   5.184  18.405  0.00  0.00    +0.000 A 
BRANCH  25  26
ATOM     26  O   UNL     1       6.128   5.469  19.737  0.00  0.00    +0.000 OA
ATOM     27  H   UNL     1       5.235   5.575  20.105  0.00  0.00    +0.000 HD
ENDBRANCH  25  26
ENDBRANCH  18  19
BRANCH  18  28
ATOM     28  C   UNL     1       2.670   4.611  19.020  0.00  0.00    +0.000 A 
ATOM     29  C   UNL     1       1.847   3.908  18.126  0.00  0.00    +0.000 A 
ATOM     30  C   UNL     1       0.919   2.977  18.599  0.00  0.00    +0.000 A 
ATOM     31  C   UNL     1       0.809   2.730  19.965  0.00  0.00    +0.000 A 
ATOM     32  C   UNL     1       1.657   3.378  20.859  0.00  0.00    +0.000 A 
ATOM     33  C   UNL     1       2.590   4.303  20.388  0.00  0.00    +0.000 A 
ENDBRANCH  18  28
ENDBRANCH   1  18
TORSDOF 8
ENDMDL
MODEL 2
REMARK VINA RESULT:      -9.3      0.313      1.249
REMARK  Name = 
REMARK  8 active torsions:
REMARK  status: ('A' for Active; 'I' for Inactive)
REMARK    1  A    between atoms: C_2  and  C_3
REMARK    2  A    between atoms: C_3  and  C_4
REMARK    3  A    between atoms: C_4  and  C_5
REMARK    4  A    between atoms: C_4  and  C_11
REMARK    5  A    between atoms: C_17  and  O_18
REMARK    6  A    between atoms: N_19  and  C_20
REMARK    7  A    between atoms: C_20  and  C_21
REMARK    8  A    between atoms: C_21  and  C_22
REMARK                            x       y       z     vdW  Elec       q    Type
REMARK                         _______ _______ _______ _____ _____    ______ ____
ROOT
ATOM      1  C   UNL     1       2.736   7.205  17.714  0.00  0.00    +0.000 C 
ENDROOT
BRANCH   1   3
ATOM      2  O   UNL     1       2.268   8.322  19.820  0.00  0.00    +0.000 OA
ATOM      3  C   UNL     1       2.277   8.360  18.596  0.00  0.00    +0.000 C 
ATOM      4  N   UNL     1       1.949   9.493  17.873  0.00  0.00    +0.000 N 
ATOM      5  H   UNL     1       1.828   9.397  16.875  0.00  0.00    +0.000 HD
BRANCH   4   6
ATOM      6  C   UNL     1       1.461  10.698  18.529  0.00  0.00    +0.000 C 
BRANCH   6   7
ATOM      7  C   UNL     1      -0.071  10.717  18.834  0.00  0.00    +0.000 C 
ATOM      8  C   UNL     1      -0.726  11.998  18.259  0.00  0.00    +0.000 C 
ATOM      9  C   UNL     1      -2.204  11.659  18.090  0.00  0.00    +0.000 C 
ATOM     10  C   UNL     1      -2.254  10.158  17.832  0.00  0.00    +0.000 C 
ATOM     11  C   UNL     1      -0.834   9.626  18.038  0.00  0.00    +0.000 C 
BRANCH   7  12
ATOM     12  C   UNL     1      -0.264  10.516  20.358  0.00  0.00    +0.000 A 
ATOM     13  C   UNL     1      -0.317   9.251  20.968  0.00  0.00    +0.000 A 
ATOM     14  C   UNL     1      -0.586   9.109  22.335  0.00  0.00    +0.000 A 
ATOM     15  C   UNL     1      -0.813  10.228  23.126  0.00  0.00    +0.000 A 
ATOM     16  C   UNL     1      -0.744  11.493  22.556  0.00  0.00    +0.000 A 
ATOM     17  C   UNL     1      -0.462  11.637  21.193  0.00  0.00    +0.000 A 
ENDBRANCH   7  12
ENDBRANCH   6   7
ENDBRANCH   4   6
ENDBRANCH   1   3
BRANCH   1  18
ATOM     18  C   UNL     1       3.476   6.095  18.501  0.00  0.00    +0.000 C 
BRANCH  18  19
ATOM     19  C   UNL     1       4.691   5.505  17.769  0.00  0.00    +0.000 A 
ATOM     20  C   UNL     1       4.669   5.199  16.398  0.00  0.00    +0.000 A 
ATOM     21  C   UNL     1       5.790   4.666  15.757  0.00  0.00    +0.000 A 
ATOM     22 BR   UNL     1       5.722   4.289  13.905  0.00  0.00    +0.000 Br
ATOM     23  C   UNL     1       6.960   4.418  16.468  0.00  0.00    +0.000 A 
ATOM     24  C   UNL     1       7.005   4.700  17.831  0.00  0.00    +0.000 A 
ATOM     25  C   UNL     1       5.884   5.236  18.470  0.00  0.00    +0.000 A 
BRANCH  25  26
ATOM     26  O   UNL     1       5.946   5.518  19.805  0.00  0.00    +0.000 OA
ATOM     27  H   UNL     1       5.147   5.174  20.238  0.00  0.00    +0.000 HD
ENDBRANCH  25  26
ENDBRANCH  18  19
BRANCH  18  28
ATOM     28  C   UNL     1       2.469   5.028  18.937  0.00  0.00    +0.000 A 
ATOM     29  C   UNL     1       2.130   4.834  20.286  0.00  0.00    +0.000 A 
ATOM     30  C   UNL     1       1.361   3.735  20.673  0.00  0.00    +0.000 A 
ATOM     31  C   UNL     1       0.911   2.824  19.720  0.00  0.00    +0.000 A 
ATOM     32  C   UNL     1       1.191   3.034  18.372  0.00  0.00    +0.000 A 
ATOM     33  C   UNL     1       1.954   4.135  17.982  0.00  0.00    +0.000 A 
ENDBRANCH  18  28
ENDBRANCH   1  18
TORSDOF 8
ENDMDL
MODEL 3
REMARK VINA RESULT:      -9.0      1.249      2.346
REMARK  Name = 
REMARK  8 active torsions:
REMARK  status: ('A' for Active; 'I' for Inactive)
REMARK    1  A    between atoms: C_2  and  C_3
REMARK    2  A    between atoms: C_3  and  C_4
REMARK    3  A    between atoms: C_4  and  C_5
REMARK    4  A    between atoms: C_4  and  C_11
REMARK    5  A    between atoms: C_17  and  O_18
REMARK    6  A    between atoms: N_19  and  C_20
REMARK    7  A    between atoms: C_20  and  C_21
REMARK    8  A    between atoms: C_21  and  C_22
REMARK                            x       y       z     vdW  Elec       q    Type
REMARK                         _______ _______ _______ _____ _____    ______ ____
ROOT
ATOM      1  C   UNL     1       3.098   6.743  18.264  0.00  0.00    +0.000 C 
ENDROOT
BRANCH   1   3
ATOM      2  O   UNL     1       2.144   6.998  20.484  0.00  0.00    +0.000 OA
ATOM      3  C   UNL     1       2.278   7.433  19.347  0.00  0.00    +0.000 C 
ATOM      4  N   UNL     1       1.764   8.651  18.939  0.00  0.00    +0.000 N 
ATOM      5  H   UNL     1       1.780   8.864  17.952  0.00  0.00    +0.000 HD
BRANCH   4   6
ATOM      6  C   UNL     1       0.927   9.456  19.819  0.00  0.00    +0.000 C 
BRANCH   6   7
ATOM      7  C   UNL     1       0.665  10.918  19.336  0.00  0.00    +0.000 C 
ATOM      8  C   UNL     1       0.935  11.928  20.480  0.00  0.00    +0.000 C 
ATOM      9  C   UNL     1       1.216  13.259  19.790  0.00  0.00    +0.000 C 
ATOM     10  C   UNL     1       1.825  12.902  18.440  0.00  0.00    +0.000 C 
ATOM     11  C   UNL     1       1.716  11.382  18.294  0.00  0.00    +0.000 C 
BRANCH   7  12
ATOM     12  C   UNL     1      -0.762  10.981  18.738  0.00  0.00    +0.000 A 
ATOM     13  C   UNL     1      -1.783  11.792  19.263  0.00  0.00    +0.000 A 
ATOM     14  C   UNL     1      -3.087  11.752  18.752  0.00  0.00    +0.000 A 
ATOM     15  C   UNL     1      -3.402  10.897  17.704  0.00  0.00    +0.000 A 
ATOM     16  C   UNL     1      -2.410  10.100  17.148  0.00  0.00    +0.000 A 
ATOM     17  C   UNL     1      -1.104  10.149  17.650  0.00  0.00    +0.000 A 
ENDBRANCH   7  12
ENDBRANCH   6   7
ENDBRANCH   4   6
ENDBRANCH   1   3
BRANCH   1  18
ATOM     18  C   UNL     1       3.893   5.522  18.789  0.00  0.00    +0.000 C 
BRANCH  18  19
ATOM     19  C   UNL     1       5.109   5.142  17.929  0.00  0.00    +0.000 A 
ATOM     20  C   UNL     1       4.998   4.831  16.564  0.00  0.00    +0.000 A 
ATOM     21  C   UNL     1       6.122   4.493  15.806  0.00  0.00    +0.000 A 
ATOM     22 BR   UNL     1       5.929   4.100  13.965  0.00  0.00    +0.000 Br
ATOM     23  C   UNL     1       7.383   4.450  16.390  0.00  0.00    +0.000 A 
ATOM     24  C   UNL     1       7.520   4.742  17.745  0.00  0.00    +0.000 A 
ATOM     25  C   UNL     1       6.396   5.083  18.502  0.00  0.00    +0.000 A 
BRANCH  25  26
ATOM     26  O   UNL     1       6.546   5.378  19.827  0.00  0.00    +0.000 OA
ATOM     27  H   UNL     1       7.045   4.663  20.255  0.00  0.00    +0.000 HD
ENDBRANCH  25  26
ENDBRANCH  18  19
BRANCH  18  28
ATOM     28  C   UNL     1       2.932   4.350  19.008  0.00  0.00    +0.000 A 
ATOM     29  C   UNL     1       1.909   4.049  18.097  0.00  0.00    +0.000 A 
ATOM     30  C   UNL     1       0.933   3.101  18.413  0.00  0.00    +0.000 A 
ATOM     31  C   UNL     1       0.973   2.436  19.636  0.00  0.00    +0.000 A 
ATOM     32  C   UNL     1       2.015   2.683  20.527  0.00  0.00    +0.000 A 
ATOM     33  C   UNL     1       2.995   3.625  20.210  0.00  0.00    +0.000 A 
ENDBRANCH  18  28
ENDBRANCH   1  18
TORSDOF 8
ENDMDL
MODEL 4
REMARK VINA RESULT:      -8.8      1.264      2.719
REMARK  Name = 
REMARK  8 active torsions:
REMARK  status: ('A' for Active; 'I' for Inactive)
REMARK    1  A    between atoms: C_2  and  C_3
REMARK    2  A    between atoms: C_3  and  C_4
REMARK    3  A    between atoms: C_4  and  C_5
REMARK    4  A    between atoms: C_4  and  C_11
REMARK    5  A    between atoms: C_17  and  O_18
REMARK    6  A    between atoms: N_19  and  C_20
REMARK    7  A    between atoms: C_20  and  C_21
REMARK    8  A    between atoms: C_21  and  C_22
REMARK                            x       y       z     vdW  Elec       q    Type
REMARK                         _______ _______ _______ _____ _____    ______ ____
ROOT
ATOM      1  C   UNL     1       2.657   6.272  17.822  0.00  0.00    +0.000 C 
ENDROOT
BRANCH   1   3
ATOM      2  O   UNL     1       2.787   8.596  17.123  0.00  0.00    +0.000 OA
ATOM      3  C   UNL     1       2.474   7.777  17.978  0.00  0.00    +0.000 C 
ATOM      4  N   UNL     1       1.837   8.123  19.157  0.00  0.00    +0.000 N 
ATOM      5  H   UNL     1       1.756   7.417  19.874  0.00  0.00    +0.000 HD
BRANCH   4   6
ATOM      6  C   UNL     1       1.591   9.515  19.508  0.00  0.00    +0.000 C 
BRANCH   6   7
ATOM      7  C   UNL     1       0.391   9.756  20.479  0.00  0.00    +0.000 C 
ATOM      8  C   UNL     1      -0.016   8.436  21.182  0.00  0.00    +0.000 C 
ATOM      9  C   UNL     1      -0.736   8.859  22.458  0.00  0.00    +0.000 C 
ATOM     10  C   UNL     1      -0.126  10.200  22.849  0.00  0.00    +0.000 C 
ATOM     11  C   UNL     1       0.800  10.615  21.703  0.00  0.00    +0.000 C 
BRANCH   7  12
ATOM     12  C   UNL     1      -0.745  10.444  19.683  0.00  0.00    +0.000 A 
ATOM     13  C   UNL     1      -1.378  11.625  20.108  0.00  0.00    +0.000 A 
ATOM     14  C   UNL     1      -2.465  12.166  19.409  0.00  0.00    +0.000 A 
ATOM     15  C   UNL     1      -2.949  11.536  18.269  0.00  0.00    +0.000 A 
ATOM     16  C   UNL     1      -2.330  10.380  17.811  0.00  0.00    +0.000 A 
ATOM     17  C   UNL     1      -1.236   9.847  18.502  0.00  0.00    +0.000 A 
ENDBRANCH   7  12
ENDBRANCH   6   7
ENDBRANCH   4   6
ENDBRANCH   1   3
BRANCH   1  18
ATOM     18  C   UNL     1       3.818   5.709  18.679  0.00  0.00    +0.000 C 
BRANCH  18  19
ATOM     19  C   UNL     1       5.048   5.273  17.868  0.00  0.00    +0.000 A 
ATOM     20  C   UNL     1       4.964   4.891  16.519  0.00  0.00    +0.000 A 
ATOM     21  C   UNL     1       6.100   4.502  15.805  0.00  0.00    +0.000 A 
ATOM     22 BR   UNL     1       5.942   4.014  13.984  0.00  0.00    +0.000 Br
ATOM     23  C   UNL     1       7.348   4.479  16.418  0.00  0.00    +0.000 A 
ATOM     24  C   UNL     1       7.459   4.842  17.758  0.00  0.00    +0.000 A 
ATOM     25  C   UNL     1       6.322   5.233  18.471  0.00  0.00    +0.000 A 
BRANCH  25  26
ATOM     26  O   UNL     1       6.446   5.597  19.781  0.00  0.00    +0.000 OA
ATOM     27  H   UNL     1       5.591   5.931  20.099  0.00  0.00    +0.000 HD
ENDBRANCH  25  26
ENDBRANCH  18  19
BRANCH  18  28
ATOM     28  C   UNL     1       3.283   4.600  19.588  0.00  0.00    +0.000 A 
ATOM     29  C   UNL     1       2.328   4.854  20.586  0.00  0.00    +0.000 A 
ATOM     30  C   UNL     1       2.001   3.870  21.521  0.00  0.00    +0.000 A 
ATOM     31  C   UNL     1       2.613   2.621  21.467  0.00  0.00    +0.000 A 
ATOM     32  C   UNL     1       3.520   2.335  20.449  0.00  0.00    +0.000 A 
ATOM     33  C   UNL     1       3.843   3.314  19.509  0.00  0.00    +0.000 A 
ENDBRANCH  18  28
ENDBRANCH   1  18
TORSDOF 8
ENDMDL
MODEL 5
REMARK VINA RESULT:      -8.8      1.470      2.321
REMARK  Name = 
REMARK  8 active torsions:
REMARK  status: ('A' for Active; 'I' for Inactive)
REMARK    1  A    between atoms: C_2  and  C_3
REMARK    2  A    between atoms: C_3  and  C_4
REMARK    3  A    between atoms: C_4  and  C_5
REMARK    4  A    between atoms: C_4  and  C_11
REMARK    5  A    between atoms: C_17  and  O_18
REMARK    6  A    between atoms: N_19  and  C_20
REMARK    7  A    between atoms: C_20  and  C_21
REMARK    8  A    between atoms: C_21  and  C_22
REMARK                            x       y       z     vdW  Elec       q    Type
REMARK                         _______ _______ _______ _____ _____    ______ ____
ROOT
ATOM      1  C   UNL     1       2.959   6.672  18.435  0.00  0.00    +0.000 C 
ENDROOT
BRANCH   1   3
ATOM      2  O   UNL     1       1.939   6.804  20.638  0.00  0.00    +0.000 OA
ATOM      3  C   UNL     1       2.160   7.331  19.554  0.00  0.00    +0.000 C 
ATOM      4  N   UNL     1       1.779   8.626  19.253  0.00  0.00    +0.000 N 
ATOM      5  H   UNL     1       1.856   8.930  18.293  0.00  0.00    +0.000 HD
BRANCH   4   6
ATOM      6  C   UNL     1       0.984   9.419  20.181  0.00  0.00    +0.000 C 
BRANCH   6   7
ATOM      7  C   UNL     1       0.260  10.653  19.552  0.00  0.00    +0.000 C 
ATOM      8  C   UNL     1      -0.365  10.280  18.184  0.00  0.00    +0.000 C 
ATOM      9  C   UNL     1      -1.478  11.298  17.954  0.00  0.00    +0.000 C 
ATOM     10  C   UNL     1      -1.966  11.695  19.342  0.00  0.00    +0.000 C 
ATOM     11  C   UNL     1      -1.012  11.046  20.348  0.00  0.00    +0.000 C 
BRANCH   7  12
ATOM     12  C   UNL     1       1.263  11.832  19.508  0.00  0.00    +0.000 A 
ATOM     13  C   UNL     1       1.434  12.738  20.569  0.00  0.00    +0.000 A 
ATOM     14  C   UNL     1       2.283  13.847  20.456  0.00  0.00    +0.000 A 
ATOM     15  C   UNL     1       2.979  14.079  19.277  0.00  0.00    +0.000 A 
ATOM     16  C   UNL     1       2.848  13.189  18.218  0.00  0.00    +0.000 A 
ATOM     17  C   UNL     1       2.010  12.074  18.336  0.00  0.00    +0.000 A 
ENDBRANCH   7  12
ENDBRANCH   6   7
ENDBRANCH   4   6
ENDBRANCH   1   3
BRANCH   1  18
ATOM     18  C   UNL     1       3.795   5.461  18.917  0.00  0.00    +0.000 C 
BRANCH  18  19
ATOM     19  C   UNL     1       4.996   5.126  18.020  0.00  0.00    +0.000 A 
ATOM     20  C   UNL     1       4.859   4.853  16.649  0.00  0.00    +0.000 A 
ATOM     21  C   UNL     1       5.970   4.554  15.855  0.00  0.00    +0.000 A 
ATOM     22 BR   UNL     1       5.740   4.212  14.009  0.00  0.00    +0.000 Br
ATOM     23  C   UNL     1       7.244   4.514  16.410  0.00  0.00    +0.000 A 
ATOM     24  C   UNL     1       7.408   4.769  17.769  0.00  0.00    +0.000 A 
ATOM     25  C   UNL     1       6.297   5.070  18.560  0.00  0.00    +0.000 A 
BRANCH  25  26
ATOM     26  O   UNL     1       6.473   5.329  19.890  0.00  0.00    +0.000 OA
ATOM     27  H   UNL     1       5.620   5.235  20.346  0.00  0.00    +0.000 HD
ENDBRANCH  25  26
ENDBRANCH  18  19
BRANCH  18  28
ATOM     28  C   UNL     1       2.868   4.264  19.141  0.00  0.00    +0.000 A 
ATOM     29  C   UNL     1       1.843   3.940  18.238  0.00  0.00    +0.000 A 
ATOM     30  C   UNL     1       0.897   2.965  18.560  0.00  0.00    +0.000 A 
ATOM     31  C   UNL     1       0.968   2.295  19.779  0.00  0.00    +0.000 A 
ATOM     32  C   UNL     1       2.012   2.565  20.660  0.00  0.00    +0.000 A 
ATOM     33  C   UNL     1       2.963   3.534  20.338  0.00  0.00    +0.000 A 
ENDBRANCH  18  28
ENDBRANCH   1  18
TORSDOF 8
ENDMDL
MODEL 6
REMARK VINA RESULT:      -8.6      0.934      2.621
REMARK  Name = 
REMARK  8 active torsions:
REMARK  status: ('A' for Active; 'I' for Inactive)
REMARK    1  A    between atoms: C_2  and  C_3
REMARK    2  A    between atoms: C_3  and  C_4
REMARK    3  A    between atoms: C_4  and  C_5
REMARK    4  A    between atoms: C_4  and  C_11
REMARK    5  A    between atoms: C_17  and  O_18
REMARK    6  A    between atoms: N_19  and  C_20
REMARK    7  A    between atoms: C_20  and  C_21
REMARK    8  A    between atoms: C_21  and  C_22
REMARK                            x       y       z     vdW  Elec       q    Type
REMARK                         _______ _______ _______ _____ _____    ______ ____
ROOT
ATOM      1  C   UNL     1       2.525   6.566  17.574  0.00  0.00    +0.000 C 
ENDROOT
BRANCH   1   3
ATOM      2  O   UNL     1       3.583   8.742  17.803  0.00  0.00    +0.000 OA
ATOM      3  C   UNL     1       2.560   8.069  17.827  0.00  0.00    +0.000 C 
ATOM      4  N   UNL     1       1.301   8.614  18.004  0.00  0.00    +0.000 N 
ATOM      5  H   UNL     1       0.531   7.982  18.170  0.00  0.00    +0.000 HD
BRANCH   4   6
ATOM      6  C   UNL     1       1.121  10.032  18.286  0.00  0.00    +0.000 C 
BRANCH   6   7
ATOM      7  C   UNL     1       0.135  10.360  19.453  0.00  0.00    +0.000 C 
ATOM      8  C   UNL     1       0.218   9.276  20.557  0.00  0.00    +0.000 C 
ATOM      9  C   UNL     1      -0.292   9.949  21.828  0.00  0.00    +0.000 C 
ATOM     10  C   UNL     1       0.048  11.427  21.676  0.00  0.00    +0.000 C 
ATOM     11  C   UNL     1       0.579  11.613  20.252  0.00  0.00    +0.000 C 
BRANCH   7  12
ATOM     12  C   UNL     1      -1.276  10.568  18.851  0.00  0.00    +0.000 A 
ATOM     13  C   UNL     1      -1.831   9.719  17.878  0.00  0.00    +0.000 A 
ATOM     14  C   UNL     1      -3.073   9.993  17.289  0.00  0.00    +0.000 A 
ATOM     15  C   UNL     1      -3.788  11.125  17.658  0.00  0.00    +0.000 A 
ATOM     16  C   UNL     1      -3.277  11.971  18.634  0.00  0.00    +0.000 A 
ATOM     17  C   UNL     1      -2.043  11.690  19.231  0.00  0.00    +0.000 A 
ENDBRANCH   7  12
ENDBRANCH   6   7
ENDBRANCH   4   6
ENDBRANCH   1   3
BRANCH   1  18
ATOM     18  C   UNL     1       3.500   5.774  18.480  0.00  0.00    +0.000 C 
BRANCH  18  19
ATOM     19  C   UNL     1       4.773   5.293  17.768  0.00  0.00    +0.000 A 
ATOM     20  C   UNL     1       4.787   4.936  16.409  0.00  0.00    +0.000 A 
ATOM     21  C   UNL     1       5.961   4.505  15.786  0.00  0.00    +0.000 A 
ATOM     22 BR   UNL     1       5.938   4.054  13.949  0.00  0.00    +0.000 Br
ATOM     23  C   UNL     1       7.149   4.411  16.503  0.00  0.00    +0.000 A 
ATOM     24  C   UNL     1       7.162   4.746  17.854  0.00  0.00    +0.000 A 
ATOM     25  C   UNL     1       5.987   5.181  18.475  0.00  0.00    +0.000 A 
BRANCH  25  26
ATOM     26  O   UNL     1       6.016   5.517  19.799  0.00  0.00    +0.000 OA
ATOM     27  H   UNL     1       6.880   5.910  20.006  0.00  0.00    +0.000 HD
ENDBRANCH  25  26
ENDBRANCH  18  19
BRANCH  18  28
ATOM     28  C   UNL     1       2.740   4.639  19.170  0.00  0.00    +0.000 A 
ATOM     29  C   UNL     1       1.943   3.735  18.451  0.00  0.00    +0.000 A 
ATOM     30  C   UNL     1       1.114   2.833  19.121  0.00  0.00    +0.000 A 
ATOM     31  C   UNL     1       1.078   2.814  20.512  0.00  0.00    +0.000 A 
ATOM     32  C   UNL     1       1.905   3.666  21.240  0.00  0.00    +0.000 A 
ATOM     33  C   UNL     1       2.740   4.564  20.573  0.00  0.00    +0.000 A 
ENDBRANCH  18  28
ENDBRANCH   1  18
TORSDOF 8
ENDMDL
MODEL 7
REMARK VINA RESULT:      -8.6      0.784      1.172
REMARK  Name = 
REMARK  8 active torsions:
REMARK  status: ('A' for Active; 'I' for Inactive)
REMARK    1  A    between atoms: C_2  and  C_3
REMARK    2  A    between atoms: C_3  and  C_4
REMARK    3  A    between atoms: C_4  and  C_5
REMARK    4  A    between atoms: C_4  and  C_11
REMARK    5  A    between atoms: C_17  and  O_18
REMARK    6  A    between atoms: N_19  and  C_20
REMARK    7  A    between atoms: C_20  and  C_21
REMARK    8  A    between atoms: C_21  and  C_22
REMARK                            x       y       z     vdW  Elec       q    Type
REMARK                         _______ _______ _______ _____ _____    ______ ____
ROOT
ATOM      1  C   UNL     1       2.348   6.567  17.765  0.00  0.00    +0.000 C 
ENDROOT
BRANCH   1   3
ATOM      2  O   UNL     1       3.260   8.720  17.102  0.00  0.00    +0.000 OA
ATOM      3  C   UNL     1       2.500   8.082  17.821  0.00  0.00    +0.000 C 
ATOM      4  N   UNL     1       1.628   8.679  18.714  0.00  0.00    +0.000 N 
ATOM      5  H   UNL     1       1.153   8.085  19.378  0.00  0.00    +0.000 HD
BRANCH   4   6
ATOM      6  C   UNL     1       1.634  10.119  18.935  0.00  0.00    +0.000 C 
BRANCH   6   7
ATOM      7  C   UNL     1       0.226  10.774  19.098  0.00  0.00    +0.000 C 
ATOM      8  C   UNL     1       0.247  12.243  18.606  0.00  0.00    +0.000 C 
ATOM      9  C   UNL     1      -1.201  12.580  18.266  0.00  0.00    +0.000 C 
ATOM     10  C   UNL     1      -1.842  11.263  17.845  0.00  0.00    +0.000 C 
ATOM     11  C   UNL     1      -0.814  10.163  18.123  0.00  0.00    +0.000 C 
BRANCH   7  12
ATOM     12  C   UNL     1      -0.228  10.588  20.567  0.00  0.00    +0.000 A 
ATOM     13  C   UNL     1      -0.669  11.648  21.378  0.00  0.00    +0.000 A 
ATOM     14  C   UNL     1      -0.982  11.455  22.730  0.00  0.00    +0.000 A 
ATOM     15  C   UNL     1      -0.858  10.197  23.305  0.00  0.00    +0.000 A 
ATOM     16  C   UNL     1      -0.447   9.124  22.524  0.00  0.00    +0.000 A 
ATOM     17  C   UNL     1      -0.147   9.314  21.170  0.00  0.00    +0.000 A 
ENDBRANCH   7  12
ENDBRANCH   6   7
ENDBRANCH   4   6
ENDBRANCH   1   3
BRANCH   1  18
ATOM     18  C   UNL     1       3.375   5.819  18.651  0.00  0.00    +0.000 C 
BRANCH  18  19
ATOM     19  C   UNL     1       4.617   5.322  17.895  0.00  0.00    +0.000 A 
ATOM     20  C   UNL     1       4.583   4.982  16.533  0.00  0.00    +0.000 A 
ATOM     21  C   UNL     1       5.730   4.536  15.870  0.00  0.00    +0.000 A 
ATOM     22 BR   UNL     1       5.643   4.108  14.029  0.00  0.00    +0.000 Br
ATOM     23  C   UNL     1       6.937   4.411  16.550  0.00  0.00    +0.000 A 
ATOM     24  C   UNL     1       6.996   4.730  17.904  0.00  0.00    +0.000 A 
ATOM     25  C   UNL     1       5.849   5.179  18.565  0.00  0.00    +0.000 A 
BRANCH  25  26
ATOM     26  O   UNL     1       5.923   5.499  19.891  0.00  0.00    +0.000 OA
ATOM     27  H   UNL     1       5.534   4.777  20.412  0.00  0.00    +0.000 HD
ENDBRANCH  25  26
ENDBRANCH  18  19
BRANCH  18  28
ATOM     28  C   UNL     1       2.662   4.705  19.420  0.00  0.00    +0.000 A 
ATOM     29  C   UNL     1       2.624   4.677  20.823  0.00  0.00    +0.000 A 
ATOM     30  C   UNL     1       2.136   3.556  21.498  0.00  0.00    +0.000 A 
ATOM     31  C   UNL     1       1.671   2.456  20.783  0.00  0.00    +0.000 A 
ATOM     32  C   UNL     1       1.649   2.491  19.391  0.00  0.00    +0.000 A 
ATOM     33  C   UNL     1       2.130   3.613  18.714  0.00  0.00    +0.000 A 
ENDBRANCH  18  28
ENDBRANCH   1  18
TORSDOF 8
ENDMDL
MODEL 8
REMARK VINA RESULT:      -8.5      1.289      2.591
REMARK  Name = 
REMARK  8 active torsions:
REMARK  status: ('A' for Active; 'I' for Inactive)
REMARK    1  A    between atoms: C_2  and  C_3
REMARK    2  A    between atoms: C_3  and  C_4
REMARK    3  A    between atoms: C_4  and  C_5
REMARK    4  A    between atoms: C_4  and  C_11
REMARK    5  A    between atoms: C_17  and  O_18
REMARK    6  A    between atoms: N_19  and  C_20
REMARK    7  A    between atoms: C_20  and  C_21
REMARK    8  A    between atoms: C_21  and  C_22
REMARK                            x       y       z     vdW  Elec       q    Type
REMARK                         _______ _______ _______ _____ _____    ______ ____
ROOT
ATOM      1  C   UNL     1       2.991   6.914  18.274  0.00  0.00    +0.000 C 
ENDROOT
BRANCH   1   3
ATOM      2  O   UNL     1       2.081   7.283  20.496  0.00  0.00    +0.000 OA
ATOM      3  C   UNL     1       2.204   7.667  19.340  0.00  0.00    +0.000 C 
ATOM      4  N   UNL     1       1.709   8.877  18.889  0.00  0.00    +0.000 N 
ATOM      5  H   UNL     1       1.713   9.048  17.894  0.00  0.00    +0.000 HD
BRANCH   4   6
ATOM      6  C   UNL     1       0.905   9.736  19.748  0.00  0.00    +0.000 C 
BRANCH   6   7
ATOM      7  C   UNL     1      -0.021  10.748  18.999  0.00  0.00    +0.000 C 
ATOM      8  C   UNL     1      -0.596  10.110  17.709  0.00  0.00    +0.000 C 
ATOM      9  C   UNL     1      -1.864  10.898  17.396  0.00  0.00    +0.000 C 
ATOM     10  C   UNL     1      -2.391  11.382  18.741  0.00  0.00    +0.000 C 
ATOM     11  C   UNL     1      -1.328  11.027  19.785  0.00  0.00    +0.000 C 
BRANCH   7  12
ATOM     12  C   UNL     1       0.773  12.059  18.777  0.00  0.00    +0.000 A 
ATOM     13  C   UNL     1       2.088  12.088  18.282  0.00  0.00    +0.000 A 
ATOM     14  C   UNL     1       2.807  13.287  18.183  0.00  0.00    +0.000 A 
ATOM     15  C   UNL     1       2.229  14.486  18.581  0.00  0.00    +0.000 A 
ATOM     16  C   UNL     1       0.922  14.492  19.053  0.00  0.00    +0.000 A 
ATOM     17  C   UNL     1       0.199  13.296  19.139  0.00  0.00    +0.000 A 
ENDBRANCH   7  12
ENDBRANCH   6   7
ENDBRANCH   4   6
ENDBRANCH   1   3
BRANCH   1  18
ATOM     18  C   UNL     1       3.786   5.711  18.840  0.00  0.00    +0.000 C 
BRANCH  18  19
ATOM     19  C   UNL     1       4.971   5.270  17.969  0.00  0.00    +0.000 A 
ATOM     20  C   UNL     1       4.836   4.994  16.598  0.00  0.00    +0.000 A 
ATOM     21  C   UNL     1       5.933   4.598  15.828  0.00  0.00    +0.000 A 
ATOM     22 BR   UNL     1       5.709   4.256  13.981  0.00  0.00    +0.000 Br
ATOM     23  C   UNL     1       7.190   4.461  16.406  0.00  0.00    +0.000 A 
ATOM     24  C   UNL     1       7.351   4.716  17.766  0.00  0.00    +0.000 A 
ATOM     25  C   UNL     1       6.253   5.115  18.534  0.00  0.00    +0.000 A 
BRANCH  25  26
ATOM     26  O   UNL     1       6.427   5.374  19.864  0.00  0.00    +0.000 OA
ATOM     27  H   UNL     1       7.330   5.121  20.119  0.00  0.00    +0.000 HD
ENDBRANCH  25  26
ENDBRANCH  18  19
BRANCH  18  28
ATOM     28  C   UNL     1       2.818   4.566  19.150  0.00  0.00    +0.000 A 
ATOM     29  C   UNL     1       2.897   3.829  20.342  0.00  0.00    +0.000 A 
ATOM     30  C   UNL     1       2.131   2.675  20.514  0.00  0.00    +0.000 A 
ATOM     31  C   UNL     1       1.270   2.248  19.506  0.00  0.00    +0.000 A 
ATOM     32  C   UNL     1       1.139   3.000  18.341  0.00  0.00    +0.000 A 
ATOM     33  C   UNL     1       1.898   4.158  18.170  0.00  0.00    +0.000 A 
ENDBRANCH  18  28
ENDBRANCH   1  18
TORSDOF 8
ENDMDL
MODEL 9
REMARK VINA RESULT:      -8.4      0.854      1.843
REMARK  Name = 
REMARK  8 active torsions:
REMARK  status: ('A' for Active; 'I' for Inactive)
REMARK    1  A    between atoms: C_2  and  C_3
REMARK    2  A    between atoms: C_3  and  C_4
REMARK    3  A    between atoms: C_4  and  C_5
REMARK    4  A    between atoms: C_4  and  C_11
REMARK    5  A    between atoms: C_17  and  O_18
REMARK    6  A    between atoms: N_19  and  C_20
REMARK    7  A    between atoms: C_20  and  C_21
REMARK    8  A    between atoms: C_21  and  C_22
REMARK                            x       y       z     vdW  Elec       q    Type
REMARK                         _______ _______ _______ _____ _____    ______ ____
ROOT
ATOM      1  C   UNL     1       3.166   7.406  17.720  0.00  0.00    +0.000 C 
ENDROOT
BRANCH   1   3
ATOM      2  O   UNL     1       1.799   7.845  19.681  0.00  0.00    +0.000 OA
ATOM      3  C   UNL     1       2.031   8.061  18.498  0.00  0.00    +0.000 C 
ATOM      4  N   UNL     1       1.335   8.994  17.750  0.00  0.00    +0.000 N 
ATOM      5  H   UNL     1       1.478   9.000  16.750  0.00  0.00    +0.000 HD
BRANCH   4   6
ATOM      6  C   UNL     1       0.194   9.712  18.303  0.00  0.00    +0.000 C 
BRANCH   6   7
ATOM      7  C   UNL     1       0.535  11.063  19.009  0.00  0.00    +0.000 C 
ATOM      8  C   UNL     1       2.033  11.414  18.821  0.00  0.00    +0.000 C 
ATOM      9  C   UNL     1       2.124  12.925  19.010  0.00  0.00    +0.000 C 
ATOM     10  C   UNL     1       0.776  13.478  18.564  0.00  0.00    +0.000 C 
ATOM     11  C   UNL     1      -0.130  12.272  18.301  0.00  0.00    +0.000 C 
BRANCH   7  12
ATOM     12  C   UNL     1       0.070  10.970  20.483  0.00  0.00    +0.000 A 
ATOM     13  C   UNL     1       0.641  10.087  21.417  0.00  0.00    +0.000 A 
ATOM     14  C   UNL     1       0.131   9.965  22.716  0.00  0.00    +0.000 A 
ATOM     15  C   UNL     1      -0.965  10.721  23.112  0.00  0.00    +0.000 A 
ATOM     16  C   UNL     1      -1.537  11.619  22.220  0.00  0.00    +0.000 A 
ATOM     17  C   UNL     1      -1.019  11.751  20.926  0.00  0.00    +0.000 A 
ENDBRANCH   7  12
ENDBRANCH   6   7
ENDBRANCH   4   6
ENDBRANCH   1   3
BRANCH   1  18
ATOM     18  C   UNL     1       3.844   6.249  18.494  0.00  0.00    +0.000 C 
BRANCH  18  19
ATOM     19  C   UNL     1       5.027   5.603  17.757  0.00  0.00    +0.000 A 
ATOM     20  C   UNL     1       4.971   5.262  16.396  0.00  0.00    +0.000 A 
ATOM     21  C   UNL     1       6.064   4.679  15.749  0.00  0.00    +0.000 A 
ATOM     22 BR   UNL     1       5.950   4.255  13.909  0.00  0.00    +0.000 Br
ATOM     23  C   UNL     1       7.239   4.416  16.445  0.00  0.00    +0.000 A 
ATOM     24  C   UNL     1       7.319   4.732  17.799  0.00  0.00    +0.000 A 
ATOM     25  C   UNL     1       6.225   5.318  18.443  0.00  0.00    +0.000 A 
BRANCH  25  26
ATOM     26  O   UNL     1       6.321   5.634  19.769  0.00  0.00    +0.000 OA
ATOM     27  H   UNL     1       7.091   5.178  20.147  0.00  0.00    +0.000 HD
ENDBRANCH  25  26
ENDBRANCH  18  19
BRANCH  18  28
ATOM     28  C   UNL     1       2.780   5.231  18.915  0.00  0.00    +0.000 A 
ATOM     29  C   UNL     1       2.686   4.758  20.233  0.00  0.00    +0.000 A 
ATOM     30  C   UNL     1       1.837   3.694  20.545  0.00  0.00    +0.000 A 
ATOM     31  C   UNL     1       1.064   3.099  19.551  0.00  0.00    +0.000 A 
ATOM     32  C   UNL     1       1.104   3.595  18.251  0.00  0.00    +0.000 A 
ATOM     33  C   UNL     1       1.947   4.662  17.937  0.00  0.00    +0.000 A 
ENDBRANCH  18  28
ENDBRANCH   1  18
TORSDOF 8
ENDMDL
