MODEL 1
REMARK VINA RESULT:      -7.9      0.000      0.000
REMARK  Name = 
REMARK  10 active torsions:
REMARK  status: ('A' for Active; 'I' for Inactive)
REMARK    1  A    between atoms: C_1  and  O_2
REMARK    2  A    between atoms: O_2  and  C_3
REMARK    3  A    between atoms: C_6  and  C_7
REMARK    4  A    between atoms: C_7  and  C_8
REMARK    5  A    between atoms: N_17  and  C_18
REMARK    6  A    between atoms: C_18  and  C_19
REMARK    7  A    between atoms: C_22  and  O_23
REMARK    8  A    between atoms: O_23  and  C_24
REMARK    9  A    between atoms: C_24  and  C_25
REMARK   10  A    between atoms: C_25  and  N_26
REMARK                            x       y       z     vdW  Elec       q    Type
REMARK                         _______ _______ _______ _____ _____    ______ ____
ROOT
ATOM      1  C   UNL     1      -0.874  12.359  19.312  0.00  0.00    +0.000 C 
ATOM      2  C   UNL     1      -1.064  13.337  20.493  0.00  0.00    +0.000 C 
ATOM      3  O   UNL     1      -0.066  14.371  20.585  0.00  0.00    +0.000 OA
ATOM      4  C   UNL     1       1.090  14.134  19.884  0.00  0.00    +0.000 A 
ATOM      5  C   UNL     1       1.991  15.201  19.796  0.00  0.00    +0.000 A 
ATOM      6  C   UNL     1       3.131  15.093  18.993  0.00  0.00    +0.000 A 
ATOM      7  C   UNL     1       3.367  13.917  18.281  0.00  0.00    +0.000 A 
ATOM      8  C   UNL     1       2.494  12.836  18.408  0.00  0.00    +0.000 A 
ATOM      9  C   UNL     1       1.368  12.915  19.241  0.00  0.00    +0.000 A 
ATOM     10  N   UNL     1       0.503  11.796  19.344  0.00  0.00    +0.000 N 
ENDROOT
BRANCH   1  11
ATOM     11  C   UNL     1      -1.953  11.255  19.275  0.00  0.00    +0.000 C 
BRANCH  11  15
ATOM     12  C   UNL     1      -3.589  10.320  15.358  0.00  0.00    +0.000 A 
ATOM     13  C   UNL     1      -4.281  11.179  16.204  0.00  0.00    +0.000 A 
ATOM     14  C   UNL     1      -3.778  11.484  17.470  0.00  0.00    +0.000 A 
ATOM     15  C   UNL     1      -2.566  10.941  17.918  0.00  0.00    +0.000 A 
ATOM     16  C   UNL     1      -1.888  10.062  17.063  0.00  0.00    +0.000 A 
ATOM     17  C   UNL     1      -2.394   9.753  15.794  0.00  0.00    +0.000 A 
BRANCH  12  19
ATOM     18  C   UNL     1      -3.332   9.719  13.090  0.00  0.00    +0.000 C 
ATOM     19  O   UNL     1      -4.198  10.072  14.160  0.00  0.00    +0.000 OA
ENDBRANCH  12  19
ENDBRANCH  11  15
ENDBRANCH   1  11
BRANCH  10  20
ATOM     20  C   UNL     1       0.781  10.892  20.488  0.00  0.00    +0.000 C 
BRANCH  20  21
ATOM     21  C   UNL     1       1.250   9.511  20.106  0.00  0.00    +0.000 A 
ATOM     22  C   UNL     1       1.660   9.301  18.792  0.00  0.00    +0.000 A 
ATOM     23  C   UNL     1       2.053   8.041  18.379  0.00  0.00    +0.000 A 
ATOM     24  C   UNL     1       2.082   6.958  19.272  0.00  0.00    +0.000 A 
ATOM     25  C   UNL     1       1.727   7.175  20.602  0.00  0.00    +0.000 A 
ATOM     26  C   UNL     1       1.299   8.445  21.017  0.00  0.00    +0.000 A 
BRANCH  24  27
ATOM     27  O   UNL     1       2.434   5.667  18.916  0.00  0.00    +0.000 OA
BRANCH  27  28
ATOM     28  C   UNL     1       3.508   5.186  19.728  0.00  0.00    +0.000 C 
BRANCH  28  29
ATOM     29  C   UNL     1       4.920   5.409  19.190  0.00  0.00    +0.000 C 
BRANCH  29  30
ATOM     30  N   UNL     1       4.887   5.362  17.708  0.00  0.00    +0.000 NA
ATOM     31  C   UNL     1       5.344   6.614  17.078  0.00  0.00    +0.000 C 
ATOM     32  C   UNL     1       5.148   6.575  15.564  0.00  0.00    +0.000 C 
ATOM     33  C   UNL     1       5.855   5.378  14.951  0.00  0.00    +0.000 C 
ATOM     34  C   UNL     1       5.450   4.095  15.671  0.00  0.00    +0.000 C 
ATOM     35  C   UNL     1       5.634   4.212  17.187  0.00  0.00    +0.000 C 
ENDBRANCH  29  30
ENDBRANCH  28  29
ENDBRANCH  27  28
ENDBRANCH  24  27
ENDBRANCH  20  21
ENDBRANCH  10  20
TORSDOF 9
ENDMDL
MODEL 2
REMARK VINA RESULT:      -7.8      3.293     10.204
REMARK  Name = 
REMARK  10 active torsions:
REMARK  status: ('A' for Active; 'I' for Inactive)
REMARK    1  A    between atoms: C_1  and  O_2
REMARK    2  A    between atoms: O_2  and  C_3
REMARK    3  A    between atoms: C_6  and  C_7
REMARK    4  A    between atoms: C_7  and  C_8
REMARK    5  A    between atoms: N_17  and  C_18
REMARK    6  A    between atoms: C_18  and  C_19
REMARK    7  A    between atoms: C_22  and  O_23
REMARK    8  A    between atoms: O_23  and  C_24
REMARK    9  A    between atoms: C_24  and  C_25
REMARK   10  A    between atoms: C_25  and  N_26
REMARK                            x       y       z     vdW  Elec       q    Type
REMARK                         _______ _______ _______ _____ _____    ______ ____
ROOT
ATOM      1  C   UNL     1       4.644   4.781  16.974  0.00  0.00    +0.000 C 
ATOM      2  C   UNL     1       5.697   4.305  18.000  0.00  0.00    +0.000 C 
ATOM      3  O   UNL     1       5.168   3.518  19.084  0.00  0.00    +0.000 OA
ATOM      4  C   UNL     1       3.812   3.619  19.275  0.00  0.00    +0.000 A 
ATOM      5  C   UNL     1       3.246   2.722  20.187  0.00  0.00    +0.000 A 
ATOM      6  C   UNL     1       1.858   2.664  20.346  0.00  0.00    +0.000 A 
ATOM      7  C   UNL     1       1.039   3.504  19.592  0.00  0.00    +0.000 A 
ATOM      8  C   UNL     1       1.607   4.433  18.718  0.00  0.00    +0.000 A 
ATOM      9  C   UNL     1       2.999   4.530  18.577  0.00  0.00    +0.000 A 
ATOM     10  N   UNL     1       3.540   5.486  17.679  0.00  0.00    +0.000 N 
ENDROOT
BRANCH   1  11
ATOM     11  C   UNL     1       5.259   5.642  15.849  0.00  0.00    +0.000 C 
BRANCH  11  15
ATOM     12  C   UNL     1       6.827   3.620  12.335  0.00  0.00    +0.000 A 
ATOM     13  C   UNL     1       5.553   3.309  12.795  0.00  0.00    +0.000 A 
ATOM     14  C   UNL     1       5.035   3.940  13.928  0.00  0.00    +0.000 A 
ATOM     15  C   UNL     1       5.778   4.902  14.625  0.00  0.00    +0.000 A 
ATOM     16  C   UNL     1       7.067   5.192  14.161  0.00  0.00    +0.000 A 
ATOM     17  C   UNL     1       7.589   4.558  13.027  0.00  0.00    +0.000 A 
BRANCH  12  19
ATOM     18  C   UNL     1       6.752   1.580  11.151  0.00  0.00    +0.000 C 
ATOM     19  O   UNL     1       7.236   2.913  11.239  0.00  0.00    +0.000 OA
ENDBRANCH  12  19
ENDBRANCH  11  15
ENDBRANCH   1  11
BRANCH  10  20
ATOM     20  C   UNL     1       3.918   6.782  18.296  0.00  0.00    +0.000 C 
BRANCH  20  21
ATOM     21  C   UNL     1       2.759   7.665  18.679  0.00  0.00    +0.000 A 
ATOM     22  C   UNL     1       2.256   8.537  17.717  0.00  0.00    +0.000 A 
ATOM     23  C   UNL     1       1.224   9.402  18.033  0.00  0.00    +0.000 A 
ATOM     24  C   UNL     1       0.639   9.400  19.309  0.00  0.00    +0.000 A 
ATOM     25  C   UNL     1       1.099   8.490  20.258  0.00  0.00    +0.000 A 
ATOM     26  C   UNL     1       2.166   7.633  19.951  0.00  0.00    +0.000 A 
BRANCH  24  27
ATOM     27  O   UNL     1      -0.374  10.261  19.699  0.00  0.00    +0.000 OA
BRANCH  27  28
ATOM     28  C   UNL     1      -0.158  10.737  21.029  0.00  0.00    +0.000 C 
BRANCH  28  29
ATOM     29  C   UNL     1      -0.586  12.176  21.315  0.00  0.00    +0.000 C 
BRANCH  29  30
ATOM     30  N   UNL     1      -1.999  12.179  21.767  0.00  0.00    +0.000 NA
ATOM     31  C   UNL     1      -2.169  12.702  23.135  0.00  0.00    +0.000 C 
ATOM     32  C   UNL     1      -3.611  12.543  23.613  0.00  0.00    +0.000 C 
ATOM     33  C   UNL     1      -4.581  13.217  22.657  0.00  0.00    +0.000 C 
ATOM     34  C   UNL     1      -4.336  12.743  21.228  0.00  0.00    +0.000 C 
ATOM     35  C   UNL     1      -2.867  12.892  20.824  0.00  0.00    +0.000 C 
ENDBRANCH  29  30
ENDBRANCH  28  29
ENDBRANCH  27  28
ENDBRANCH  24  27
ENDBRANCH  20  21
ENDBRANCH  10  20
TORSDOF 9
ENDMDL
MODEL 3
REMARK VINA RESULT:      -7.7      2.744      9.668
REMARK  Name = 
REMARK  10 active torsions:
REMARK  status: ('A' for Active; 'I' for Inactive)
REMARK    1  A    between atoms: C_1  and  O_2
REMARK    2  A    between atoms: O_2  and  C_3
REMARK    3  A    between atoms: C_6  and  C_7
REMARK    4  A    between atoms: C_7  and  C_8
REMARK    5  A    between atoms: N_17  and  C_18
REMARK    6  A    between atoms: C_18  and  C_19
REMARK    7  A    between atoms: C_22  and  O_23
REMARK    8  A    between atoms: O_23  and  C_24
REMARK    9  A    between atoms: C_24  and  C_25
REMARK   10  A    between atoms: C_25  and  N_26
REMARK                            x       y       z     vdW  Elec       q    Type
REMARK                         _______ _______ _______ _____ _____    ______ ____
ROOT
ATOM      1  C   UNL     1       4.550   4.793  17.186  0.00  0.00    +0.000 C 
ATOM      2  C   UNL     1       5.590   4.222  18.176  0.00  0.00    +0.000 C 
ATOM      3  O   UNL     1       5.046   3.344  19.180  0.00  0.00    +0.000 OA
ATOM      4  C   UNL     1       3.689   3.435  19.366  0.00  0.00    +0.000 A 
ATOM      5  C   UNL     1       3.110   2.464  20.190  0.00  0.00    +0.000 A 
ATOM      6  C   UNL     1       1.720   2.399  20.329  0.00  0.00    +0.000 A 
ATOM      7  C   UNL     1       0.913   3.307  19.645  0.00  0.00    +0.000 A 
ATOM      8  C   UNL     1       1.494   4.308  18.863  0.00  0.00    +0.000 A 
ATOM      9  C   UNL     1       2.888   4.409  18.745  0.00  0.00    +0.000 A 
ATOM     10  N   UNL     1       3.441   5.438  17.941  0.00  0.00    +0.000 N 
ENDROOT
BRANCH   1  11
ATOM     11  C   UNL     1       5.179   5.748  16.148  0.00  0.00    +0.000 C 
BRANCH  11  15
ATOM     12  C   UNL     1       6.704   3.842  12.551  0.00  0.00    +0.000 A 
ATOM     13  C   UNL     1       7.521   4.709  13.268  0.00  0.00    +0.000 A 
ATOM     14  C   UNL     1       7.046   5.339  14.420  0.00  0.00    +0.000 A 
ATOM     15  C   UNL     1       5.744   5.112  14.887  0.00  0.00    +0.000 A 
ATOM     16  C   UNL     1       4.926   4.251  14.144  0.00  0.00    +0.000 A 
ATOM     17  C   UNL     1       5.400   3.621  12.987  0.00  0.00    +0.000 A 
BRANCH  12  19
ATOM     18  C   UNL     1       7.168   1.902  11.290  0.00  0.00    +0.000 C 
ATOM     19  O   UNL     1       7.268   3.313  11.424  0.00  0.00    +0.000 OA
ENDBRANCH  12  19
ENDBRANCH  11  15
ENDBRANCH   1  11
BRANCH  10  20
ATOM     20  C   UNL     1       3.819   6.672  18.674  0.00  0.00    +0.000 C 
BRANCH  20  21
ATOM     21  C   UNL     1       2.739   7.719  18.754  0.00  0.00    +0.000 A 
ATOM     22  C   UNL     1       2.062   7.868  19.963  0.00  0.00    +0.000 A 
ATOM     23  C   UNL     1       1.030   8.781  20.074  0.00  0.00    +0.000 A 
ATOM     24  C   UNL     1       0.662   9.599  18.995  0.00  0.00    +0.000 A 
ATOM     25  C   UNL     1       1.373   9.495  17.801  0.00  0.00    +0.000 A 
ATOM     26  C   UNL     1       2.400   8.549  17.674  0.00  0.00    +0.000 A 
BRANCH  24  27
ATOM     27  O   UNL     1      -0.381  10.509  19.030  0.00  0.00    +0.000 OA
BRANCH  27  28
ATOM     28  C   UNL     1       0.097  11.844  18.851  0.00  0.00    +0.000 C 
BRANCH  28  29
ATOM     29  C   UNL     1       0.765  12.497  20.060  0.00  0.00    +0.000 C 
BRANCH  29  30
ATOM     30  N   UNL     1       1.623  13.614  19.594  0.00  0.00    +0.000 NA
ATOM     31  C   UNL     1       2.688  13.181  18.672  0.00  0.00    +0.000 C 
ATOM     32  C   UNL     1       3.636  14.332  18.342  0.00  0.00    +0.000 C 
ATOM     33  C   UNL     1       2.878  15.518  17.768  0.00  0.00    +0.000 C 
ATOM     34  C   UNL     1       1.718  15.900  18.681  0.00  0.00    +0.000 C 
ATOM     35  C   UNL     1       0.829  14.696  19.004  0.00  0.00    +0.000 C 
ENDBRANCH  29  30
ENDBRANCH  28  29
ENDBRANCH  27  28
ENDBRANCH  24  27
ENDBRANCH  20  21
ENDBRANCH  10  20
TORSDOF 9
ENDMDL
MODEL 4
REMARK VINA RESULT:      -7.6      3.209     10.140
REMARK  Name = 
REMARK  10 active torsions:
REMARK  status: ('A' for Active; 'I' for Inactive)
REMARK    1  A    between atoms: C_1  and  O_2
REMARK    2  A    between atoms: O_2  and  C_3
REMARK    3  A    between atoms: C_6  and  C_7
REMARK    4  A    between atoms: C_7  and  C_8
REMARK    5  A    between atoms: N_17  and  C_18
REMARK    6  A    between atoms: C_18  and  C_19
REMARK    7  A    between atoms: C_22  and  O_23
REMARK    8  A    between atoms: O_23  and  C_24
REMARK    9  A    between atoms: C_24  and  C_25
REMARK   10  A    between atoms: C_25  and  N_26
REMARK                            x       y       z     vdW  Elec       q    Type
REMARK                         _______ _______ _______ _____ _____    ______ ____
ROOT
ATOM      1  C   UNL     1       4.744   4.786  16.975  0.00  0.00    +0.000 C 
ATOM      2  C   UNL     1       5.756   4.291  18.033  0.00  0.00    +0.000 C 
ATOM      3  O   UNL     1       5.184   3.488  19.083  0.00  0.00    +0.000 OA
ATOM      4  C   UNL     1       3.823   3.588  19.223  0.00  0.00    +0.000 A 
ATOM      5  C   UNL     1       3.221   2.678  20.099  0.00  0.00    +0.000 A 
ATOM      6  C   UNL     1       1.828   2.620  20.204  0.00  0.00    +0.000 A 
ATOM      7  C   UNL     1       1.040   3.473  19.432  0.00  0.00    +0.000 A 
ATOM      8  C   UNL     1       1.642   4.415  18.595  0.00  0.00    +0.000 A 
ATOM      9  C   UNL     1       3.039   4.512  18.510  0.00  0.00    +0.000 A 
ATOM     10  N   UNL     1       3.614   5.481  17.649  0.00  0.00    +0.000 N 
ENDROOT
BRANCH   1  11
ATOM     11  C   UNL     1       5.402   5.664  15.888  0.00  0.00    +0.000 C 
BRANCH  11  15
ATOM     12  C   UNL     1       6.914   3.722  12.305  0.00  0.00    +0.000 A 
ATOM     13  C   UNL     1       5.680   3.345  12.822  0.00  0.00    +0.000 A 
ATOM     14  C   UNL     1       5.182   3.949  13.978  0.00  0.00    +0.000 A 
ATOM     15  C   UNL     1       5.904   4.950  14.642  0.00  0.00    +0.000 A 
ATOM     16  C   UNL     1       7.154   5.308  14.120  0.00  0.00    +0.000 A 
ATOM     17  C   UNL     1       7.657   4.700  12.963  0.00  0.00    +0.000 A 
BRANCH  12  19
ATOM     18  C   UNL     1       6.988   1.652  11.175  0.00  0.00    +0.000 C 
ATOM     19  O   UNL     1       7.310   3.036  11.192  0.00  0.00    +0.000 OA
ENDBRANCH  12  19
ENDBRANCH  11  15
ENDBRANCH   1  11
BRANCH  10  20
ATOM     20  C   UNL     1       3.971   6.766  18.300  0.00  0.00    +0.000 C 
BRANCH  20  21
ATOM     21  C   UNL     1       2.798   7.640  18.665  0.00  0.00    +0.000 A 
ATOM     22  C   UNL     1       2.294   8.497  17.690  0.00  0.00    +0.000 A 
ATOM     23  C   UNL     1       1.249   9.353  17.989  0.00  0.00    +0.000 A 
ATOM     24  C   UNL     1       0.652   9.357  19.259  0.00  0.00    +0.000 A 
ATOM     25  C   UNL     1       1.114   8.461  20.221  0.00  0.00    +0.000 A 
ATOM     26  C   UNL     1       2.193   7.613  19.931  0.00  0.00    +0.000 A 
BRANCH  24  27
ATOM     27  O   UNL     1      -0.373  10.209  19.632  0.00  0.00    +0.000 OA
BRANCH  27  28
ATOM     28  C   UNL     1      -0.075  10.861  20.868  0.00  0.00    +0.000 C 
BRANCH  28  29
ATOM     29  C   UNL     1       0.476  12.283  20.773  0.00  0.00    +0.000 C 
BRANCH  29  30
ATOM     30  N   UNL     1      -0.363  13.183  21.601  0.00  0.00    +0.000 NA
ATOM     31  C   UNL     1      -0.990  12.501  22.746  0.00  0.00    +0.000 C 
ATOM     32  C   UNL     1      -1.962  13.424  23.478  0.00  0.00    +0.000 C 
ATOM     33  C   UNL     1      -1.270  14.700  23.928  0.00  0.00    +0.000 C 
ATOM     34  C   UNL     1      -0.542  15.352  22.756  0.00  0.00    +0.000 C 
ATOM     35  C   UNL     1       0.386  14.364  22.043  0.00  0.00    +0.000 C 
ENDBRANCH  29  30
ENDBRANCH  28  29
ENDBRANCH  27  28
ENDBRANCH  24  27
ENDBRANCH  20  21
ENDBRANCH  10  20
TORSDOF 9
ENDMDL
MODEL 5
REMARK VINA RESULT:      -7.6      2.668      9.927
REMARK  Name = 
REMARK  10 active torsions:
REMARK  status: ('A' for Active; 'I' for Inactive)
REMARK    1  A    between atoms: C_1  and  O_2
REMARK    2  A    between atoms: O_2  and  C_3
REMARK    3  A    between atoms: C_6  and  C_7
REMARK    4  A    between atoms: C_7  and  C_8
REMARK    5  A    between atoms: N_17  and  C_18
REMARK    6  A    between atoms: C_18  and  C_19
REMARK    7  A    between atoms: C_22  and  O_23
REMARK    8  A    between atoms: O_23  and  C_24
REMARK    9  A    between atoms: C_24  and  C_25
REMARK   10  A    between atoms: C_25  and  N_26
REMARK                            x       y       z     vdW  Elec       q    Type
REMARK                         _______ _______ _______ _____ _____    ______ ____
ROOT
ATOM      1  C   UNL     1       4.316   4.801  17.627  0.00  0.00    +0.000 C 
ATOM      2  C   UNL     1       5.410   4.294  18.593  0.00  0.00    +0.000 C 
ATOM      3  O   UNL     1       4.932   3.437  19.647  0.00  0.00    +0.000 OA
ATOM      4  C   UNL     1       3.582   3.497  19.885  0.00  0.00    +0.000 A 
ATOM      5  C   UNL     1       3.064   2.539  20.763  0.00  0.00    +0.000 A 
ATOM      6  C   UNL     1       1.683   2.440  20.961  0.00  0.00    +0.000 A 
ATOM      7  C   UNL     1       0.823   3.301  20.279  0.00  0.00    +0.000 A 
ATOM      8  C   UNL     1       1.344   4.289  19.440  0.00  0.00    +0.000 A 
ATOM      9  C   UNL     1       2.728   4.425  19.264  0.00  0.00    +0.000 A 
ATOM     10  N   UNL     1       3.219   5.441  18.403  0.00  0.00    +0.000 N 
ENDROOT
BRANCH   1  11
ATOM     11  C   UNL     1       4.875   5.735  16.532  0.00  0.00    +0.000 C 
BRANCH  11  15
ATOM     12  C   UNL     1       6.635   3.923  12.994  0.00  0.00    +0.000 A 
ATOM     13  C   UNL     1       5.322   3.623  13.339  0.00  0.00    +0.000 A 
ATOM     14  C   UNL     1       4.742   4.186  14.477  0.00  0.00    +0.000 A 
ATOM     15  C   UNL     1       5.460   5.069  15.295  0.00  0.00    +0.000 A 
ATOM     16  C   UNL     1       6.788   5.348  14.947  0.00  0.00    +0.000 A 
ATOM     17  C   UNL     1       7.372   4.781  13.807  0.00  0.00    +0.000 A 
BRANCH  12  19
ATOM     18  C   UNL     1       6.316   2.191  11.423  0.00  0.00    +0.000 C 
ATOM     19  O   UNL     1       7.101   3.284  11.880  0.00  0.00    +0.000 OA
ENDBRANCH  12  19
ENDBRANCH  11  15
ENDBRANCH   1  11
BRANCH  10  20
ATOM     20  C   UNL     1       3.589   6.710  19.078  0.00  0.00    +0.000 C 
BRANCH  20  21
ATOM     21  C   UNL     1       2.464   7.700  19.229  0.00  0.00    +0.000 A 
ATOM     22  C   UNL     1       1.848   7.803  20.474  0.00  0.00    +0.000 A 
ATOM     23  C   UNL     1       0.779   8.663  20.652  0.00  0.00    +0.000 A 
ATOM     24  C   UNL     1       0.312   9.471  19.603  0.00  0.00    +0.000 A 
ATOM     25  C   UNL     1       0.960   9.413  18.371  0.00  0.00    +0.000 A 
ATOM     26  C   UNL     1       2.025   8.521  18.179  0.00  0.00    +0.000 A 
BRANCH  24  27
ATOM     27  O   UNL     1      -0.771  10.327  19.706  0.00  0.00    +0.000 OA
BRANCH  27  28
ATOM     28  C   UNL     1      -0.424  11.647  19.284  0.00  0.00    +0.000 C 
BRANCH  28  29
ATOM     29  C   UNL     1      -1.491  12.416  18.505  0.00  0.00    +0.000 C 
BRANCH  29  30
ATOM     30  N   UNL     1      -2.830  11.901  18.881  0.00  0.00    +0.000 NA
ATOM     31  C   UNL     1      -3.569  12.807  19.777  0.00  0.00    +0.000 C 
ATOM     32  C   UNL     1      -4.870  12.170  20.260  0.00  0.00    +0.000 C 
ATOM     33  C   UNL     1      -5.740  11.749  19.087  0.00  0.00    +0.000 C 
ATOM     34  C   UNL     1      -4.941  10.888  18.114  0.00  0.00    +0.000 C 
ATOM     35  C   UNL     1      -3.632  11.566  17.700  0.00  0.00    +0.000 C 
ENDBRANCH  29  30
ENDBRANCH  28  29
ENDBRANCH  27  28
ENDBRANCH  24  27
ENDBRANCH  20  21
ENDBRANCH  10  20
TORSDOF 9
ENDMDL
MODEL 6
REMARK VINA RESULT:      -7.6      3.060      9.930
REMARK  Name = 
REMARK  10 active torsions:
REMARK  status: ('A' for Active; 'I' for Inactive)
REMARK    1  A    between atoms: C_1  and  O_2
REMARK    2  A    between atoms: O_2  and  C_3
REMARK    3  A    between atoms: C_6  and  C_7
REMARK    4  A    between atoms: C_7  and  C_8
REMARK    5  A    between atoms: N_17  and  C_18
REMARK    6  A    between atoms: C_18  and  C_19
REMARK    7  A    between atoms: C_22  and  O_23
REMARK    8  A    between atoms: O_23  and  C_24
REMARK    9  A    between atoms: C_24  and  C_25
REMARK   10  A    between atoms: C_25  and  N_26
REMARK                            x       y       z     vdW  Elec       q    Type
REMARK                         _______ _______ _______ _____ _____    ______ ____
ROOT
ATOM      1  C   UNL     1       4.703   4.766  17.353  0.00  0.00    +0.000 C 
ATOM      2  C   UNL     1       5.673   4.200  18.414  0.00  0.00    +0.000 C 
ATOM      3  O   UNL     1       5.060   3.331  19.386  0.00  0.00    +0.000 OA
ATOM      4  C   UNL     1       3.695   3.426  19.480  0.00  0.00    +0.000 A 
ATOM      5  C   UNL     1       3.059   2.461  20.269  0.00  0.00    +0.000 A 
ATOM      6  C   UNL     1       1.663   2.400  20.316  0.00  0.00    +0.000 A 
ATOM      7  C   UNL     1       0.905   3.305  19.572  0.00  0.00    +0.000 A 
ATOM      8  C   UNL     1       1.540   4.298  18.824  0.00  0.00    +0.000 A 
ATOM      9  C   UNL     1       2.939   4.396  18.799  0.00  0.00    +0.000 A 
ATOM     10  N   UNL     1       3.548   5.419  18.027  0.00  0.00    +0.000 N 
ENDROOT
BRANCH   1  11
ATOM     11  C   UNL     1       5.403   5.712  16.353  0.00  0.00    +0.000 C 
BRANCH  11  15
ATOM     12  C   UNL     1       6.669   3.861  12.629  0.00  0.00    +0.000 A 
ATOM     13  C   UNL     1       7.520   4.748  13.279  0.00  0.00    +0.000 A 
ATOM     14  C   UNL     1       7.128   5.361  14.470  0.00  0.00    +0.000 A 
ATOM     15  C   UNL     1       5.876   5.096  15.044  0.00  0.00    +0.000 A 
ATOM     16  C   UNL     1       5.022   4.215  14.369  0.00  0.00    +0.000 A 
ATOM     17  C   UNL     1       5.413   3.603  13.171  0.00  0.00    +0.000 A 
BRANCH  12  19
ATOM     18  C   UNL     1       7.036   1.944  11.302  0.00  0.00    +0.000 C 
ATOM     19  O   UNL     1       7.150   3.353  11.455  0.00  0.00    +0.000 OA
ENDBRANCH  12  19
ENDBRANCH  11  15
ENDBRANCH   1  11
BRANCH  10  20
ATOM     20  C   UNL     1       3.879   6.657  18.775  0.00  0.00    +0.000 C 
BRANCH  20  21
ATOM     21  C   UNL     1       2.777   7.684  18.821  0.00  0.00    +0.000 A 
ATOM     22  C   UNL     1       2.056   7.815  20.006  0.00  0.00    +0.000 A 
ATOM     23  C   UNL     1       1.004   8.710  20.085  0.00  0.00    +0.000 A 
ATOM     24  C   UNL     1       0.659   9.525  18.996  0.00  0.00    +0.000 A 
ATOM     25  C   UNL     1       1.413   9.439  17.827  0.00  0.00    +0.000 A 
ATOM     26  C   UNL     1       2.461   8.512  17.733  0.00  0.00    +0.000 A 
BRANCH  24  27
ATOM     27  O   UNL     1      -0.401  10.416  18.999  0.00  0.00    +0.000 OA
BRANCH  27  28
ATOM     28  C   UNL     1       0.027  11.721  19.394  0.00  0.00    +0.000 C 
BRANCH  28  29
ATOM     29  C   UNL     1       0.918  11.800  20.633  0.00  0.00    +0.000 C 
BRANCH  29  30
ATOM     30  N   UNL     1       0.085  12.166  21.805  0.00  0.00    +0.000 NA
ATOM     31  C   UNL     1      -0.353  13.573  21.788  0.00  0.00    +0.000 C 
ATOM     32  C   UNL     1      -1.073  13.944  23.083  0.00  0.00    +0.000 C 
ATOM     33  C   UNL     1      -2.251  13.018  23.338  0.00  0.00    +0.000 C 
ATOM     34  C   UNL     1      -1.809  11.561  23.260  0.00  0.00    +0.000 C 
ATOM     35  C   UNL     1      -1.061  11.264  21.957  0.00  0.00    +0.000 C 
ENDBRANCH  29  30
ENDBRANCH  28  29
ENDBRANCH  27  28
ENDBRANCH  24  27
ENDBRANCH  20  21
ENDBRANCH  10  20
TORSDOF 9
ENDMDL
MODEL 7
REMARK VINA RESULT:      -7.5      2.789      9.757
REMARK  Name = 
REMARK  10 active torsions:
REMARK  status: ('A' for Active; 'I' for Inactive)
REMARK    1  A    between atoms: C_1  and  O_2
REMARK    2  A    between atoms: O_2  and  C_3
REMARK    3  A    between atoms: C_6  and  C_7
REMARK    4  A    between atoms: C_7  and  C_8
REMARK    5  A    between atoms: N_17  and  C_18
REMARK    6  A    between atoms: C_18  and  C_19
REMARK    7  A    between atoms: C_22  and  O_23
REMARK    8  A    between atoms: O_23  and  C_24
REMARK    9  A    between atoms: C_24  and  C_25
REMARK   10  A    between atoms: C_25  and  N_26
REMARK                            x       y       z     vdW  Elec       q    Type
REMARK                         _______ _______ _______ _____ _____    ______ ____
ROOT
ATOM      1  C   UNL     1       4.452   4.802  17.750  0.00  0.00    +0.000 C 
ATOM      2  C   UNL     1       5.478   4.281  18.781  0.00  0.00    +0.000 C 
ATOM      3  O   UNL     1       4.933   3.394  19.776  0.00  0.00    +0.000 OA
ATOM      4  C   UNL     1       3.568   3.435  19.914  0.00  0.00    +0.000 A 
ATOM      5  C   UNL     1       2.998   2.450  20.729  0.00  0.00    +0.000 A 
ATOM      6  C   UNL     1       1.608   2.334  20.822  0.00  0.00    +0.000 A 
ATOM      7  C   UNL     1       0.791   3.204  20.099  0.00  0.00    +0.000 A 
ATOM      8  C   UNL     1       1.361   4.218  19.326  0.00  0.00    +0.000 A 
ATOM      9  C   UNL     1       2.753   4.371  19.255  0.00  0.00    +0.000 A 
ATOM     10  N   UNL     1       3.295   5.412  18.458  0.00  0.00    +0.000 N 
ENDROOT
BRANCH   1  11
ATOM     11  C   UNL     1       5.081   5.770  16.723  0.00  0.00    +0.000 C 
BRANCH  11  15
ATOM     12  C   UNL     1       6.526   3.915  13.067  0.00  0.00    +0.000 A 
ATOM     13  C   UNL     1       7.336   4.818  13.746  0.00  0.00    +0.000 A 
ATOM     14  C   UNL     1       6.886   5.432  14.915  0.00  0.00    +0.000 A 
ATOM     15  C   UNL     1       5.616   5.153  15.439  0.00  0.00    +0.000 A 
ATOM     16  C   UNL     1       4.803   4.255  14.735  0.00  0.00    +0.000 A 
ATOM     17  C   UNL     1       5.252   3.641  13.559  0.00  0.00    +0.000 A 
BRANCH  12  19
ATOM     18  C   UNL     1       6.467   2.207  11.439  0.00  0.00    +0.000 C 
ATOM     19  O   UNL     1       7.062   3.406  11.917  0.00  0.00    +0.000 OA
ENDBRANCH  12  19
ENDBRANCH  11  15
ENDBRANCH   1  11
BRANCH  10  20
ATOM     20  C   UNL     1       3.601   6.667  19.190  0.00  0.00    +0.000 C 
BRANCH  20  21
ATOM     21  C   UNL     1       2.540   7.733  19.093  0.00  0.00    +0.000 A 
ATOM     22  C   UNL     1       2.291   8.295  17.843  0.00  0.00    +0.000 A 
ATOM     23  C   UNL     1       1.361   9.310  17.709  0.00  0.00    +0.000 A 
ATOM     24  C   UNL     1       0.626   9.773  18.811  0.00  0.00    +0.000 A 
ATOM     25  C   UNL     1       0.829   9.175  20.054  0.00  0.00    +0.000 A 
ATOM     26  C   UNL     1       1.793   8.167  20.199  0.00  0.00    +0.000 A 
BRANCH  24  27
ATOM     27  O   UNL     1      -0.295  10.806  18.752  0.00  0.00    +0.000 OA
BRANCH  27  28
ATOM     28  C   UNL     1       0.178  11.956  19.456  0.00  0.00    +0.000 C 
BRANCH  28  29
ATOM     29  C   UNL     1       1.452  12.607  18.920  0.00  0.00    +0.000 C 
BRANCH  29  30
ATOM     30  N   UNL     1       1.171  14.026  18.594  0.00  0.00    +0.000 NA
ATOM     31  C   UNL     1      -0.062  14.532  19.223  0.00  0.00    +0.000 C 
ATOM     32  C   UNL     1      -0.393  15.942  18.739  0.00  0.00    +0.000 C 
ATOM     33  C   UNL     1       0.766  16.892  18.989  0.00  0.00    +0.000 C 
ATOM     34  C   UNL     1       2.059  16.318  18.418  0.00  0.00    +0.000 C 
ATOM     35  C   UNL     1       2.312  14.890  18.911  0.00  0.00    +0.000 C 
ENDBRANCH  29  30
ENDBRANCH  28  29
ENDBRANCH  27  28
ENDBRANCH  24  27
ENDBRANCH  20  21
ENDBRANCH  10  20
TORSDOF 9
ENDMDL
MODEL 8
REMARK VINA RESULT:      -7.5      2.789      9.598
REMARK  Name = 
REMARK  10 active torsions:
REMARK  status: ('A' for Active; 'I' for Inactive)
REMARK    1  A    between atoms: C_1  and  O_2
REMARK    2  A    between atoms: O_2  and  C_3
REMARK    3  A    between atoms: C_6  and  C_7
REMARK    4  A    between atoms: C_7  and  C_8
REMARK    5  A    between atoms: N_17  and  C_18
REMARK    6  A    between atoms: C_18  and  C_19
REMARK    7  A    between atoms: C_22  and  O_23
REMARK    8  A    between atoms: O_23  and  C_24
REMARK    9  A    between atoms: C_24  and  C_25
REMARK   10  A    between atoms: C_25  and  N_26
REMARK                            x       y       z     vdW  Elec       q    Type
REMARK                         _______ _______ _______ _____ _____    ______ ____
ROOT
ATOM      1  C   UNL     1       4.421   4.765  17.533  0.00  0.00    +0.000 C 
ATOM      2  C   UNL     1       5.489   4.253  18.525  0.00  0.00    +0.000 C 
ATOM      3  O   UNL     1       4.980   3.404  19.571  0.00  0.00    +0.000 OA
ATOM      4  C   UNL     1       3.625   3.474  19.777  0.00  0.00    +0.000 A 
ATOM      5  C   UNL     1       3.080   2.524  20.647  0.00  0.00    +0.000 A 
ATOM      6  C   UNL     1       1.694   2.436  20.813  0.00  0.00    +0.000 A 
ATOM      7  C   UNL     1       0.857   3.301  20.109  0.00  0.00    +0.000 A 
ATOM      8  C   UNL     1       1.404   4.282  19.279  0.00  0.00    +0.000 A 
ATOM      9  C   UNL     1       2.793   4.407  19.134  0.00  0.00    +0.000 A 
ATOM     10  N   UNL     1       3.312   5.416  18.281  0.00  0.00    +0.000 N 
ENDROOT
BRANCH   1  11
ATOM     11  C   UNL     1       5.013   5.692  16.448  0.00  0.00    +0.000 C 
BRANCH  11  15
ATOM     12  C   UNL     1       6.629   3.867  12.849  0.00  0.00    +0.000 A 
ATOM     13  C   UNL     1       5.329   3.574  13.243  0.00  0.00    +0.000 A 
ATOM     14  C   UNL     1       4.795   4.142  14.401  0.00  0.00    +0.000 A 
ATOM     15  C   UNL     1       5.547   5.022  15.191  0.00  0.00    +0.000 A 
ATOM     16  C   UNL     1       6.863   5.293  14.793  0.00  0.00    +0.000 A 
ATOM     17  C   UNL     1       7.401   4.722  13.633  0.00  0.00    +0.000 A 
BRANCH  12  19
ATOM     18  C   UNL     1       6.360   2.024  11.399  0.00  0.00    +0.000 C 
ATOM     19  O   UNL     1       7.051   3.225  11.719  0.00  0.00    +0.000 OA
ENDBRANCH  12  19
ENDBRANCH  11  15
ENDBRANCH   1  11
BRANCH  10  20
ATOM     20  C   UNL     1       3.676   6.684  18.960  0.00  0.00    +0.000 C 
BRANCH  20  21
ATOM     21  C   UNL     1       2.572   7.708  19.028  0.00  0.00    +0.000 A 
ATOM     22  C   UNL     1       2.250   8.399  17.861  0.00  0.00    +0.000 A 
ATOM     23  C   UNL     1       1.278   9.382  17.881  0.00  0.00    +0.000 A 
ATOM     24  C   UNL     1       0.572   9.684  19.057  0.00  0.00    +0.000 A 
ATOM     25  C   UNL     1       0.850   8.957  20.212  0.00  0.00    +0.000 A 
ATOM     26  C   UNL     1       1.856   7.980  20.203  0.00  0.00    +0.000 A 
BRANCH  24  27
ATOM     27  O   UNL     1      -0.389  10.676  19.151  0.00  0.00    +0.000 OA
BRANCH  27  28
ATOM     28  C   UNL     1       0.204  11.974  19.068  0.00  0.00    +0.000 C 
BRANCH  28  29
ATOM     29  C   UNL     1       0.370  12.732  20.384  0.00  0.00    +0.000 C 
BRANCH  29  30
ATOM     30  N   UNL     1       1.696  13.396  20.396  0.00  0.00    +0.000 NA
ATOM     31  C   UNL     1       2.068  13.973  19.092  0.00  0.00    +0.000 C 
ATOM     32  C   UNL     1       3.499  14.507  19.110  0.00  0.00    +0.000 C 
ATOM     33  C   UNL     1       3.688  15.527  20.222  0.00  0.00    +0.000 C 
ATOM     34  C   UNL     1       3.212  14.956  21.554  0.00  0.00    +0.000 C 
ATOM     35  C   UNL     1       1.787  14.403  21.458  0.00  0.00    +0.000 C 
ENDBRANCH  29  30
ENDBRANCH  28  29
ENDBRANCH  27  28
ENDBRANCH  24  27
ENDBRANCH  20  21
ENDBRANCH  10  20
TORSDOF 9
ENDMDL
MODEL 9
REMARK VINA RESULT:      -7.5      0.753      1.178
REMARK  Name = 
REMARK  10 active torsions:
REMARK  status: ('A' for Active; 'I' for Inactive)
REMARK    1  A    between atoms: C_1  and  O_2
REMARK    2  A    between atoms: O_2  and  C_3
REMARK    3  A    between atoms: C_6  and  C_7
REMARK    4  A    between atoms: C_7  and  C_8
REMARK    5  A    between atoms: N_17  and  C_18
REMARK    6  A    between atoms: C_18  and  C_19
REMARK    7  A    between atoms: C_22  and  O_23
REMARK    8  A    between atoms: O_23  and  C_24
REMARK    9  A    between atoms: C_24  and  C_25
REMARK   10  A    between atoms: C_25  and  N_26
REMARK                            x       y       z     vdW  Elec       q    Type
REMARK                         _______ _______ _______ _____ _____    ______ ____
ROOT
ATOM      1  C   UNL     1      -0.871  12.378  18.842  0.00  0.00    +0.000 C 
ATOM      2  C   UNL     1      -1.237  13.492  19.848  0.00  0.00    +0.000 C 
ATOM      3  O   UNL     1      -0.310  14.594  19.889  0.00  0.00    +0.000 OA
ATOM      4  C   UNL     1       0.925  14.342  19.347  0.00  0.00    +0.000 A 
ATOM      5  C   UNL     1       1.773  15.444  19.197  0.00  0.00    +0.000 A 
ATOM      6  C   UNL     1       2.996  15.305  18.534  0.00  0.00    +0.000 A 
ATOM      7  C   UNL     1       3.368  14.062  18.022  0.00  0.00    +0.000 A 
ATOM      8  C   UNL     1       2.544  12.952  18.215  0.00  0.00    +0.000 A 
ATOM      9  C   UNL     1       1.333  13.068  18.913  0.00  0.00    +0.000 A 
ATOM     10  N   UNL     1       0.522  11.917  19.090  0.00  0.00    +0.000 N 
ENDROOT
BRANCH   1  11
ATOM     11  C   UNL     1      -1.881  11.209  18.857  0.00  0.00    +0.000 C 
BRANCH  11  15
ATOM     12  C   UNL     1      -3.710  10.202  15.044  0.00  0.00    +0.000 A 
ATOM     13  C   UNL     1      -4.300  11.164  15.856  0.00  0.00    +0.000 A 
ATOM     14  C   UNL     1      -3.734  11.495  17.089  0.00  0.00    +0.000 A 
ATOM     15  C   UNL     1      -2.559  10.874  17.537  0.00  0.00    +0.000 A 
ATOM     16  C   UNL     1      -1.986   9.893  16.717  0.00  0.00    +0.000 A 
ATOM     17  C   UNL     1      -2.556   9.558  15.482  0.00  0.00    +0.000 A 
BRANCH  12  19
ATOM     18  C   UNL     1      -3.555   9.693  12.745  0.00  0.00    +0.000 C 
ATOM     19  O   UNL     1      -4.375   9.941  13.879  0.00  0.00    +0.000 OA
ENDBRANCH  12  19
ENDBRANCH  11  15
ENDBRANCH   1  11
BRANCH  10  20
ATOM     20  C   UNL     1       0.724  11.198  20.372  0.00  0.00    +0.000 C 
BRANCH  20  21
ATOM     21  C   UNL     1       1.124   9.752  20.232  0.00  0.00    +0.000 A 
ATOM     22  C   UNL     1       0.913   8.908  21.320  0.00  0.00    +0.000 A 
ATOM     23  C   UNL     1       1.306   7.583  21.260  0.00  0.00    +0.000 A 
ATOM     24  C   UNL     1       1.892   7.050  20.101  0.00  0.00    +0.000 A 
ATOM     25  C   UNL     1       2.054   7.875  18.989  0.00  0.00    +0.000 A 
ATOM     26  C   UNL     1       1.684   9.227  19.058  0.00  0.00    +0.000 A 
BRANCH  24  27
ATOM     27  O   UNL     1       2.336   5.744  19.986  0.00  0.00    +0.000 OA
BRANCH  27  28
ATOM     28  C   UNL     1       3.235   5.603  18.884  0.00  0.00    +0.000 C 
BRANCH  28  29
ATOM     29  C   UNL     1       4.680   5.241  19.226  0.00  0.00    +0.000 C 
BRANCH  29  30
ATOM     30  N   UNL     1       5.386   4.843  17.984  0.00  0.00    +0.000 NA
ATOM     31  C   UNL     1       4.631   5.162  16.760  0.00  0.00    +0.000 C 
ATOM     32  C   UNL     1       5.321   4.598  15.520  0.00  0.00    +0.000 C 
ATOM     33  C   UNL     1       6.752   5.100  15.414  0.00  0.00    +0.000 C 
ATOM     34  C   UNL     1       7.501   4.852  16.720  0.00  0.00    +0.000 C 
ATOM     35  C   UNL     1       6.738   5.407  17.926  0.00  0.00    +0.000 C 
ENDBRANCH  29  30
ENDBRANCH  28  29
ENDBRANCH  27  28
ENDBRANCH  24  27
ENDBRANCH  20  21
ENDBRANCH  10  20
TORSDOF 9
ENDMDL
