MODEL 1
REMARK VINA RESULT:      -8.5      0.000      0.000
REMARK  Name = 
REMARK  6 active torsions:
REMARK  status: ('A' for Active; 'I' for Inactive)
REMARK    1  A    between atoms: N_1  and  C_2
REMARK    2  A    between atoms: C_2  and  C_3
REMARK    3  A    between atoms: C_2  and  C_11
REMARK    4  A    between atoms: C_3  and  C_4
REMARK    5  A    between atoms: N_16  and  C_17
REMARK    6  A    between atoms: C_24  and  C_25
REMARK                            x       y       z     vdW  Elec       q    Type
REMARK                         _______ _______ _______ _____ _____    ______ ____
ROOT
ATOM      1  C   UNL     1       0.077   9.884  20.027  0.00  0.00    +0.000 C 
ATOM      2  O   UNL     1      -0.620   9.392  20.925  0.00  0.00    +0.000 OA
ATOM      3  N   UNL     1       1.365   9.429  19.803  0.00  0.00    +0.000 N 
ATOM      4  C   UNL     1       1.836   8.258  20.545  0.00  0.00    +0.000 C 
ATOM      5  C   UNL     1       1.877   7.000  19.653  0.00  0.00    +0.000 C 
ATOM      6  N   UNL     1       2.545   7.247  18.376  0.00  0.00    +0.000 N 
ATOM      7  C   UNL     1       2.193   8.500  17.671  0.00  0.00    +0.000 C 
ATOM      8  C   UNL     1       2.213   9.706  18.640  0.00  0.00    +0.000 C 
ENDROOT
BRANCH   6   9
ATOM      9  C   UNL     1       3.512   6.418  17.830  0.00  0.00    +0.000 A 
ATOM     10  N   UNL     1       4.614   7.072  17.345  0.00  0.00    +0.000 NA
ATOM     11  C   UNL     1       5.663   6.406  16.851  0.00  0.00    +0.000 A 
ATOM     12  N   UNL     1       5.812   5.090  16.772  0.00  0.00    +0.000 NA
ATOM     13  C   UNL     1       4.725   4.449  17.218  0.00  0.00    +0.000 A 
ATOM     14  N   UNL     1       4.662   3.089  17.220  0.00  0.00    +0.000 N 
ATOM     15  C   UNL     1       3.457   2.687  17.693  0.00  0.00    +0.000 A 
ATOM     16  C   UNL     1       2.714   3.821  17.974  0.00  0.00    +0.000 A 
ATOM     17  C   UNL     1       3.536   4.987  17.732  0.00  0.00    +0.000 A 
ATOM     18  H   UNL     1       5.411   2.494  16.900  0.00  0.00    +0.000 HD
BRANCH  16  19
ATOM     19  C   UNL     1       1.259   3.719  18.432  0.00  0.00    +0.000 C 
ATOM     20  C   UNL     1       0.698   2.391  18.902  0.00  0.00    +0.000 C 
ATOM     21  C   UNL     1       1.007   3.445  19.908  0.00  0.00    +0.000 C 
ENDBRANCH  16  19
ENDBRANCH   6   9
BRANCH   1  22
ATOM     22  C   UNL     1      -0.500  11.054  19.179  0.00  0.00    +0.000 C 
BRANCH  22  23
ATOM     23  N   UNL     1      -0.086  12.341  19.812  0.00  0.00    +0.000 NA
ATOM     24  H   UNL     1      -0.628  13.100  19.401  0.00  0.00    +0.000 HD
ATOM     25  H   UNL     1       0.871  12.531  19.494  0.00  0.00    +0.000 HD
ENDBRANCH  22  23
BRANCH  22  26
ATOM     26  C   UNL     1      -2.037  11.010  19.088  0.00  0.00    +0.000 C 
BRANCH  26  27
ATOM     27  C   UNL     1      -2.583  10.733  17.705  0.00  0.00    +0.000 A 
ATOM     28  C   UNL     1      -1.946   9.833  16.836  0.00  0.00    +0.000 A 
ATOM     29  C   UNL     1      -2.446   9.616  15.553  0.00  0.00    +0.000 A 
ATOM     30  C   UNL     1      -3.594  10.285  15.136  0.00  0.00    +0.000 A 
ATOM     31 CL   UNL     1      -4.198  10.042  13.544  0.00  0.00    +0.000 Cl
ATOM     32  C   UNL     1      -4.255  11.157  15.997  0.00  0.00    +0.000 A 
ATOM     33  C   UNL     1      -3.753  11.377  17.279  0.00  0.00    +0.000 A 
ENDBRANCH  26  27
ENDBRANCH  22  26
ENDBRANCH   1  22
TORSDOF 6
ENDMDL
MODEL 2
REMARK VINA RESULT:      -7.7      1.455      1.958
REMARK  Name = 
REMARK  6 active torsions:
REMARK  status: ('A' for Active; 'I' for Inactive)
REMARK    1  A    between atoms: N_1  and  C_2
REMARK    2  A    between atoms: C_2  and  C_3
REMARK    3  A    between atoms: C_2  and  C_11
REMARK    4  A    between atoms: C_3  and  C_4
REMARK    5  A    between atoms: N_16  and  C_17
REMARK    6  A    between atoms: C_24  and  C_25
REMARK                            x       y       z     vdW  Elec       q    Type
REMARK                         _______ _______ _______ _____ _____    ______ ____
ROOT
ATOM      1  C   UNL     1      -0.038   9.831  19.944  0.00  0.00    +0.000 C 
ATOM      2  O   UNL     1      -0.613   9.399  20.952  0.00  0.00    +0.000 OA
ATOM      3  N   UNL     1       1.263   9.455  19.657  0.00  0.00    +0.000 N 
ATOM      4  C   UNL     1       1.895   8.423  20.481  0.00  0.00    +0.000 C 
ATOM      5  C   UNL     1       1.974   7.073  19.738  0.00  0.00    +0.000 C 
ATOM      6  N   UNL     1       2.513   7.216  18.386  0.00  0.00    +0.000 N 
ATOM      7  C   UNL     1       1.994   8.343  17.578  0.00  0.00    +0.000 C 
ATOM      8  C   UNL     1       1.986   9.656  18.399  0.00  0.00    +0.000 C 
ENDROOT
BRANCH   6   9
ATOM      9  C   UNL     1       3.501   6.406  17.852  0.00  0.00    +0.000 A 
ATOM     10  N   UNL     1       4.602   7.081  17.393  0.00  0.00    +0.000 NA
ATOM     11  C   UNL     1       5.670   6.433  16.913  0.00  0.00    +0.000 A 
ATOM     12  N   UNL     1       5.841   5.121  16.827  0.00  0.00    +0.000 NA
ATOM     13  C   UNL     1       4.755   4.460  17.248  0.00  0.00    +0.000 A 
ATOM     14  N   UNL     1       4.712   3.099  17.239  0.00  0.00    +0.000 N 
ATOM     15  C   UNL     1       3.505   2.676  17.687  0.00  0.00    +0.000 A 
ATOM     16  C   UNL     1       2.740   3.797  17.962  0.00  0.00    +0.000 A 
ATOM     17  C   UNL     1       3.549   4.976  17.744  0.00  0.00    +0.000 A 
ATOM     18  H   UNL     1       5.476   2.518  16.928  0.00  0.00    +0.000 HD
BRANCH  16  19
ATOM     19  C   UNL     1       1.279   3.670  18.392  0.00  0.00    +0.000 C 
ATOM     20  C   UNL     1       0.757   2.358  18.949  0.00  0.00    +0.000 C 
ATOM     21  C   UNL     1       0.999   3.497  19.879  0.00  0.00    +0.000 C 
ENDBRANCH  16  19
ENDBRANCH   6   9
BRANCH   1  22
ATOM     22  C   UNL     1      -0.783  10.842  19.025  0.00  0.00    +0.000 C 
BRANCH  22  23
ATOM     23  N   UNL     1       0.236  11.646  18.289  0.00  0.00    +0.000 NA
ATOM     24  H   UNL     1       1.156  11.235  18.444  0.00  0.00    +0.000 HD
ATOM     25  H   UNL     1       0.296  12.553  18.767  0.00  0.00    +0.000 HD
ENDBRANCH  22  23
BRANCH  22  26
ATOM     26  C   UNL     1      -1.696  11.794  19.820  0.00  0.00    +0.000 C 
BRANCH  26  27
ATOM     27  C   UNL     1      -3.080  11.980  19.239  0.00  0.00    +0.000 A 
ATOM     28  C   UNL     1      -4.091  12.635  19.959  0.00  0.00    +0.000 A 
ATOM     29  C   UNL     1      -5.370  12.767  19.420  0.00  0.00    +0.000 A 
ATOM     30  C   UNL     1      -5.641  12.260  18.152  0.00  0.00    +0.000 A 
ATOM     31 CL   UNL     1      -7.226  12.395  17.495  0.00  0.00    +0.000 Cl
ATOM     32  C   UNL     1      -4.640  11.634  17.412  0.00  0.00    +0.000 A 
ATOM     33  C   UNL     1      -3.363  11.499  17.954  0.00  0.00    +0.000 A 
ENDBRANCH  26  27
ENDBRANCH  22  26
ENDBRANCH   1  22
TORSDOF 6
ENDMDL
MODEL 3
REMARK VINA RESULT:      -7.5      1.630      1.965
REMARK  Name = 
REMARK  6 active torsions:
REMARK  status: ('A' for Active; 'I' for Inactive)
REMARK    1  A    between atoms: N_1  and  C_2
REMARK    2  A    between atoms: C_2  and  C_3
REMARK    3  A    between atoms: C_2  and  C_11
REMARK    4  A    between atoms: C_3  and  C_4
REMARK    5  A    between atoms: N_16  and  C_17
REMARK    6  A    between atoms: C_24  and  C_25
REMARK                            x       y       z     vdW  Elec       q    Type
REMARK                         _______ _______ _______ _____ _____    ______ ____
ROOT
ATOM      1  C   UNL     1      -0.143   9.988  19.335  0.00  0.00    +0.000 C 
ATOM      2  O   UNL     1      -0.813   9.799  20.359  0.00  0.00    +0.000 OA
ATOM      3  N   UNL     1       1.180   9.585  19.271  0.00  0.00    +0.000 N 
ATOM      4  C   UNL     1       1.729   8.798  20.377  0.00  0.00    +0.000 C 
ATOM      5  C   UNL     1       1.881   7.311  19.996  0.00  0.00    +0.000 C 
ATOM      6  N   UNL     1       2.547   7.135  18.706  0.00  0.00    +0.000 N 
ATOM      7  C   UNL     1       2.108   8.019  17.603  0.00  0.00    +0.000 C 
ATOM      8  C   UNL     1       2.020   9.491  18.074  0.00  0.00    +0.000 C 
ENDROOT
BRANCH   6   9
ATOM      9  C   UNL     1       3.583   6.244  18.481  0.00  0.00    +0.000 A 
ATOM     10  N   UNL     1       4.544   6.695  17.614  0.00  0.00    +0.000 NA
ATOM     11  C   UNL     1       5.641   5.979  17.350  0.00  0.00    +0.000 A 
ATOM     12  N   UNL     1       5.973   4.800  17.862  0.00  0.00    +0.000 NA
ATOM     13  C   UNL     1       5.022   4.343  18.686  0.00  0.00    +0.000 A 
ATOM     14  N   UNL     1       5.155   3.144  19.317  0.00  0.00    +0.000 N 
ATOM     15  C   UNL     1       4.056   2.898  20.071  0.00  0.00    +0.000 A 
ATOM     16  C   UNL     1       3.179   3.955  19.895  0.00  0.00    +0.000 A 
ATOM     17  C   UNL     1       3.807   4.943  19.045  0.00  0.00    +0.000 A 
ATOM     18  H   UNL     1       5.959   2.543  19.211  0.00  0.00    +0.000 HD
BRANCH  16  19
ATOM     19  C   UNL     1       1.789   3.942  20.530  0.00  0.00    +0.000 C 
ATOM     20  C   UNL     1       0.735   2.966  20.043  0.00  0.00    +0.000 C 
ATOM     21  C   UNL     1       1.405   2.718  21.350  0.00  0.00    +0.000 C 
ENDBRANCH  16  19
ENDBRANCH   6   9
BRANCH   1  22
ATOM     22  C   UNL     1      -0.796  10.727  18.131  0.00  0.00    +0.000 C 
BRANCH  22  23
ATOM     23  N   UNL     1      -1.396  11.999  18.631  0.00  0.00    +0.000 NA
ATOM     24  H   UNL     1      -2.411  11.902  18.646  0.00  0.00    +0.000 HD
ATOM     25  H   UNL     1      -1.235  12.706  17.904  0.00  0.00    +0.000 HD
ENDBRANCH  22  23
BRANCH  22  26
ATOM     26  C   UNL     1      -1.894   9.886  17.453  0.00  0.00    +0.000 C 
BRANCH  26  27
ATOM     27  C   UNL     1      -3.269  10.516  17.455  0.00  0.00    +0.000 A 
ATOM     28  C   UNL     1      -3.667  11.403  16.442  0.00  0.00    +0.000 A 
ATOM     29  C   UNL     1      -4.927  12.000  16.480  0.00  0.00    +0.000 A 
ATOM     30  C   UNL     1      -5.801  11.702  17.521  0.00  0.00    +0.000 A 
ATOM     31 CL   UNL     1      -7.345  12.459  17.587  0.00  0.00    +0.000 Cl
ATOM     32  C   UNL     1      -5.433  10.801  18.518  0.00  0.00    +0.000 A 
ATOM     33  C   UNL     1      -4.172  10.208  18.482  0.00  0.00    +0.000 A 
ENDBRANCH  26  27
ENDBRANCH  22  26
ENDBRANCH   1  22
TORSDOF 6
ENDMDL
MODEL 4
REMARK VINA RESULT:      -7.4      2.711      3.475
REMARK  Name = 
REMARK  6 active torsions:
REMARK  status: ('A' for Active; 'I' for Inactive)
REMARK    1  A    between atoms: N_1  and  C_2
REMARK    2  A    between atoms: C_2  and  C_3
REMARK    3  A    between atoms: C_2  and  C_11
REMARK    4  A    between atoms: C_3  and  C_4
REMARK    5  A    between atoms: N_16  and  C_17
REMARK    6  A    between atoms: C_24  and  C_25
REMARK                            x       y       z     vdW  Elec       q    Type
REMARK                         _______ _______ _______ _____ _____    ______ ____
ROOT
ATOM      1  C   UNL     1      -0.174   9.634  20.246  0.00  0.00    +0.000 C 
ATOM      2  O   UNL     1      -0.700   9.130  21.248  0.00  0.00    +0.000 OA
ATOM      3  N   UNL     1       1.135   9.331  19.907  0.00  0.00    +0.000 N 
ATOM      4  C   UNL     1       1.835   8.293  20.665  0.00  0.00    +0.000 C 
ATOM      5  C   UNL     1       1.953   6.983  19.859  0.00  0.00    +0.000 C 
ATOM      6  N   UNL     1       2.446   7.211  18.501  0.00  0.00    +0.000 N 
ATOM      7  C   UNL     1       1.854   8.349  17.760  0.00  0.00    +0.000 C 
ATOM      8  C   UNL     1       1.811   9.621  18.640  0.00  0.00    +0.000 C 
ENDROOT
BRANCH   6   9
ATOM      9  C   UNL     1       3.454   6.473  17.904  0.00  0.00    +0.000 A 
ATOM     10  N   UNL     1       4.520   7.214  17.468  0.00  0.00    +0.000 NA
ATOM     11  C   UNL     1       5.603   6.638  16.934  0.00  0.00    +0.000 A 
ATOM     12  N   UNL     1       5.820   5.340  16.767  0.00  0.00    +0.000 NA
ATOM     13  C   UNL     1       4.768   4.615  17.166  0.00  0.00    +0.000 A 
ATOM     14  N   UNL     1       4.776   3.256  17.077  0.00  0.00    +0.000 N 
ATOM     15  C   UNL     1       3.593   2.761  17.517  0.00  0.00    +0.000 A 
ATOM     16  C   UNL     1       2.792   3.834  17.870  0.00  0.00    +0.000 A 
ATOM     17  C   UNL     1       3.553   5.054  17.711  0.00  0.00    +0.000 A 
ATOM     18  H   UNL     1       5.555   2.724  16.719  0.00  0.00    +0.000 HD
BRANCH  16  19
ATOM     19  C   UNL     1       1.345   3.626  18.316  0.00  0.00    +0.000 C 
ATOM     20  C   UNL     1       0.897   2.280  18.853  0.00  0.00    +0.000 C 
ATOM     21  C   UNL     1       1.094   3.412  19.802  0.00  0.00    +0.000 C 
ENDBRANCH  16  19
ENDBRANCH   6   9
BRANCH   1  22
ATOM     22  C   UNL     1      -0.989  10.649  19.394  0.00  0.00    +0.000 C 
BRANCH  22  23
ATOM     23  N   UNL     1      -0.397  10.696  18.025  0.00  0.00    +0.000 NA
ATOM     24  H   UNL     1      -1.152  10.728  17.341  0.00  0.00    +0.000 HD
ATOM     25  H   UNL     1       0.036   9.779  17.860  0.00  0.00    +0.000 HD
ENDBRANCH  22  23
BRANCH  22  26
ATOM     26  C   UNL     1      -0.971  12.067  19.998  0.00  0.00    +0.000 C 
BRANCH  26  27
ATOM     27  C   UNL     1      -2.056  12.338  21.015  0.00  0.00    +0.000 A 
ATOM     28  C   UNL     1      -1.799  12.260  22.393  0.00  0.00    +0.000 A 
ATOM     29  C   UNL     1      -2.822  12.481  23.315  0.00  0.00    +0.000 A 
ATOM     30  C   UNL     1      -4.102  12.795  22.867  0.00  0.00    +0.000 A 
ATOM     31 CL   UNL     1      -5.372  13.038  24.001  0.00  0.00    +0.000 Cl
ATOM     32  C   UNL     1      -4.366  12.905  21.503  0.00  0.00    +0.000 A 
ATOM     33  C   UNL     1      -3.344  12.681  20.581  0.00  0.00    +0.000 A 
ENDBRANCH  26  27
ENDBRANCH  22  26
ENDBRANCH   1  22
TORSDOF 6
ENDMDL
MODEL 5
REMARK VINA RESULT:      -7.3      2.673      3.436
REMARK  Name = 
REMARK  6 active torsions:
REMARK  status: ('A' for Active; 'I' for Inactive)
REMARK    1  A    between atoms: N_1  and  C_2
REMARK    2  A    between atoms: C_2  and  C_3
REMARK    3  A    between atoms: C_2  and  C_11
REMARK    4  A    between atoms: C_3  and  C_4
REMARK    5  A    between atoms: N_16  and  C_17
REMARK    6  A    between atoms: C_24  and  C_25
REMARK                            x       y       z     vdW  Elec       q    Type
REMARK                         _______ _______ _______ _____ _____    ______ ____
ROOT
ATOM      1  C   UNL     1      -0.113   9.914  19.790  0.00  0.00    +0.000 C 
ATOM      2  O   UNL     1      -0.721   9.492  20.783  0.00  0.00    +0.000 OA
ATOM      3  N   UNL     1       1.202   9.547  19.559  0.00  0.00    +0.000 N 
ATOM      4  C   UNL     1       1.812   8.534  20.423  0.00  0.00    +0.000 C 
ATOM      5  C   UNL     1       1.933   7.174  19.706  0.00  0.00    +0.000 C 
ATOM      6  N   UNL     1       2.521   7.300  18.373  0.00  0.00    +0.000 N 
ATOM      7  C   UNL     1       2.022   8.408  17.527  0.00  0.00    +0.000 C 
ATOM      8  C   UNL     1       1.970   9.734  18.325  0.00  0.00    +0.000 C 
ENDROOT
BRANCH   6   9
ATOM      9  C   UNL     1       3.536   6.492  17.891  0.00  0.00    +0.000 A 
ATOM     10  N   UNL     1       4.644   7.170  17.453  0.00  0.00    +0.000 NA
ATOM     11  C   UNL     1       5.735   6.527  17.025  0.00  0.00    +0.000 A 
ATOM     12  N   UNL     1       5.925   5.215  16.973  0.00  0.00    +0.000 NA
ATOM     13  C   UNL     1       4.833   4.549  17.372  0.00  0.00    +0.000 A 
ATOM     14  N   UNL     1       4.808   3.189  17.391  0.00  0.00    +0.000 N 
ATOM     15  C   UNL     1       3.591   2.759  17.807  0.00  0.00    +0.000 A 
ATOM     16  C   UNL     1       2.804   3.875  18.031  0.00  0.00    +0.000 A 
ATOM     17  C   UNL     1       3.605   5.060  17.816  0.00  0.00    +0.000 A 
ATOM     18  H   UNL     1       5.588   2.611  17.119  0.00  0.00    +0.000 HD
BRANCH  16  19
ATOM     19  C   UNL     1       1.331   3.739  18.415  0.00  0.00    +0.000 C 
ATOM     20  C   UNL     1       0.798   2.420  18.943  0.00  0.00    +0.000 C 
ATOM     21  C   UNL     1       1.006   3.552  19.891  0.00  0.00    +0.000 C 
ENDBRANCH  16  19
ENDBRANCH   6   9
BRANCH   1  22
ATOM     22  C   UNL     1      -0.832  10.902  18.827  0.00  0.00    +0.000 C 
BRANCH  22  23
ATOM     23  N   UNL     1      -1.066  10.205  17.528  0.00  0.00    +0.000 NA
ATOM     24  H   UNL     1      -1.364  10.890  16.835  0.00  0.00    +0.000 HD
ATOM     25  H   UNL     1      -1.897   9.616  17.656  0.00  0.00    +0.000 HD
ENDBRANCH  22  23
BRANCH  22  26
ATOM     26  C   UNL     1      -0.005  12.176  18.571  0.00  0.00    +0.000 C 
BRANCH  26  27
ATOM     27  C   UNL     1      -0.550  13.428  19.223  0.00  0.00    +0.000 A 
ATOM     28  C   UNL     1      -1.530  13.359  20.225  0.00  0.00    +0.000 A 
ATOM     29  C   UNL     1      -2.044  14.526  20.791  0.00  0.00    +0.000 A 
ATOM     30  C   UNL     1      -1.570  15.765  20.370  0.00  0.00    +0.000 A 
ATOM     31 CL   UNL     1      -2.222  17.207  21.044  0.00  0.00    +0.000 Cl
ATOM     32  C   UNL     1      -0.575  15.849  19.398  0.00  0.00    +0.000 A 
ATOM     33  C   UNL     1      -0.065  14.682  18.830  0.00  0.00    +0.000 A 
ENDBRANCH  26  27
ENDBRANCH  22  26
ENDBRANCH   1  22
TORSDOF 6
ENDMDL
MODEL 6
REMARK VINA RESULT:      -7.3      2.825      3.781
REMARK  Name = 
REMARK  6 active torsions:
REMARK  status: ('A' for Active; 'I' for Inactive)
REMARK    1  A    between atoms: N_1  and  C_2
REMARK    2  A    between atoms: C_2  and  C_3
REMARK    3  A    between atoms: C_2  and  C_11
REMARK    4  A    between atoms: C_3  and  C_4
REMARK    5  A    between atoms: N_16  and  C_17
REMARK    6  A    between atoms: C_24  and  C_25
REMARK                            x       y       z     vdW  Elec       q    Type
REMARK                         _______ _______ _______ _____ _____    ______ ____
ROOT
ATOM      1  C   UNL     1      -0.170   9.849  19.836  0.00  0.00    +0.000 C 
ATOM      2  O   UNL     1      -0.731   9.433  20.859  0.00  0.00    +0.000 OA
ATOM      3  N   UNL     1       1.147   9.517  19.569  0.00  0.00    +0.000 N 
ATOM      4  C   UNL     1       1.817   8.546  20.436  0.00  0.00    +0.000 C 
ATOM      5  C   UNL     1       1.957   7.172  19.748  0.00  0.00    +0.000 C 
ATOM      6  N   UNL     1       2.495   7.283  18.393  0.00  0.00    +0.000 N 
ATOM      7  C   UNL     1       1.934   8.354  17.538  0.00  0.00    +0.000 C 
ATOM      8  C   UNL     1       1.867   9.696  18.305  0.00  0.00    +0.000 C 
ENDROOT
BRANCH   6   9
ATOM      9  C   UNL     1       3.519   6.495  17.895  0.00  0.00    +0.000 A 
ATOM     10  N   UNL     1       4.624   7.192  17.480  0.00  0.00    +0.000 NA
ATOM     11  C   UNL     1       5.722   6.567  17.041  0.00  0.00    +0.000 A 
ATOM     12  N   UNL     1       5.922   5.259  16.957  0.00  0.00    +0.000 NA
ATOM     13  C   UNL     1       4.833   4.575  17.334  0.00  0.00    +0.000 A 
ATOM     14  N   UNL     1       4.818   3.214  17.319  0.00  0.00    +0.000 N 
ATOM     15  C   UNL     1       3.603   2.765  17.718  0.00  0.00    +0.000 A 
ATOM     16  C   UNL     1       2.806   3.870  17.967  0.00  0.00    +0.000 A 
ATOM     17  C   UNL     1       3.600   5.066  17.785  0.00  0.00    +0.000 A 
ATOM     18  H   UNL     1       5.604   2.649  17.036  0.00  0.00    +0.000 HD
BRANCH  16  19
ATOM     19  C   UNL     1       1.332   3.713  18.340  0.00  0.00    +0.000 C 
ATOM     20  C   UNL     1       0.822   2.399  18.901  0.00  0.00    +0.000 C 
ATOM     21  C   UNL     1       0.996   3.562  19.817  0.00  0.00    +0.000 C 
ENDBRANCH  16  19
ENDBRANCH   6   9
BRANCH   1  22
ATOM     22  C   UNL     1      -0.952  10.789  18.875  0.00  0.00    +0.000 C 
BRANCH  22  23
ATOM     23  N   UNL     1      -0.972  10.165  17.520  0.00  0.00    +0.000 NA
ATOM     24  H   UNL     1      -1.740  10.566  16.983  0.00  0.00    +0.000 HD
ATOM     25  H   UNL     1      -1.258   9.187  17.651  0.00  0.00    +0.000 HD
ENDBRANCH  22  23
BRANCH  22  26
ATOM     26  C   UNL     1      -0.312  12.187  18.774  0.00  0.00    +0.000 C 
BRANCH  26  27
ATOM     27  C   UNL     1      -0.423  13.029  20.025  0.00  0.00    +0.000 A 
ATOM     28  C   UNL     1       0.720  13.481  20.704  0.00  0.00    +0.000 A 
ATOM     29  C   UNL     1       0.597  14.227  21.875  0.00  0.00    +0.000 A 
ATOM     30  C   UNL     1      -0.668  14.539  22.367  0.00  0.00    +0.000 A 
ATOM     31 CL   UNL     1      -0.824  15.435  23.827  0.00  0.00    +0.000 Cl
ATOM     32  C   UNL     1      -1.812  14.124  21.688  0.00  0.00    +0.000 A 
ATOM     33  C   UNL     1      -1.688  13.374  20.519  0.00  0.00    +0.000 A 
ENDBRANCH  26  27
ENDBRANCH  22  26
ENDBRANCH   1  22
TORSDOF 6
ENDMDL
MODEL 7
REMARK VINA RESULT:      -7.3      1.910      3.280
REMARK  Name = 
REMARK  6 active torsions:
REMARK  status: ('A' for Active; 'I' for Inactive)
REMARK    1  A    between atoms: N_1  and  C_2
REMARK    2  A    between atoms: C_2  and  C_3
REMARK    3  A    between atoms: C_2  and  C_11
REMARK    4  A    between atoms: C_3  and  C_4
REMARK    5  A    between atoms: N_16  and  C_17
REMARK    6  A    between atoms: C_24  and  C_25
REMARK                            x       y       z     vdW  Elec       q    Type
REMARK                         _______ _______ _______ _____ _____    ______ ____
ROOT
ATOM      1  C   UNL     1       0.242   9.947  19.468  0.00  0.00    +0.000 C 
ATOM      2  O   UNL     1      -0.479  10.273  20.420  0.00  0.00    +0.000 OA
ATOM      3  N   UNL     1       1.365   9.162  19.669  0.00  0.00    +0.000 N 
ATOM      4  C   UNL     1       1.601   8.600  21.000  0.00  0.00    +0.000 C 
ATOM      5  C   UNL     1       1.273   7.093  21.047  0.00  0.00    +0.000 C 
ATOM      6  N   UNL     1       1.881   6.359  19.937  0.00  0.00    +0.000 N 
ATOM      7  C   UNL     1       1.781   6.978  18.596  0.00  0.00    +0.000 C 
ATOM      8  C   UNL     1       2.161   8.477  18.647  0.00  0.00    +0.000 C 
ENDROOT
BRANCH   6   9
ATOM      9  C   UNL     1       2.578   5.172  20.079  0.00  0.00    +0.000 A 
ATOM     10  N   UNL     1       2.023   4.288  20.968  0.00  0.00    +0.000 NA
ATOM     11  C   UNL     1       2.541   3.070  21.161  0.00  0.00    +0.000 A 
ATOM     12  N   UNL     1       3.595   2.541  20.554  0.00  0.00    +0.000 NA
ATOM     13  C   UNL     1       4.157   3.413  19.706  0.00  0.00    +0.000 A 
ATOM     14  N   UNL     1       5.258   3.077  18.980  0.00  0.00    +0.000 N 
ATOM     15  C   UNL     1       5.647   4.132  18.222  0.00  0.00    +0.000 A 
ATOM     16  C   UNL     1       4.788   5.184  18.492  0.00  0.00    +0.000 A 
ATOM     17  C   UNL     1       3.768   4.727  19.410  0.00  0.00    +0.000 A 
ATOM     18  H   UNL     1       5.706   2.174  19.029  0.00  0.00    +0.000 HD
BRANCH  16  19
ATOM     19  C   UNL     1       5.011   6.563  17.874  0.00  0.00    +0.000 C 
ATOM     20  C   UNL     1       6.277   6.854  17.091  0.00  0.00    +0.000 C 
ATOM     21  C   UNL     1       4.996   6.661  16.355  0.00  0.00    +0.000 C 
ENDBRANCH  16  19
ENDBRANCH   6   9
BRANCH   1  22
ATOM     22  C   UNL     1      -0.105  10.469  18.044  0.00  0.00    +0.000 C 
BRANCH  22  23
ATOM     23  N   UNL     1      -0.472  11.911  18.149  0.00  0.00    +0.000 NA
ATOM     24  H   UNL     1       0.040  12.434  17.439  0.00  0.00    +0.000 HD
ATOM     25  H   UNL     1      -0.073  12.253  19.031  0.00  0.00    +0.000 HD
ENDBRANCH  22  23
BRANCH  22  26
ATOM     26  C   UNL     1      -1.276   9.698  17.406  0.00  0.00    +0.000 C 
BRANCH  26  27
ATOM     27  C   UNL     1      -2.574  10.469  17.323  0.00  0.00    +0.000 A 
ATOM     28  C   UNL     1      -3.239  10.902  18.481  0.00  0.00    +0.000 A 
ATOM     29  C   UNL     1      -4.453  11.583  18.385  0.00  0.00    +0.000 A 
ATOM     30  C   UNL     1      -5.000  11.848  17.133  0.00  0.00    +0.000 A 
ATOM     31 CL   UNL     1      -6.511  12.662  17.011  0.00  0.00    +0.000 Cl
ATOM     32  C   UNL     1      -4.337  11.451  15.973  0.00  0.00    +0.000 A 
ATOM     33  C   UNL     1      -3.125  10.767  16.070  0.00  0.00    +0.000 A 
ENDBRANCH  26  27
ENDBRANCH  22  26
ENDBRANCH   1  22
TORSDOF 6
ENDMDL
MODEL 8
REMARK VINA RESULT:      -7.2      1.666      2.044
REMARK  Name = 
REMARK  6 active torsions:
REMARK  status: ('A' for Active; 'I' for Inactive)
REMARK    1  A    between atoms: N_1  and  C_2
REMARK    2  A    between atoms: C_2  and  C_3
REMARK    3  A    between atoms: C_2  and  C_11
REMARK    4  A    between atoms: C_3  and  C_4
REMARK    5  A    between atoms: N_16  and  C_17
REMARK    6  A    between atoms: C_24  and  C_25
REMARK                            x       y       z     vdW  Elec       q    Type
REMARK                         _______ _______ _______ _____ _____    ______ ____
ROOT
ATOM      1  C   UNL     1       0.039   9.717  19.234  0.00  0.00    +0.000 C 
ATOM      2  O   UNL     1      -0.609   9.648  20.287  0.00  0.00    +0.000 OA
ATOM      3  N   UNL     1       1.364   9.317  19.193  0.00  0.00    +0.000 N 
ATOM      4  C   UNL     1       1.941   8.671  20.374  0.00  0.00    +0.000 C 
ATOM      5  C   UNL     1       2.097   7.150  20.169  0.00  0.00    +0.000 C 
ATOM      6  N   UNL     1       2.740   6.825  18.897  0.00  0.00    +0.000 N 
ATOM      7  C   UNL     1       2.274   7.569  17.705  0.00  0.00    +0.000 C 
ATOM      8  C   UNL     1       2.183   9.086  18.000  0.00  0.00    +0.000 C 
ENDROOT
BRANCH   6   9
ATOM      9  C   UNL     1       3.779   5.919  18.759  0.00  0.00    +0.000 A 
ATOM     10  N   UNL     1       4.836   6.375  18.015  0.00  0.00    +0.000 NA
ATOM     11  C   UNL     1       5.943   5.643  17.850  0.00  0.00    +0.000 A 
ATOM     12  N   UNL     1       6.196   4.445  18.359  0.00  0.00    +0.000 NA
ATOM     13  C   UNL     1       5.153   3.984  19.063  0.00  0.00    +0.000 A 
ATOM     14  N   UNL     1       5.197   2.767  19.669  0.00  0.00    +0.000 N 
ATOM     15  C   UNL     1       4.018   2.522  20.292  0.00  0.00    +0.000 A 
ATOM     16  C   UNL     1       3.183   3.601  20.053  0.00  0.00    +0.000 A 
ATOM     17  C   UNL     1       3.917   4.599  19.305  0.00  0.00    +0.000 A 
ATOM     18  H   UNL     1       5.996   2.152  19.633  0.00  0.00    +0.000 HD
BRANCH  16  19
ATOM     19  C   UNL     1       1.733   3.599  20.534  0.00  0.00    +0.000 C 
ATOM     20  C   UNL     1       0.618   4.030  19.599  0.00  0.00    +0.000 C 
ATOM     21  C   UNL     1       0.788   2.582  19.908  0.00  0.00    +0.000 C 
ENDBRANCH  16  19
ENDBRANCH   6   9
BRANCH   1  22
ATOM     22  C   UNL     1      -0.642  10.304  17.965  0.00  0.00    +0.000 C 
BRANCH  22  23
ATOM     23  N   UNL     1      -0.888  11.758  18.194  0.00  0.00    +0.000 NA
ATOM     24  H   UNL     1      -1.819  11.877  18.589  0.00  0.00    +0.000 HD
ATOM     25  H   UNL     1      -0.965  12.193  17.266  0.00  0.00    +0.000 HD
ENDBRANCH  22  23
BRANCH  22  26
ATOM     26  C   UNL     1      -1.981   9.612  17.645  0.00  0.00    +0.000 C 
BRANCH  26  27
ATOM     27  C   UNL     1      -3.164  10.546  17.517  0.00  0.00    +0.000 A 
ATOM     28  C   UNL     1      -3.795  11.082  18.650  0.00  0.00    +0.000 A 
ATOM     29  C   UNL     1      -4.906  11.915  18.512  0.00  0.00    +0.000 A 
ATOM     30  C   UNL     1      -5.380  12.229  17.242  0.00  0.00    +0.000 A 
ATOM     31 CL   UNL     1      -6.767  13.232  17.069  0.00  0.00    +0.000 Cl
ATOM     32  C   UNL     1      -4.746  11.729  16.107  0.00  0.00    +0.000 A 
ATOM     33  C   UNL     1      -3.639  10.894  16.245  0.00  0.00    +0.000 A 
ENDBRANCH  26  27
ENDBRANCH  22  26
ENDBRANCH   1  22
TORSDOF 6
ENDMDL
MODEL 9
REMARK VINA RESULT:      -7.1      3.050      4.054
REMARK  Name = 
REMARK  6 active torsions:
REMARK  status: ('A' for Active; 'I' for Inactive)
REMARK    1  A    between atoms: N_1  and  C_2
REMARK    2  A    between atoms: C_2  and  C_3
REMARK    3  A    between atoms: C_2  and  C_11
REMARK    4  A    between atoms: C_3  and  C_4
REMARK    5  A    between atoms: N_16  and  C_17
REMARK    6  A    between atoms: C_24  and  C_25
REMARK                            x       y       z     vdW  Elec       q    Type
REMARK                         _______ _______ _______ _____ _____    ______ ____
ROOT
ATOM      1  C   UNL     1      -0.205   9.436  20.586  0.00  0.00    +0.000 C 
ATOM      2  O   UNL     1      -0.696   8.871  21.573  0.00  0.00    +0.000 OA
ATOM      3  N   UNL     1       1.091   9.160  20.186  0.00  0.00    +0.000 N 
ATOM      4  C   UNL     1       1.819   8.080  20.857  0.00  0.00    +0.000 C 
ATOM      5  C   UNL     1       1.912   6.822  19.969  0.00  0.00    +0.000 C 
ATOM      6  N   UNL     1       2.358   7.134  18.611  0.00  0.00    +0.000 N 
ATOM      7  C   UNL     1       1.740   8.311  17.961  0.00  0.00    +0.000 C 
ATOM      8  C   UNL     1       1.724   9.528  18.917  0.00  0.00    +0.000 C 
ENDROOT
BRANCH   6   9
ATOM      9  C   UNL     1       3.347   6.437  17.937  0.00  0.00    +0.000 A 
ATOM     10  N   UNL     1       4.360   7.218  17.445  0.00  0.00    +0.000 NA
ATOM     11  C   UNL     1       5.422   6.684  16.832  0.00  0.00    +0.000 A 
ATOM     12  N   UNL     1       5.667   5.396  16.629  0.00  0.00    +0.000 NA
ATOM     13  C   UNL     1       4.665   4.632  17.082  0.00  0.00    +0.000 A 
ATOM     14  N   UNL     1       4.709   3.276  16.969  0.00  0.00    +0.000 N 
ATOM     15  C   UNL     1       3.573   2.737  17.477  0.00  0.00    +0.000 A 
ATOM     16  C   UNL     1       2.765   3.779  17.901  0.00  0.00    +0.000 A 
ATOM     17  C   UNL     1       3.476   5.025  17.713  0.00  0.00    +0.000 A 
ATOM     18  H   UNL     1       5.478   2.774  16.553  0.00  0.00    +0.000 HD
BRANCH  16  19
ATOM     19  C   UNL     1       1.357   3.519  18.436  0.00  0.00    +0.000 C 
ATOM     20  C   UNL     1       0.958   2.129  18.893  0.00  0.00    +0.000 C 
ATOM     21  C   UNL     1       1.221   3.181  19.914  0.00  0.00    +0.000 C 
ENDBRANCH  16  19
ENDBRANCH   6   9
BRANCH   1  22
ATOM     22  C   UNL     1      -1.050  10.498  19.826  0.00  0.00    +0.000 C 
BRANCH  22  23
ATOM     23  N   UNL     1      -1.063  10.139  18.377  0.00  0.00    +0.000 NA
ATOM     24  H   UNL     1      -1.286  10.972  17.833  0.00  0.00    +0.000 HD
ATOM     25  H   UNL     1      -1.878   9.533  18.231  0.00  0.00    +0.000 HD
ENDBRANCH  22  23
BRANCH  22  26
ATOM     26  C   UNL     1      -0.484  11.922  19.986  0.00  0.00    +0.000 C 
BRANCH  26  27
ATOM     27  C   UNL     1      -0.895  12.629  21.258  0.00  0.00    +0.000 A 
ATOM     28  C   UNL     1      -2.003  12.200  22.005  0.00  0.00    +0.000 A 
ATOM     29  C   UNL     1      -2.386  12.887  23.157  0.00  0.00    +0.000 A 
ATOM     30  C   UNL     1      -1.656  13.995  23.577  0.00  0.00    +0.000 A 
ATOM     31 CL   UNL     1      -2.143  14.861  24.981  0.00  0.00    +0.000 Cl
ATOM     32  C   UNL     1      -0.536  14.415  22.863  0.00  0.00    +0.000 A 
ATOM     33  C   UNL     1      -0.155  13.731  21.709  0.00  0.00    +0.000 A 
ENDBRANCH  26  27
ENDBRANCH  22  26
ENDBRANCH   1  22
TORSDOF 6
ENDMDL
