MODEL 1
REMARK VINA RESULT:      -7.2      0.000      0.000
REMARK  Name = 
REMARK  8 active torsions:
REMARK  status: ('A' for Active; 'I' for Inactive)
REMARK    1  A    between atoms: C_1  and  C_2
REMARK    2  A    between atoms: C_2  and  C_3
REMARK    3  A    between atoms: C_2  and  O_4
REMARK    4  A    between atoms: O_4  and  C_5
REMARK    5  A    between atoms: C_10  and  N_11
REMARK    6  A    between atoms: N_14  and  C_15
REMARK    7  A    between atoms: C_15  and  C_16
REMARK    8  A    between atoms: C_16  and  N_17
REMARK                            x       y       z     vdW  Elec       q    Type
REMARK                         _______ _______ _______ _____ _____    ______ ____
ROOT
ATOM      1  N   UNL     1       4.254   6.231  18.238  0.00  0.00    +0.000 N 
ATOM      2  C   UNL     1       3.524   7.435  17.846  0.00  0.00    +0.000 C 
ATOM      3  C   UNL     1       2.029   7.259  18.207  0.00  0.00    +0.000 C 
ATOM      4  N   UNL     1       1.717   6.892  19.613  0.00  0.00    +0.000 NA
ATOM      5  C   UNL     1       2.566   5.751  20.017  0.00  0.00    +0.000 C 
ATOM      6  C   UNL     1       4.068   5.864  19.654  0.00  0.00    +0.000 C 
ENDROOT
BRANCH   1  12
ATOM      7  C   UNL     1       4.469   4.237  16.746  0.00  0.00    +0.000 A 
ATOM      8  C   UNL     1       5.207   3.593  15.731  0.00  0.00    +0.000 A 
ATOM      9  C   UNL     1       6.473   4.042  15.362  0.00  0.00    +0.000 A 
ATOM     10  C   UNL     1       7.004   5.151  15.986  0.00  0.00    +0.000 A 
ATOM     11  C   UNL     1       6.254   5.840  16.944  0.00  0.00    +0.000 A 
ATOM     12  C   UNL     1       4.952   5.440  17.330  0.00  0.00    +0.000 A 
BRANCH   7  13
ATOM     13  O   UNL     1       3.243   3.726  17.126  0.00  0.00    +0.000 OA
BRANCH  13  15
ATOM     14  C   UNL     1       4.202   2.447  19.018  0.00  0.00    +0.000 C 
ATOM     15  C   UNL     1       3.245   2.460  17.821  0.00  0.00    +0.000 C 
ATOM     16  C   UNL     1       1.819   2.188  18.303  0.00  0.00    +0.000 C 
ENDBRANCH  13  15
ENDBRANCH   7  13
ENDBRANCH   1  12
BRANCH   4  17
ATOM     17  C   UNL     1       1.817   8.021  20.556  0.00  0.00    +0.000 C 
BRANCH  17  18
ATOM     18  C   UNL     1       0.429   8.297  21.135  0.00  0.00    +0.000 C 
BRANCH  18  19
ATOM     19  N   UNL     1       0.075   9.675  21.365  0.00  0.00    +0.000 N 
ATOM     20  C   UNL     1      -0.203  10.441  20.243  0.00  0.00    +0.000 C 
ATOM     21  O   UNL     1       0.273  10.222  19.130  0.00  0.00    +0.000 OA
ATOM     22  C   UNL     1      -1.273  11.476  20.434  0.00  0.00    +0.000 C 
ATOM     23  C   UNL     1      -1.210  12.171  21.794  0.00  0.00    +0.000 C 
ATOM     24  C   UNL     1      -2.503  13.009  21.975  0.00  0.00    +0.000 C 
ATOM     25  C   UNL     1      -2.049  14.446  22.162  0.00  0.00    +0.000 C 
ATOM     26  C   UNL     1      -0.705  14.511  21.459  0.00  0.00    +0.000 C 
ATOM     27  C   UNL     1      -0.056  13.191  21.844  0.00  0.00    +0.000 C 
ATOM     28  C   UNL     1      -1.104  11.137  22.912  0.00  0.00    +0.000 C 
ATOM     29  C   UNL     1      -0.045  10.096  22.678  0.00  0.00    +0.000 C 
ATOM     30  O   UNL     1       0.567   9.583  23.619  0.00  0.00    +0.000 OA
ENDBRANCH  18  19
ENDBRANCH  17  18
ENDBRANCH   4  17
TORSDOF 6
ENDMDL
MODEL 2
REMARK VINA RESULT:      -7.0      1.780      3.391
REMARK  Name = 
REMARK  8 active torsions:
REMARK  status: ('A' for Active; 'I' for Inactive)
REMARK    1  A    between atoms: C_1  and  C_2
REMARK    2  A    between atoms: C_2  and  C_3
REMARK    3  A    between atoms: C_2  and  O_4
REMARK    4  A    between atoms: O_4  and  C_5
REMARK    5  A    between atoms: C_10  and  N_11
REMARK    6  A    between atoms: N_14  and  C_15
REMARK    7  A    between atoms: C_15  and  C_16
REMARK    8  A    between atoms: C_16  and  N_17
REMARK                            x       y       z     vdW  Elec       q    Type
REMARK                         _______ _______ _______ _____ _____    ______ ____
ROOT
ATOM      1  N   UNL     1       4.136   6.467  18.159  0.00  0.00    +0.000 N 
ATOM      2  C   UNL     1       3.548   7.769  17.846  0.00  0.00    +0.000 C 
ATOM      3  C   UNL     1       2.020   7.704  18.084  0.00  0.00    +0.000 C 
ATOM      4  N   UNL     1       1.568   7.232  19.419  0.00  0.00    +0.000 NA
ATOM      5  C   UNL     1       2.279   5.981  19.759  0.00  0.00    +0.000 C 
ATOM      6  C   UNL     1       3.808   5.984  19.513  0.00  0.00    +0.000 C 
ENDROOT
BRANCH   1  12
ATOM      7  C   UNL     1       6.033   6.096  16.575  0.00  0.00    +0.000 A 
ATOM      8  C   UNL     1       6.724   5.184  15.751  0.00  0.00    +0.000 A 
ATOM      9  C   UNL     1       6.192   3.931  15.452  0.00  0.00    +0.000 A 
ATOM     10  C   UNL     1       4.977   3.569  15.993  0.00  0.00    +0.000 A 
ATOM     11  C   UNL     1       4.314   4.436  16.867  0.00  0.00    +0.000 A 
ATOM     12  C   UNL     1       4.829   5.705  17.224  0.00  0.00    +0.000 A 
BRANCH   7  13
ATOM     13  O   UNL     1       6.565   7.351  16.799  0.00  0.00    +0.000 OA
BRANCH  13  15
ATOM     14  C   UNL     1       8.185   8.829  17.954  0.00  0.00    +0.000 C 
ATOM     15  C   UNL     1       7.838   7.414  17.480  0.00  0.00    +0.000 C 
ATOM     16  C   UNL     1       7.771   6.473  18.684  0.00  0.00    +0.000 C 
ENDBRANCH  13  15
ENDBRANCH   7  13
ENDBRANCH   1  12
BRANCH   4  17
ATOM     17  C   UNL     1       1.695   8.249  20.479  0.00  0.00    +0.000 C 
BRANCH  17  18
ATOM     18  C   UNL     1       0.310   8.831  20.765  0.00  0.00    +0.000 C 
BRANCH  18  19
ATOM     19  N   UNL     1       0.096  10.215  20.425  0.00  0.00    +0.000 N 
ATOM     20  C   UNL     1       0.323  11.145  21.429  0.00  0.00    +0.000 C 
ATOM     21  O   UNL     1       0.208  10.898  22.628  0.00  0.00    +0.000 OA
ATOM     22  C   UNL     1       0.890  12.453  20.961  0.00  0.00    +0.000 C 
ATOM     23  C   UNL     1       0.291  12.938  19.641  0.00  0.00    +0.000 C 
ATOM     24  C   UNL     1       1.133  14.138  19.134  0.00  0.00    +0.000 C 
ATOM     25  C   UNL     1       0.171  15.309  19.028  0.00  0.00    +0.000 C 
ATOM     26  C   UNL     1      -0.922  14.991  20.033  0.00  0.00    +0.000 C 
ATOM     27  C   UNL     1      -1.130  13.497  19.846  0.00  0.00    +0.000 C 
ATOM     28  C   UNL     1       0.317  11.816  18.606  0.00  0.00    +0.000 C 
ATOM     29  C   UNL     1      -0.229  10.510  19.112  0.00  0.00    +0.000 C 
ATOM     30  O   UNL     1      -0.809   9.723  18.358  0.00  0.00    +0.000 OA
ENDBRANCH  18  19
ENDBRANCH  17  18
ENDBRANCH   4  17
TORSDOF 6
ENDMDL
MODEL 3
REMARK VINA RESULT:      -7.0      1.343      2.591
REMARK  Name = 
REMARK  8 active torsions:
REMARK  status: ('A' for Active; 'I' for Inactive)
REMARK    1  A    between atoms: C_1  and  C_2
REMARK    2  A    between atoms: C_2  and  C_3
REMARK    3  A    between atoms: C_2  and  O_4
REMARK    4  A    between atoms: O_4  and  C_5
REMARK    5  A    between atoms: C_10  and  N_11
REMARK    6  A    between atoms: N_14  and  C_15
REMARK    7  A    between atoms: C_15  and  C_16
REMARK    8  A    between atoms: C_16  and  N_17
REMARK                            x       y       z     vdW  Elec       q    Type
REMARK                         _______ _______ _______ _____ _____    ______ ____
ROOT
ATOM      1  N   UNL     1       4.229   6.395  18.077  0.00  0.00    +0.000 N 
ATOM      2  C   UNL     1       3.566   7.656  17.750  0.00  0.00    +0.000 C 
ATOM      3  C   UNL     1       2.059   7.535  18.081  0.00  0.00    +0.000 C 
ATOM      4  N   UNL     1       1.707   7.099  19.458  0.00  0.00    +0.000 NA
ATOM      5  C   UNL     1       2.492   5.895  19.802  0.00  0.00    +0.000 C 
ATOM      6  C   UNL     1       4.003   5.953  19.465  0.00  0.00    +0.000 C 
ENDROOT
BRANCH   1  12
ATOM      7  C   UNL     1       6.100   6.004  16.467  0.00  0.00    +0.000 A 
ATOM      8  C   UNL     1       6.769   5.085  15.632  0.00  0.00    +0.000 A 
ATOM      9  C   UNL     1       6.219   3.839  15.340  0.00  0.00    +0.000 A 
ATOM     10  C   UNL     1       5.008   3.489  15.897  0.00  0.00    +0.000 A 
ATOM     11  C   UNL     1       4.367   4.363  16.781  0.00  0.00    +0.000 A 
ATOM     12  C   UNL     1       4.901   5.626  17.131  0.00  0.00    +0.000 A 
BRANCH   7  13
ATOM     13  O   UNL     1       6.649   7.253  16.684  0.00  0.00    +0.000 OA
BRANCH  13  15
ATOM     14  C   UNL     1       7.954   6.307  18.567  0.00  0.00    +0.000 C 
ATOM     15  C   UNL     1       7.196   7.511  17.996  0.00  0.00    +0.000 C 
ATOM     16  C   UNL     1       8.145   8.705  17.880  0.00  0.00    +0.000 C 
ENDBRANCH  13  15
ENDBRANCH   7  13
ENDBRANCH   1  12
BRANCH   4  17
ATOM     17  C   UNL     1       1.848   8.162  20.469  0.00  0.00    +0.000 C 
BRANCH  17  18
ATOM     18  C   UNL     1       0.506   8.343  21.178  0.00  0.00    +0.000 C 
BRANCH  18  19
ATOM     19  N   UNL     1       0.074   9.695  21.434  0.00  0.00    +0.000 N 
ATOM     20  C   UNL     1      -0.232  10.471  20.326  0.00  0.00    +0.000 C 
ATOM     21  O   UNL     1       0.268  10.304  19.215  0.00  0.00    +0.000 OA
ATOM     22  C   UNL     1      -1.359  11.441  20.526  0.00  0.00    +0.000 C 
ATOM     23  C   UNL     1      -1.350  12.107  21.902  0.00  0.00    +0.000 C 
ATOM     24  C   UNL     1      -2.689  12.869  22.085  0.00  0.00    +0.000 C 
ATOM     25  C   UNL     1      -2.316  14.323  22.310  0.00  0.00    +0.000 C 
ATOM     26  C   UNL     1      -0.969  14.478  21.627  0.00  0.00    +0.000 C 
ATOM     27  C   UNL     1      -0.254  13.186  21.990  0.00  0.00    +0.000 C 
ATOM     28  C   UNL     1      -1.201  11.055  22.998  0.00  0.00    +0.000 C 
ATOM     29  C   UNL     1      -0.084  10.078  22.755  0.00  0.00    +0.000 C 
ATOM     30  O   UNL     1       0.544   9.577  23.692  0.00  0.00    +0.000 OA
ENDBRANCH  18  19
ENDBRANCH  17  18
ENDBRANCH   4  17
TORSDOF 6
ENDMDL
MODEL 4
REMARK VINA RESULT:      -7.0      1.972      3.384
REMARK  Name = 
REMARK  8 active torsions:
REMARK  status: ('A' for Active; 'I' for Inactive)
REMARK    1  A    between atoms: C_1  and  C_2
REMARK    2  A    between atoms: C_2  and  C_3
REMARK    3  A    between atoms: C_2  and  O_4
REMARK    4  A    between atoms: O_4  and  C_5
REMARK    5  A    between atoms: C_10  and  N_11
REMARK    6  A    between atoms: N_14  and  C_15
REMARK    7  A    between atoms: C_15  and  C_16
REMARK    8  A    between atoms: C_16  and  N_17
REMARK                            x       y       z     vdW  Elec       q    Type
REMARK                         _______ _______ _______ _____ _____    ______ ____
ROOT
ATOM      1  N   UNL     1       2.500   7.383  18.782  0.00  0.00    +0.000 N 
ATOM      2  C   UNL     1       2.473   8.630  18.019  0.00  0.00    +0.000 C 
ATOM      3  C   UNL     1       1.093   9.306  18.206  0.00  0.00    +0.000 C 
ATOM      4  N   UNL     1       0.643   9.537  19.604  0.00  0.00    +0.000 NA
ATOM      5  C   UNL     1       0.805   8.289  20.379  0.00  0.00    +0.000 C 
ATOM      6  C   UNL     1       2.160   7.556  20.206  0.00  0.00    +0.000 C 
ENDROOT
BRANCH   1  12
ATOM      7  C   UNL     1       3.929   5.686  17.630  0.00  0.00    +0.000 A 
ATOM      8  C   UNL     1       4.058   4.354  17.186  0.00  0.00    +0.000 A 
ATOM      9  C   UNL     1       2.967   3.487  17.172  0.00  0.00    +0.000 A 
ATOM     10  C   UNL     1       1.744   3.935  17.622  0.00  0.00    +0.000 A 
ATOM     11  C   UNL     1       1.619   5.232  18.130  0.00  0.00    +0.000 A 
ATOM     12  C   UNL     1       2.704   6.139  18.192  0.00  0.00    +0.000 A 
BRANCH   7  13
ATOM     13  O   UNL     1       5.019   6.533  17.571  0.00  0.00    +0.000 OA
BRANCH  13  15
ATOM     14  C   UNL     1       7.465   6.932  17.558  0.00  0.00    +0.000 C 
ATOM     15  C   UNL     1       6.318   5.951  17.822  0.00  0.00    +0.000 C 
ATOM     16  C   UNL     1       6.354   5.502  19.284  0.00  0.00    +0.000 C 
ENDBRANCH  13  15
ENDBRANCH   7  13
ENDBRANCH   1  12
BRANCH   4  17
ATOM     17  C   UNL     1       1.300  10.685  20.255  0.00  0.00    +0.000 C 
BRANCH  17  18
ATOM     18  C   UNL     1       0.702  11.974  19.689  0.00  0.00    +0.000 C 
BRANCH  18  19
ATOM     19  N   UNL     1      -0.320  12.622  20.472  0.00  0.00    +0.000 N 
ATOM     20  C   UNL     1      -1.630  12.452  20.049  0.00  0.00    +0.000 C 
ATOM     21  O   UNL     1      -1.949  12.241  18.880  0.00  0.00    +0.000 OA
ATOM     22  C   UNL     1      -2.645  12.373  21.152  0.00  0.00    +0.000 C 
ATOM     23  C   UNL     1      -2.370  13.343  22.301  0.00  0.00    +0.000 C 
ATOM     24  C   UNL     1      -3.314  12.984  23.479  0.00  0.00    +0.000 C 
ATOM     25  C   UNL     1      -4.144  14.228  23.743  0.00  0.00    +0.000 C 
ATOM     26  C   UNL     1      -4.165  14.959  22.413  0.00  0.00    +0.000 C 
ATOM     27  C   UNL     1      -2.740  14.787  21.910  0.00  0.00    +0.000 C 
ATOM     28  C   UNL     1      -0.916  13.231  22.752  0.00  0.00    +0.000 C 
ATOM     29  C   UNL     1       0.076  13.282  21.623  0.00  0.00    +0.000 C 
ATOM     30  O   UNL     1       1.198  13.771  21.779  0.00  0.00    +0.000 OA
ENDBRANCH  18  19
ENDBRANCH  17  18
ENDBRANCH   4  17
TORSDOF 6
ENDMDL
MODEL 5
REMARK VINA RESULT:      -7.0      2.569      4.557
REMARK  Name = 
REMARK  8 active torsions:
REMARK  status: ('A' for Active; 'I' for Inactive)
REMARK    1  A    between atoms: C_1  and  C_2
REMARK    2  A    between atoms: C_2  and  C_3
REMARK    3  A    between atoms: C_2  and  O_4
REMARK    4  A    between atoms: O_4  and  C_5
REMARK    5  A    between atoms: C_10  and  N_11
REMARK    6  A    between atoms: N_14  and  C_15
REMARK    7  A    between atoms: C_15  and  C_16
REMARK    8  A    between atoms: C_16  and  N_17
REMARK                            x       y       z     vdW  Elec       q    Type
REMARK                         _______ _______ _______ _____ _____    ______ ____
ROOT
ATOM      1  N   UNL     1       1.271   8.331  20.039  0.00  0.00    +0.000 N 
ATOM      2  C   UNL     1       0.985   8.008  21.436  0.00  0.00    +0.000 C 
ATOM      3  C   UNL     1       1.331   9.231  22.318  0.00  0.00    +0.000 C 
ATOM      4  N   UNL     1       0.710  10.528  21.942  0.00  0.00    +0.000 NA
ATOM      5  C   UNL     1       0.908  10.761  20.496  0.00  0.00    +0.000 C 
ATOM      6  C   UNL     1       0.602   9.558  19.569  0.00  0.00    +0.000 C 
ENDROOT
BRANCH   1  12
ATOM      7  C   UNL     1       2.561   6.263  19.482  0.00  0.00    +0.000 A 
ATOM      8  C   UNL     1       3.392   5.602  18.555  0.00  0.00    +0.000 A 
ATOM      9  C   UNL     1       3.964   6.282  17.482  0.00  0.00    +0.000 A 
ATOM     10  C   UNL     1       3.693   7.623  17.312  0.00  0.00    +0.000 A 
ATOM     11  C   UNL     1       2.815   8.274  18.184  0.00  0.00    +0.000 A 
ATOM     12  C   UNL     1       2.187   7.619  19.270  0.00  0.00    +0.000 A 
BRANCH   7  13
ATOM     13  O   UNL     1       2.061   5.568  20.567  0.00  0.00    +0.000 OA
BRANCH  13  15
ATOM     14  C   UNL     1       2.242   3.450  21.839  0.00  0.00    +0.000 C 
ATOM     15  C   UNL     1       2.053   4.126  20.477  0.00  0.00    +0.000 C 
ATOM     16  C   UNL     1       0.712   3.703  19.877  0.00  0.00    +0.000 C 
ENDBRANCH  13  15
ENDBRANCH   7  13
ENDBRANCH   1  12
BRANCH   4  17
ATOM     17  C   UNL     1      -0.707  10.640  22.334  0.00  0.00    +0.000 C 
BRANCH  17  18
ATOM     18  C   UNL     1      -1.136  12.102  22.198  0.00  0.00    +0.000 C 
BRANCH  18  19
ATOM     19  N   UNL     1      -2.513  12.353  21.854  0.00  0.00    +0.000 N 
ATOM     20  C   UNL     1      -3.421  12.383  22.902  0.00  0.00    +0.000 C 
ATOM     21  O   UNL     1      -3.270  11.767  23.955  0.00  0.00    +0.000 OA
ATOM     22  C   UNL     1      -4.543  13.366  22.738  0.00  0.00    +0.000 C 
ATOM     23  C   UNL     1      -5.078  13.444  21.308  0.00  0.00    +0.000 C 
ATOM     24  C   UNL     1      -6.031  14.664  21.209  0.00  0.00    +0.000 C 
ATOM     25  C   UNL     1      -7.380  14.108  20.786  0.00  0.00    +0.000 C 
ATOM     26  C   UNL     1      -7.369  12.672  21.281  0.00  0.00    +0.000 C 
ATOM     27  C   UNL     1      -5.950  12.219  20.973  0.00  0.00    +0.000 C 
ATOM     28  C   UNL     1      -3.926  13.609  20.321  0.00  0.00    +0.000 C 
ATOM     29  C   UNL     1      -2.803  12.631  20.529  0.00  0.00    +0.000 C 
ATOM     30  O   UNL     1      -2.127  12.220  19.581  0.00  0.00    +0.000 OA
ENDBRANCH  18  19
ENDBRANCH  17  18
ENDBRANCH   4  17
TORSDOF 6
ENDMDL
MODEL 6
REMARK VINA RESULT:      -6.9      1.471      2.409
REMARK  Name = 
REMARK  8 active torsions:
REMARK  status: ('A' for Active; 'I' for Inactive)
REMARK    1  A    between atoms: C_1  and  C_2
REMARK    2  A    between atoms: C_2  and  C_3
REMARK    3  A    between atoms: C_2  and  O_4
REMARK    4  A    between atoms: O_4  and  C_5
REMARK    5  A    between atoms: C_10  and  N_11
REMARK    6  A    between atoms: N_14  and  C_15
REMARK    7  A    between atoms: C_15  and  C_16
REMARK    8  A    between atoms: C_16  and  N_17
REMARK                            x       y       z     vdW  Elec       q    Type
REMARK                         _______ _______ _______ _____ _____    ______ ____
ROOT
ATOM      1  N   UNL     1       4.290   6.288  18.186  0.00  0.00    +0.000 N 
ATOM      2  C   UNL     1       3.660   7.545  17.787  0.00  0.00    +0.000 C 
ATOM      3  C   UNL     1       2.140   7.459  18.065  0.00  0.00    +0.000 C 
ATOM      4  N   UNL     1       1.730   7.083  19.443  0.00  0.00    +0.000 NA
ATOM      5  C   UNL     1       2.482   5.881  19.863  0.00  0.00    +0.000 C 
ATOM      6  C   UNL     1       4.005   5.904  19.581  0.00  0.00    +0.000 C 
ENDROOT
BRANCH   1  12
ATOM      7  C   UNL     1       4.497   4.255  16.747  0.00  0.00    +0.000 A 
ATOM      8  C   UNL     1       5.231   3.583  15.747  0.00  0.00    +0.000 A 
ATOM      9  C   UNL     1       6.496   4.021  15.361  0.00  0.00    +0.000 A 
ATOM     10  C   UNL     1       7.030   5.146  15.953  0.00  0.00    +0.000 A 
ATOM     11  C   UNL     1       6.284   5.861  16.895  0.00  0.00    +0.000 A 
ATOM     12  C   UNL     1       4.984   5.472  17.297  0.00  0.00    +0.000 A 
BRANCH   7  13
ATOM     13  O   UNL     1       3.272   3.755  17.145  0.00  0.00    +0.000 OA
BRANCH  13  15
ATOM     14  C   UNL     1       4.163   2.480  19.074  0.00  0.00    +0.000 C 
ATOM     15  C   UNL     1       3.272   2.481  17.827  0.00  0.00    +0.000 C 
ATOM     16  C   UNL     1       1.831   2.165  18.227  0.00  0.00    +0.000 C 
ENDBRANCH  13  15
ENDBRANCH   7  13
ENDBRANCH   1  12
BRANCH   4  17
ATOM     17  C   UNL     1       1.851   8.183  20.417  0.00  0.00    +0.000 C 
BRANCH  17  18
ATOM     18  C   UNL     1       0.507   8.907  20.505  0.00  0.00    +0.000 C 
BRANCH  18  19
ATOM     19  N   UNL     1       0.489  10.304  20.151  0.00  0.00    +0.000 N 
ATOM     20  C   UNL     1       0.644  11.211  21.189  0.00  0.00    +0.000 C 
ATOM     21  O   UNL     1       0.316  10.982  22.352  0.00  0.00    +0.000 OA
ATOM     22  C   UNL     1       1.406  12.454  20.833  0.00  0.00    +0.000 C 
ATOM     23  C   UNL     1       1.077  12.990  19.440  0.00  0.00    +0.000 C 
ATOM     24  C   UNL     1       2.105  14.097  19.087  0.00  0.00    +0.000 C 
ATOM     25  C   UNL     1       1.294  15.358  18.844  0.00  0.00    +0.000 C 
ATOM     26  C   UNL     1       0.028  15.157  19.657  0.00  0.00    +0.000 C 
ATOM     27  C   UNL     1      -0.295  13.689  19.423  0.00  0.00    +0.000 C 
ATOM     28  C   UNL     1       1.155  11.867  18.409  0.00  0.00    +0.000 C 
ATOM     29  C   UNL     1       0.409  10.624  18.806  0.00  0.00    +0.000 C 
ATOM     30  O   UNL     1      -0.120   9.896  17.961  0.00  0.00    +0.000 OA
ENDBRANCH  18  19
ENDBRANCH  17  18
ENDBRANCH   4  17
TORSDOF 6
ENDMDL
MODEL 7
REMARK VINA RESULT:      -6.9      1.884      3.965
REMARK  Name = 
REMARK  8 active torsions:
REMARK  status: ('A' for Active; 'I' for Inactive)
REMARK    1  A    between atoms: C_1  and  C_2
REMARK    2  A    between atoms: C_2  and  C_3
REMARK    3  A    between atoms: C_2  and  O_4
REMARK    4  A    between atoms: O_4  and  C_5
REMARK    5  A    between atoms: C_10  and  N_11
REMARK    6  A    between atoms: N_14  and  C_15
REMARK    7  A    between atoms: C_15  and  C_16
REMARK    8  A    between atoms: C_16  and  N_17
REMARK                            x       y       z     vdW  Elec       q    Type
REMARK                         _______ _______ _______ _____ _____    ______ ____
ROOT
ATOM      1  N   UNL     1       2.219   7.368  19.693  0.00  0.00    +0.000 N 
ATOM      2  C   UNL     1       2.505   8.054  18.434  0.00  0.00    +0.000 C 
ATOM      3  C   UNL     1       1.243   8.828  17.983  0.00  0.00    +0.000 C 
ATOM      4  N   UNL     1       0.644   9.767  18.967  0.00  0.00    +0.000 NA
ATOM      5  C   UNL     1       0.488   9.076  20.265  0.00  0.00    +0.000 C 
ATOM      6  C   UNL     1       1.714   8.263  20.750  0.00  0.00    +0.000 C 
ENDROOT
BRANCH   1  12
ATOM      7  C   UNL     1       3.385   5.175  19.412  0.00  0.00    +0.000 A 
ATOM      8  C   UNL     1       3.418   3.802  19.736  0.00  0.00    +0.000 A 
ATOM      9  C   UNL     1       2.341   3.182  20.366  0.00  0.00    +0.000 A 
ATOM     10  C   UNL     1       1.232   3.930  20.700  0.00  0.00    +0.000 A 
ATOM     11  C   UNL     1       1.216   5.305  20.447  0.00  0.00    +0.000 A 
ATOM     12  C   UNL     1       2.296   5.985  19.837  0.00  0.00    +0.000 A 
BRANCH   7  13
ATOM     13  O   UNL     1       4.447   5.740  18.733  0.00  0.00    +0.000 OA
BRANCH  13  15
ATOM     14  C   UNL     1       5.925   4.749  17.009  0.00  0.00    +0.000 C 
ATOM     15  C   UNL     1       5.600   4.901  18.499  0.00  0.00    +0.000 C 
ATOM     16  C   UNL     1       6.791   5.531  19.222  0.00  0.00    +0.000 C 
ENDBRANCH  13  15
ENDBRANCH   7  13
ENDBRANCH   1  12
BRANCH   4  17
ATOM     17  C   UNL     1       1.382  11.036  19.098  0.00  0.00    +0.000 C 
BRANCH  17  18
ATOM     18  C   UNL     1       0.399  12.193  18.915  0.00  0.00    +0.000 C 
BRANCH  18  19
ATOM     19  N   UNL     1      -0.588  12.387  19.947  0.00  0.00    +0.000 N 
ATOM     20  C   UNL     1      -0.137  12.911  21.149  0.00  0.00    +0.000 C 
ATOM     21  O   UNL     1       1.010  12.767  21.570  0.00  0.00    +0.000 OA
ATOM     22  C   UNL     1      -1.105  13.824  21.843  0.00  0.00    +0.000 C 
ATOM     23  C   UNL     1      -2.556  13.353  21.753  0.00  0.00    +0.000 C 
ATOM     24  C   UNL     1      -3.473  14.496  22.263  0.00  0.00    +0.000 C 
ATOM     25  C   UNL     1      -4.243  13.920  23.439  0.00  0.00    +0.000 C 
ATOM     26  C   UNL     1      -3.349  12.815  23.972  0.00  0.00    +0.000 C 
ATOM     27  C   UNL     1      -2.817  12.169  22.702  0.00  0.00    +0.000 C 
ATOM     28  C   UNL     1      -2.912  13.013  20.308  0.00  0.00    +0.000 C 
ATOM     29  C   UNL     1      -1.909  12.122  19.629  0.00  0.00    +0.000 C 
ATOM     30  O   UNL     1      -2.254  11.311  18.765  0.00  0.00    +0.000 OA
ENDBRANCH  18  19
ENDBRANCH  17  18
ENDBRANCH   4  17
TORSDOF 6
ENDMDL
MODEL 8
REMARK VINA RESULT:      -6.9      2.460      4.244
REMARK  Name = 
REMARK  8 active torsions:
REMARK  status: ('A' for Active; 'I' for Inactive)
REMARK    1  A    between atoms: C_1  and  C_2
REMARK    2  A    between atoms: C_2  and  C_3
REMARK    3  A    between atoms: C_2  and  O_4
REMARK    4  A    between atoms: O_4  and  C_5
REMARK    5  A    between atoms: C_10  and  N_11
REMARK    6  A    between atoms: N_14  and  C_15
REMARK    7  A    between atoms: C_15  and  C_16
REMARK    8  A    between atoms: C_16  and  N_17
REMARK                            x       y       z     vdW  Elec       q    Type
REMARK                         _______ _______ _______ _____ _____    ______ ____
ROOT
ATOM      1  N   UNL     1       1.297   8.299  20.090  0.00  0.00    +0.000 N 
ATOM      2  C   UNL     1       1.098   8.022  21.512  0.00  0.00    +0.000 C 
ATOM      3  C   UNL     1       1.443   9.291  22.327  0.00  0.00    +0.000 C 
ATOM      4  N   UNL     1       0.751  10.548  21.936  0.00  0.00    +0.000 NA
ATOM      5  C   UNL     1       0.863  10.730  20.474  0.00  0.00    +0.000 C 
ATOM      6  C   UNL     1       0.556   9.480  19.611  0.00  0.00    +0.000 C 
ENDROOT
BRANCH   1  12
ATOM      7  C   UNL     1       2.575   6.234  19.497  0.00  0.00    +0.000 A 
ATOM      8  C   UNL     1       3.388   5.578  18.550  0.00  0.00    +0.000 A 
ATOM      9  C   UNL     1       3.940   6.264  17.471  0.00  0.00    +0.000 A 
ATOM     10  C   UNL     1       3.666   7.606  17.314  0.00  0.00    +0.000 A 
ATOM     11  C   UNL     1       2.805   8.253  18.206  0.00  0.00    +0.000 A 
ATOM     12  C   UNL     1       2.197   7.591  19.300  0.00  0.00    +0.000 A 
BRANCH   7  13
ATOM     13  O   UNL     1       2.095   5.533  20.587  0.00  0.00    +0.000 OA
BRANCH  13  15
ATOM     14  C   UNL     1       2.252   3.397  21.833  0.00  0.00    +0.000 C 
ATOM     15  C   UNL     1       2.065   4.093  20.480  0.00  0.00    +0.000 C 
ATOM     16  C   UNL     1       0.715   3.696  19.883  0.00  0.00    +0.000 C 
ENDBRANCH  13  15
ENDBRANCH   7  13
ENDBRANCH   1  12
BRANCH   4  17
ATOM     17  C   UNL     1      -0.646  10.623  22.401  0.00  0.00    +0.000 C 
BRANCH  17  18
ATOM     18  C   UNL     1      -1.294  11.869  21.796  0.00  0.00    +0.000 C 
BRANCH  18  19
ATOM     19  N   UNL     1      -1.580  12.961  22.693  0.00  0.00    +0.000 N 
ATOM     20  C   UNL     1      -0.674  14.011  22.704  0.00  0.00    +0.000 C 
ATOM     21  O   UNL     1       0.518  13.888  22.424  0.00  0.00    +0.000 OA
ATOM     22  C   UNL     1      -1.280  15.367  22.922  0.00  0.00    +0.000 C 
ATOM     23  C   UNL     1      -2.410  15.369  23.950  0.00  0.00    +0.000 C 
ATOM     24  C   UNL     1      -3.122  16.746  23.890  0.00  0.00    +0.000 C 
ATOM     25  C   UNL     1      -2.991  17.345  25.279  0.00  0.00    +0.000 C 
ATOM     26  C   UNL     1      -1.741  16.702  25.853  0.00  0.00    +0.000 C 
ATOM     27  C   UNL     1      -1.857  15.260  25.384  0.00  0.00    +0.000 C 
ATOM     28  C   UNL     1      -3.409  14.257  23.640  0.00  0.00    +0.000 C 
ATOM     29  C   UNL     1      -2.771  12.918  23.397  0.00  0.00    +0.000 C 
ATOM     30  O   UNL     1      -3.348  11.869  23.701  0.00  0.00    +0.000 OA
ENDBRANCH  18  19
ENDBRANCH  17  18
ENDBRANCH   4  17
TORSDOF 6
ENDMDL
MODEL 9
REMARK VINA RESULT:      -6.8      1.831      3.645
REMARK  Name = 
REMARK  8 active torsions:
REMARK  status: ('A' for Active; 'I' for Inactive)
REMARK    1  A    between atoms: C_1  and  C_2
REMARK    2  A    between atoms: C_2  and  C_3
REMARK    3  A    between atoms: C_2  and  O_4
REMARK    4  A    between atoms: O_4  and  C_5
REMARK    5  A    between atoms: C_10  and  N_11
REMARK    6  A    between atoms: N_14  and  C_15
REMARK    7  A    between atoms: C_15  and  C_16
REMARK    8  A    between atoms: C_16  and  N_17
REMARK                            x       y       z     vdW  Elec       q    Type
REMARK                         _______ _______ _______ _____ _____    ______ ____
ROOT
ATOM      1  N   UNL     1       2.228   7.258  19.422  0.00  0.00    +0.000 N 
ATOM      2  C   UNL     1       2.594   8.012  18.224  0.00  0.00    +0.000 C 
ATOM      3  C   UNL     1       1.432   8.963  17.851  0.00  0.00    +0.000 C 
ATOM      4  N   UNL     1       0.945   9.878  18.916  0.00  0.00    +0.000 NA
ATOM      5  C   UNL     1       0.707   9.101  20.151  0.00  0.00    +0.000 C 
ATOM      6  C   UNL     1       1.828   8.112  20.556  0.00  0.00    +0.000 C 
ENDROOT
BRANCH   1  12
ATOM      7  C   UNL     1       2.780   4.991  18.526  0.00  0.00    +0.000 A 
ATOM      8  C   UNL     1       2.739   3.596  18.731  0.00  0.00    +0.000 A 
ATOM      9  C   UNL     1       1.982   3.038  19.759  0.00  0.00    +0.000 A 
ATOM     10  C   UNL     1       1.278   3.867  20.605  0.00  0.00    +0.000 A 
ATOM     11  C   UNL     1       1.365   5.255  20.456  0.00  0.00    +0.000 A 
ATOM     12  C   UNL     1       2.144   5.869  19.446  0.00  0.00    +0.000 A 
BRANCH   7  13
ATOM     13  O   UNL     1       3.493   5.503  17.460  0.00  0.00    +0.000 OA
BRANCH  13  15
ATOM     14  C   UNL     1       5.132   4.491  15.901  0.00  0.00    +0.000 C 
ATOM     15  C   UNL     1       4.855   5.048  17.301  0.00  0.00    +0.000 C 
ATOM     16  C   UNL     1       5.779   6.237  17.571  0.00  0.00    +0.000 C 
ENDBRANCH  13  15
ENDBRANCH   7  13
ENDBRANCH   1  12
BRANCH   4  17
ATOM     17  C   UNL     1       1.825  11.037  19.149  0.00  0.00    +0.000 C 
BRANCH  17  18
ATOM     18  C   UNL     1       1.021  12.316  18.911  0.00  0.00    +0.000 C 
BRANCH  18  19
ATOM     19  N   UNL     1       0.029  12.661  19.898  0.00  0.00    +0.000 N 
ATOM     20  C   UNL     1      -1.298  12.488  19.534  0.00  0.00    +0.000 C 
ATOM     21  O   UNL     1      -1.701  12.545  18.373  0.00  0.00    +0.000 OA
ATOM     22  C   UNL     1      -2.206  12.053  20.646  0.00  0.00    +0.000 C 
ATOM     23  C   UNL     1      -1.900  12.730  21.981  0.00  0.00    +0.000 C 
ATOM     24  C   UNL     1      -2.713  12.013  23.091  0.00  0.00    +0.000 C 
ATOM     25  C   UNL     1      -3.599  13.077  23.715  0.00  0.00    +0.000 C 
ATOM     26  C   UNL     1      -3.782  14.108  22.616  0.00  0.00    +0.000 C 
ATOM     27  C   UNL     1      -2.397  14.188  21.993  0.00  0.00    +0.000 C 
ATOM     28  C   UNL     1      -0.409  12.636  22.292  0.00  0.00    +0.000 C 
ATOM     29  C   UNL     1       0.477  13.049  21.150  0.00  0.00    +0.000 C 
ATOM     30  O   UNL     1       1.574  13.579  21.349  0.00  0.00    +0.000 OA
ENDBRANCH  18  19
ENDBRANCH  17  18
ENDBRANCH   4  17
TORSDOF 6
ENDMDL
