MODEL 1
REMARK VINA RESULT:      -6.9      0.000      0.000
REMARK  Name = 
REMARK  6 active torsions:
REMARK  status: ('A' for Active; 'I' for Inactive)
REMARK    1  A    between atoms: C_1  and  C_2
REMARK    2  A    between atoms: C_2  and  O_3
REMARK    3  A    between atoms: O_3  and  C_4
REMARK    4  A    between atoms: C_7  and  N_8
REMARK    5  A    between atoms: C_14  and  C_15
REMARK    6  A    between atoms: C_21  and  C_22
REMARK                            x       y       z     vdW  Elec       q    Type
REMARK                         _______ _______ _______ _____ _____    ______ ____
ROOT
ATOM      1  N   UNL     1       6.505   5.739  17.653  0.00  0.00    +0.000 N 
ATOM      2  C   UNL     1       6.721   4.923  16.535  0.00  0.00    +0.000 C 
ATOM      3  O   UNL     1       7.537   5.026  15.633  0.00  0.00    +0.000 OA
ATOM      4  C   UNL     1       5.763   3.892  16.696  0.00  0.00    +0.000 A 
ATOM      5  N   UNL     1       5.390   2.762  16.079  0.00  0.00    +0.000 N 
ATOM      6  N   UNL     1       4.316   2.202  16.691  0.00  0.00    +0.000 NA
ATOM      7  C   UNL     1       4.032   3.024  17.727  0.00  0.00    +0.000 A 
ATOM      8  C   UNL     1       4.962   4.076  17.785  0.00  0.00    +0.000 A 
ATOM      9  C   UNL     1       5.383   5.289  18.525  0.00  0.00    +0.000 C 
ATOM     10  H   UNL     1       5.791   2.313  15.260  0.00  0.00    +0.000 HD
ENDROOT
BRANCH   9  11
ATOM     11  C   UNL     1       4.245   6.289  18.596  0.00  0.00    +0.000 A 
ATOM     12  C   UNL     1       4.028   7.132  17.486  0.00  0.00    +0.000 A 
ATOM     13  C   UNL     1       2.996   8.076  17.481  0.00  0.00    +0.000 A 
ATOM     14  C   UNL     1       2.160   8.195  18.586  0.00  0.00    +0.000 A 
ATOM     15  C   UNL     1       2.353   7.360  19.679  0.00  0.00    +0.000 A 
ATOM     16  F   UNL     1       1.553   7.479  20.746  0.00  0.00    +0.000 F 
ATOM     17  C   UNL     1       3.366   6.405  19.689  0.00  0.00    +0.000 A 
ENDBRANCH   9  11
BRANCH   1  21
ATOM     18  C   UNL     1       8.489   9.389  18.270  0.00  0.00    +0.000 A 
ATOM     19  C   UNL     1       8.832   8.265  19.021  0.00  0.00    +0.000 A 
ATOM     20  C   UNL     1       8.163   7.057  18.830  0.00  0.00    +0.000 A 
ATOM     21  C   UNL     1       7.161   6.962  17.858  0.00  0.00    +0.000 A 
ATOM     22  C   UNL     1       6.820   8.083  17.100  0.00  0.00    +0.000 A 
ATOM     23  C   UNL     1       7.459   9.305  17.331  0.00  0.00    +0.000 A 
BRANCH  18  24
ATOM     24  O   UNL     1       9.210  10.517  18.549  0.00  0.00    +0.000 OA
BRANCH  24  26
ATOM     25  C   UNL     1      10.732  11.613  20.016  0.00  0.00    +0.000 C 
ATOM     26  C   UNL     1       9.479  10.759  19.929  0.00  0.00    +0.000 C 
ENDBRANCH  24  26
ENDBRANCH  18  24
ENDBRANCH   1  21
BRANCH   7  27
ATOM     27  C   UNL     1       2.841   2.786  18.609  0.00  0.00    +0.000 A 
ATOM     28  C   UNL     1       1.545   2.696  18.140  0.00  0.00    +0.000 A 
ATOM     29  C   UNL     1       0.594   2.538  19.193  0.00  0.00    +0.000 A 
ATOM     30  C   UNL     1       1.199   2.523  20.431  0.00  0.00    +0.000 A 
ATOM     31  S   UNL     1       2.896   2.625  20.308  0.00  0.00    +0.000 S 
ENDBRANCH   7  27
TORSDOF 5
ENDMDL
MODEL 2
REMARK VINA RESULT:      -6.9      7.055      9.992
REMARK  Name = 
REMARK  6 active torsions:
REMARK  status: ('A' for Active; 'I' for Inactive)
REMARK    1  A    between atoms: C_1  and  C_2
REMARK    2  A    between atoms: C_2  and  O_3
REMARK    3  A    between atoms: O_3  and  C_4
REMARK    4  A    between atoms: C_7  and  N_8
REMARK    5  A    between atoms: C_14  and  C_15
REMARK    6  A    between atoms: C_21  and  C_22
REMARK                            x       y       z     vdW  Elec       q    Type
REMARK                         _______ _______ _______ _____ _____    ______ ____
ROOT
ATOM      1  N   UNL     1      -0.468  10.637  19.570  0.00  0.00    +0.000 N 
ATOM      2  C   UNL     1      -1.704  10.694  18.911  0.00  0.00    +0.000 C 
ATOM      3  O   UNL     1      -2.197   9.925  18.102  0.00  0.00    +0.000 OA
ATOM      4  C   UNL     1      -2.292  11.874  19.426  0.00  0.00    +0.000 A 
ATOM      5  N   UNL     1      -3.442  12.554  19.315  0.00  0.00    +0.000 N 
ATOM      6  N   UNL     1      -3.402  13.704  20.035  0.00  0.00    +0.000 NA
ATOM      7  C   UNL     1      -2.180  13.716  20.614  0.00  0.00    +0.000 A 
ATOM      8  C   UNL     1      -1.473  12.546  20.286  0.00  0.00    +0.000 A 
ATOM      9  C   UNL     1      -0.212  11.791  20.478  0.00  0.00    +0.000 C 
ATOM     10  H   UNL     1      -4.278  12.323  18.785  0.00  0.00    +0.000 HD
ENDROOT
BRANCH   9  11
ATOM     11  C   UNL     1       0.978  12.631  20.053  0.00  0.00    +0.000 A 
ATOM     12  C   UNL     1       1.045  13.062  18.711  0.00  0.00    +0.000 A 
ATOM     13  C   UNL     1       2.111  13.839  18.249  0.00  0.00    +0.000 A 
ATOM     14  C   UNL     1       3.132  14.203  19.121  0.00  0.00    +0.000 A 
ATOM     15  C   UNL     1       3.070  13.799  20.448  0.00  0.00    +0.000 A 
ATOM     16  F   UNL     1       4.056  14.143  21.286  0.00  0.00    +0.000 F 
ATOM     17  C   UNL     1       2.004  13.039  20.924  0.00  0.00    +0.000 A 
ENDBRANCH   9  11
BRANCH   1  21
ATOM     18  C   UNL     1       2.495   7.787  18.712  0.00  0.00    +0.000 A 
ATOM     19  C   UNL     1       2.024   8.637  17.712  0.00  0.00    +0.000 A 
ATOM     20  C   UNL     1       1.027   9.572  17.990  0.00  0.00    +0.000 A 
ATOM     21  C   UNL     1       0.518   9.680  19.288  0.00  0.00    +0.000 A 
ATOM     22  C   UNL     1       0.992   8.837  20.294  0.00  0.00    +0.000 A 
ATOM     23  C   UNL     1       1.954   7.866  19.997  0.00  0.00    +0.000 A 
BRANCH  18  24
ATOM     24  O   UNL     1       3.468   6.910  18.320  0.00  0.00    +0.000 OA
BRANCH  24  26
ATOM     25  C   UNL     1       2.291   4.882  17.904  0.00  0.00    +0.000 C 
ATOM     26  C   UNL     1       3.320   5.568  18.784  0.00  0.00    +0.000 C 
ENDBRANCH  24  26
ENDBRANCH  18  24
ENDBRANCH   1  21
BRANCH   7  27
ATOM     27  C   UNL     1      -1.716  14.882  21.436  0.00  0.00    +0.000 A 
ATOM     28  C   UNL     1      -0.675  15.714  21.070  0.00  0.00    +0.000 A 
ATOM     29  C   UNL     1      -0.393  16.701  22.063  0.00  0.00    +0.000 A 
ATOM     30  C   UNL     1      -1.223  16.581  23.155  0.00  0.00    +0.000 A 
ATOM     31  S   UNL     1      -2.371  15.339  22.946  0.00  0.00    +0.000 S 
ENDBRANCH   7  27
TORSDOF 5
ENDMDL
MODEL 3
REMARK VINA RESULT:      -6.8      7.221     10.155
REMARK  Name = 
REMARK  6 active torsions:
REMARK  status: ('A' for Active; 'I' for Inactive)
REMARK    1  A    between atoms: C_1  and  C_2
REMARK    2  A    between atoms: C_2  and  O_3
REMARK    3  A    between atoms: O_3  and  C_4
REMARK    4  A    between atoms: C_7  and  N_8
REMARK    5  A    between atoms: C_14  and  C_15
REMARK    6  A    between atoms: C_21  and  C_22
REMARK                            x       y       z     vdW  Elec       q    Type
REMARK                         _______ _______ _______ _____ _____    ______ ____
ROOT
ATOM      1  N   UNL     1      -0.431  10.843  19.749  0.00  0.00    +0.000 N 
ATOM      2  C   UNL     1      -1.702  10.960  19.171  0.00  0.00    +0.000 C 
ATOM      3  O   UNL     1      -2.290  10.208  18.411  0.00  0.00    +0.000 OA
ATOM      4  C   UNL     1      -2.188  12.181  19.700  0.00  0.00    +0.000 A 
ATOM      5  N   UNL     1      -3.303  12.923  19.650  0.00  0.00    +0.000 N 
ATOM      6  N   UNL     1      -3.152  14.080  20.343  0.00  0.00    +0.000 NA
ATOM      7  C   UNL     1      -1.895  14.031  20.841  0.00  0.00    +0.000 A 
ATOM      8  C   UNL     1      -1.277  12.818  20.491  0.00  0.00    +0.000 A 
ATOM      9  C   UNL     1      -0.051  11.996  20.616  0.00  0.00    +0.000 C 
ATOM     10  H   UNL     1      -4.184  12.732  19.180  0.00  0.00    +0.000 HD
ENDROOT
BRANCH   9  11
ATOM     11  C   UNL     1       1.153  12.759  20.098  0.00  0.00    +0.000 A 
ATOM     12  C   UNL     1       1.189  13.100  18.729  0.00  0.00    +0.000 A 
ATOM     13  C   UNL     1       2.266  13.804  18.183  0.00  0.00    +0.000 A 
ATOM     14  C   UNL     1       3.330  14.182  18.996  0.00  0.00    +0.000 A 
ATOM     15  C   UNL     1       3.300  13.867  20.348  0.00  0.00    +0.000 A 
ATOM     16  F   UNL     1       4.327  14.225  21.129  0.00  0.00    +0.000 F 
ATOM     17  C   UNL     1       2.224  13.181  20.906  0.00  0.00    +0.000 A 
ENDBRANCH   9  11
BRANCH   1  21
ATOM     18  C   UNL     1       2.284   7.788  18.784  0.00  0.00    +0.000 A 
ATOM     19  C   UNL     1       1.814   7.926  20.090  0.00  0.00    +0.000 A 
ATOM     20  C   UNL     1       0.927   8.951  20.417  0.00  0.00    +0.000 A 
ATOM     21  C   UNL     1       0.479   9.827  19.423  0.00  0.00    +0.000 A 
ATOM     22  C   UNL     1       0.940   9.687  18.113  0.00  0.00    +0.000 A 
ATOM     23  C   UNL     1       1.870   8.690  17.802  0.00  0.00    +0.000 A 
BRANCH  18  24
ATOM     24  O   UNL     1       3.153   6.751  18.585  0.00  0.00    +0.000 OA
BRANCH  24  26
ATOM     25  C   UNL     1       1.944   4.797  17.961  0.00  0.00    +0.000 C 
ATOM     26  C   UNL     1       2.725   5.478  19.070  0.00  0.00    +0.000 C 
ENDBRANCH  24  26
ENDBRANCH  18  24
ENDBRANCH   1  21
BRANCH   7  27
ATOM     27  C   UNL     1      -1.313  15.182  21.609  0.00  0.00    +0.000 A 
ATOM     28  C   UNL     1      -0.532  15.035  22.739  0.00  0.00    +0.000 A 
ATOM     29  C   UNL     1      -0.167  16.289  23.315  0.00  0.00    +0.000 A 
ATOM     30  C   UNL     1      -0.690  17.349  22.609  0.00  0.00    +0.000 A 
ATOM     31  S   UNL     1      -1.547  16.831  21.230  0.00  0.00    +0.000 S 
ENDBRANCH   7  27
TORSDOF 5
ENDMDL
MODEL 4
REMARK VINA RESULT:      -6.8      7.164     10.109
REMARK  Name = 
REMARK  6 active torsions:
REMARK  status: ('A' for Active; 'I' for Inactive)
REMARK    1  A    between atoms: C_1  and  C_2
REMARK    2  A    between atoms: C_2  and  O_3
REMARK    3  A    between atoms: O_3  and  C_4
REMARK    4  A    between atoms: C_7  and  N_8
REMARK    5  A    between atoms: C_14  and  C_15
REMARK    6  A    between atoms: C_21  and  C_22
REMARK                            x       y       z     vdW  Elec       q    Type
REMARK                         _______ _______ _______ _____ _____    ______ ____
ROOT
ATOM      1  N   UNL     1      -0.498  10.745  19.672  0.00  0.00    +0.000 N 
ATOM      2  C   UNL     1      -1.736  10.846  19.023  0.00  0.00    +0.000 C 
ATOM      3  O   UNL     1      -2.251  10.109  18.198  0.00  0.00    +0.000 OA
ATOM      4  C   UNL     1      -2.295  12.025  19.572  0.00  0.00    +0.000 A 
ATOM      5  N   UNL     1      -3.430  12.733  19.486  0.00  0.00    +0.000 N 
ATOM      6  N   UNL     1      -3.361  13.862  20.235  0.00  0.00    +0.000 NA
ATOM      7  C   UNL     1      -2.134  13.832  20.806  0.00  0.00    +0.000 A 
ATOM      8  C   UNL     1      -1.455  12.656  20.444  0.00  0.00    +0.000 A 
ATOM      9  C   UNL     1      -0.210  11.869  20.608  0.00  0.00    +0.000 C 
ATOM     10  H   UNL     1      -4.274  12.534  18.956  0.00  0.00    +0.000 HD
ENDROOT
BRANCH   9  11
ATOM     11  C   UNL     1       0.995  12.693  20.197  0.00  0.00    +0.000 A 
ATOM     12  C   UNL     1       1.963  12.995  21.179  0.00  0.00    +0.000 A 
ATOM     13  C   UNL     1       3.100  13.748  20.871  0.00  0.00    +0.000 A 
ATOM     14  C   UNL     1       3.292  14.214  19.575  0.00  0.00    +0.000 A 
ATOM     15  C   UNL     1       2.356  13.911  18.596  0.00  0.00    +0.000 A 
ATOM     16  F   UNL     1       2.538  14.365  17.349  0.00  0.00    +0.000 F 
ATOM     17  C   UNL     1       1.229  13.147  18.886  0.00  0.00    +0.000 A 
ENDBRANCH   9  11
BRANCH   1  21
ATOM     18  C   UNL     1       2.376   7.825  18.747  0.00  0.00    +0.000 A 
ATOM     19  C   UNL     1       1.893   7.951  20.050  0.00  0.00    +0.000 A 
ATOM     20  C   UNL     1       0.952   8.932  20.362  0.00  0.00    +0.000 A 
ATOM     21  C   UNL     1       0.465   9.774  19.358  0.00  0.00    +0.000 A 
ATOM     22  C   UNL     1       0.939   9.646  18.052  0.00  0.00    +0.000 A 
ATOM     23  C   UNL     1       1.921   8.696  17.755  0.00  0.00    +0.000 A 
BRANCH  18  24
ATOM     24  O   UNL     1       3.298   6.832  18.561  0.00  0.00    +0.000 OA
BRANCH  24  26
ATOM     25  C   UNL     1       2.066   4.891  17.943  0.00  0.00    +0.000 C 
ATOM     26  C   UNL     1       2.918   5.536  19.021  0.00  0.00    +0.000 C 
ENDBRANCH  24  26
ENDBRANCH  18  24
ENDBRANCH   1  21
BRANCH   7  27
ATOM     27  C   UNL     1      -1.640  14.966  21.656  0.00  0.00    +0.000 A 
ATOM     28  C   UNL     1      -0.526  15.725  21.351  0.00  0.00    +0.000 A 
ATOM     29  C   UNL     1      -0.234  16.693  22.359  0.00  0.00    +0.000 A 
ATOM     30  C   UNL     1      -1.131  16.632  23.403  0.00  0.00    +0.000 A 
ATOM     31  S   UNL     1      -2.347  15.470  23.127  0.00  0.00    +0.000 S 
ENDBRANCH   7  27
TORSDOF 5
ENDMDL
MODEL 5
REMARK VINA RESULT:      -6.7      9.973     12.421
REMARK  Name = 
REMARK  6 active torsions:
REMARK  status: ('A' for Active; 'I' for Inactive)
REMARK    1  A    between atoms: C_1  and  C_2
REMARK    2  A    between atoms: C_2  and  O_3
REMARK    3  A    between atoms: O_3  and  C_4
REMARK    4  A    between atoms: C_7  and  N_8
REMARK    5  A    between atoms: C_14  and  C_15
REMARK    6  A    between atoms: C_21  and  C_22
REMARK                            x       y       z     vdW  Elec       q    Type
REMARK                         _______ _______ _______ _____ _____    ______ ____
ROOT
ATOM      1  N   UNL     1      -4.581  13.804  21.721  0.00  0.00    +0.000 N 
ATOM      2  C   UNL     1      -5.805  13.138  21.873  0.00  0.00    +0.000 C 
ATOM      3  O   UNL     1      -6.652  13.243  22.745  0.00  0.00    +0.000 OA
ATOM      4  C   UNL     1      -5.859  12.297  20.735  0.00  0.00    +0.000 A 
ATOM      5  N   UNL     1      -6.704  11.419  20.175  0.00  0.00    +0.000 N 
ATOM      6  N   UNL     1      -6.157  10.851  19.071  0.00  0.00    +0.000 NA
ATOM      7  C   UNL     1      -4.934  11.416  18.952  0.00  0.00    +0.000 A 
ATOM      8  C   UNL     1      -4.737  12.372  19.964  0.00  0.00    +0.000 A 
ATOM      9  C   UNL     1      -3.804  13.378  20.523  0.00  0.00    +0.000 C 
ATOM     10  H   UNL     1      -7.638  11.147  20.468  0.00  0.00    +0.000 HD
ENDROOT
BRANCH   9  11
ATOM     11  C   UNL     1      -2.476  12.733  20.872  0.00  0.00    +0.000 A 
ATOM     12  C   UNL     1      -1.372  12.980  20.027  0.00  0.00    +0.000 A 
ATOM     13  C   UNL     1      -0.118  12.420  20.289  0.00  0.00    +0.000 A 
ATOM     14  C   UNL     1       0.058  11.602  21.400  0.00  0.00    +0.000 A 
ATOM     15  C   UNL     1      -1.015  11.365  22.248  0.00  0.00    +0.000 A 
ATOM     16  F   UNL     1      -0.848  10.573  23.315  0.00  0.00    +0.000 F 
ATOM     17  C   UNL     1      -2.265  11.931  22.008  0.00  0.00    +0.000 A 
ENDBRANCH   9  11
BRANCH   1  21
ATOM     18  C   UNL     1      -2.964  16.381  24.616  0.00  0.00    +0.000 A 
ATOM     19  C   UNL     1      -3.294  15.067  24.948  0.00  0.00    +0.000 A 
ATOM     20  C   UNL     1      -3.848  14.215  23.993  0.00  0.00    +0.000 A 
ATOM     21  C   UNL     1      -4.045  14.670  22.686  0.00  0.00    +0.000 A 
ATOM     22  C   UNL     1      -3.708  15.982  22.347  0.00  0.00    +0.000 A 
ATOM     23  C   UNL     1      -3.201  16.847  23.322  0.00  0.00    +0.000 A 
BRANCH  18  24
ATOM     24  O   UNL     1      -2.433  17.122  25.635  0.00  0.00    +0.000 OA
BRANCH  24  26
ATOM     25  C   UNL     1      -0.066  16.989  25.412  0.00  0.00    +0.000 C 
ATOM     26  C   UNL     1      -1.264  16.585  26.253  0.00  0.00    +0.000 C 
ENDBRANCH  24  26
ENDBRANCH  18  24
ENDBRANCH   1  21
BRANCH   7  27
ATOM     27  C   UNL     1      -3.973  10.983  17.883  0.00  0.00    +0.000 A 
ATOM     28  C   UNL     1      -2.793  10.311  18.138  0.00  0.00    +0.000 A 
ATOM     29  C   UNL     1      -2.032  10.080  16.952  0.00  0.00    +0.000 A 
ATOM     30  C   UNL     1      -2.655  10.591  15.835  0.00  0.00    +0.000 A 
ATOM     31  S   UNL     1      -4.170  11.275  16.212  0.00  0.00    +0.000 S 
ENDBRANCH   7  27
TORSDOF 5
ENDMDL
MODEL 6
REMARK VINA RESULT:      -6.7      7.043      9.845
REMARK  Name = 
REMARK  6 active torsions:
REMARK  status: ('A' for Active; 'I' for Inactive)
REMARK    1  A    between atoms: C_1  and  C_2
REMARK    2  A    between atoms: C_2  and  O_3
REMARK    3  A    between atoms: O_3  and  C_4
REMARK    4  A    between atoms: C_7  and  N_8
REMARK    5  A    between atoms: C_14  and  C_15
REMARK    6  A    between atoms: C_21  and  C_22
REMARK                            x       y       z     vdW  Elec       q    Type
REMARK                         _______ _______ _______ _____ _____    ______ ____
ROOT
ATOM      1  N   UNL     1      -0.382  10.678  19.620  0.00  0.00    +0.000 N 
ATOM      2  C   UNL     1      -1.639  10.739  19.003  0.00  0.00    +0.000 C 
ATOM      3  O   UNL     1      -2.168   9.962  18.225  0.00  0.00    +0.000 OA
ATOM      4  C   UNL     1      -2.196  11.934  19.519  0.00  0.00    +0.000 A 
ATOM      5  N   UNL     1      -3.342  12.625  19.436  0.00  0.00    +0.000 N 
ATOM      6  N   UNL     1      -3.265  13.785  20.135  0.00  0.00    +0.000 NA
ATOM      7  C   UNL     1      -2.023  13.793  20.671  0.00  0.00    +0.000 A 
ATOM      8  C   UNL     1      -1.340  12.610  20.339  0.00  0.00    +0.000 A 
ATOM      9  C   UNL     1      -0.081  11.845  20.499  0.00  0.00    +0.000 C 
ATOM     10  H   UNL     1      -4.198  12.395  18.940  0.00  0.00    +0.000 HD
ENDROOT
BRANCH   9  11
ATOM     11  C   UNL     1       1.101  12.664  20.020  0.00  0.00    +0.000 A 
ATOM     12  C   UNL     1       1.138  13.052  18.663  0.00  0.00    +0.000 A 
ATOM     13  C   UNL     1       2.196  13.810  18.152  0.00  0.00    +0.000 A 
ATOM     14  C   UNL     1       3.240  14.194  18.987  0.00  0.00    +0.000 A 
ATOM     15  C   UNL     1       3.209  13.832  20.327  0.00  0.00    +0.000 A 
ATOM     16  F   UNL     1       4.217  14.196  21.130  0.00  0.00    +0.000 F 
ATOM     17  C   UNL     1       2.151  13.093  20.852  0.00  0.00    +0.000 A 
ENDBRANCH   9  11
BRANCH   1  21
ATOM     18  C   UNL     1       2.499   7.754  18.733  0.00  0.00    +0.000 A 
ATOM     19  C   UNL     1       1.958   7.844  20.015  0.00  0.00    +0.000 A 
ATOM     20  C   UNL     1       1.015   8.826  20.317  0.00  0.00    +0.000 A 
ATOM     21  C   UNL     1       0.584   9.706  19.319  0.00  0.00    +0.000 A 
ATOM     22  C   UNL     1       1.116   9.614  18.033  0.00  0.00    +0.000 A 
ATOM     23  C   UNL     1       2.100   8.661  17.750  0.00  0.00    +0.000 A 
BRANCH  18  24
ATOM     24  O   UNL     1       3.417   6.756  18.557  0.00  0.00    +0.000 OA
BRANCH  24  26
ATOM     25  C   UNL     1       5.451   6.671  17.322  0.00  0.00    +0.000 C 
ATOM     26  C   UNL     1       3.936   6.613  17.236  0.00  0.00    +0.000 C 
ENDBRANCH  24  26
ENDBRANCH  18  24
ENDBRANCH   1  21
BRANCH   7  27
ATOM     27  C   UNL     1      -1.518  14.967  21.458  0.00  0.00    +0.000 A 
ATOM     28  C   UNL     1      -0.496  15.794  21.033  0.00  0.00    +0.000 A 
ATOM     29  C   UNL     1      -0.164  16.790  22.000  0.00  0.00    +0.000 A 
ATOM     30  C   UNL     1      -0.940  16.683  23.133  0.00  0.00    +0.000 A 
ATOM     31  S   UNL     1      -2.099  15.441  22.993  0.00  0.00    +0.000 S 
ENDBRANCH   7  27
TORSDOF 5
ENDMDL
MODEL 7
REMARK VINA RESULT:      -6.6      7.116     10.006
REMARK  Name = 
REMARK  6 active torsions:
REMARK  status: ('A' for Active; 'I' for Inactive)
REMARK    1  A    between atoms: C_1  and  C_2
REMARK    2  A    between atoms: C_2  and  O_3
REMARK    3  A    between atoms: O_3  and  C_4
REMARK    4  A    between atoms: C_7  and  N_8
REMARK    5  A    between atoms: C_14  and  C_15
REMARK    6  A    between atoms: C_21  and  C_22
REMARK                            x       y       z     vdW  Elec       q    Type
REMARK                         _______ _______ _______ _____ _____    ______ ____
ROOT
ATOM      1  N   UNL     1      -0.483  10.707  19.676  0.00  0.00    +0.000 N 
ATOM      2  C   UNL     1      -1.717  10.797  19.018  0.00  0.00    +0.000 C 
ATOM      3  O   UNL     1      -2.226  10.049  18.199  0.00  0.00    +0.000 OA
ATOM      4  C   UNL     1      -2.282  11.982  19.550  0.00  0.00    +0.000 A 
ATOM      5  N   UNL     1      -3.419  12.686  19.448  0.00  0.00    +0.000 N 
ATOM      6  N   UNL     1      -3.356  13.825  20.184  0.00  0.00    +0.000 NA
ATOM      7  C   UNL     1      -2.133  13.805  20.762  0.00  0.00    +0.000 A 
ATOM      8  C   UNL     1      -1.450  12.626  20.418  0.00  0.00    +0.000 A 
ATOM      9  C   UNL     1      -0.204  11.844  20.599  0.00  0.00    +0.000 C 
ATOM     10  H   UNL     1      -4.259  12.479  18.916  0.00  0.00    +0.000 HD
ENDROOT
BRANCH   9  11
ATOM     11  C   UNL     1       1.002  12.666  20.185  0.00  0.00    +0.000 A 
ATOM     12  C   UNL     1       1.948  13.007  21.175  0.00  0.00    +0.000 A 
ATOM     13  C   UNL     1       3.084  13.761  20.865  0.00  0.00    +0.000 A 
ATOM     14  C   UNL     1       3.298  14.188  19.559  0.00  0.00    +0.000 A 
ATOM     15  C   UNL     1       2.383  13.845  18.572  0.00  0.00    +0.000 A 
ATOM     16  F   UNL     1       2.584  14.262  17.315  0.00  0.00    +0.000 F 
ATOM     17  C   UNL     1       1.257  13.080  18.865  0.00  0.00    +0.000 A 
ENDBRANCH   9  11
BRANCH   1  21
ATOM     18  C   UNL     1       2.423   7.812  18.777  0.00  0.00    +0.000 A 
ATOM     19  C   UNL     1       1.939   8.658  17.779  0.00  0.00    +0.000 A 
ATOM     20  C   UNL     1       0.961   9.608  18.072  0.00  0.00    +0.000 A 
ATOM     21  C   UNL     1       0.484   9.735  19.380  0.00  0.00    +0.000 A 
ATOM     22  C   UNL     1       0.971   8.896  20.383  0.00  0.00    +0.000 A 
ATOM     23  C   UNL     1       1.914   7.911  20.073  0.00  0.00    +0.000 A 
BRANCH  18  24
ATOM     24  O   UNL     1       3.375   6.918  18.371  0.00  0.00    +0.000 OA
BRANCH  24  26
ATOM     25  C   UNL     1       5.001   5.268  18.922  0.00  0.00    +0.000 C 
ATOM     26  C   UNL     1       3.636   5.836  19.264  0.00  0.00    +0.000 C 
ENDBRANCH  24  26
ENDBRANCH  18  24
ENDBRANCH   1  21
BRANCH   7  27
ATOM     27  C   UNL     1      -1.647  14.950  21.600  0.00  0.00    +0.000 A 
ATOM     28  C   UNL     1      -0.645  15.817  21.208  0.00  0.00    +0.000 A 
ATOM     29  C   UNL     1      -0.326  16.773  22.219  0.00  0.00    +0.000 A 
ATOM     30  C   UNL     1      -1.091  16.597  23.351  0.00  0.00    +0.000 A 
ATOM     31  S   UNL     1      -2.225  15.339  23.160  0.00  0.00    +0.000 S 
ENDBRANCH   7  27
TORSDOF 5
ENDMDL
MODEL 8
REMARK VINA RESULT:      -6.6      9.397     11.817
REMARK  Name = 
REMARK  6 active torsions:
REMARK  status: ('A' for Active; 'I' for Inactive)
REMARK    1  A    between atoms: C_1  and  C_2
REMARK    2  A    between atoms: C_2  and  O_3
REMARK    3  A    between atoms: O_3  and  C_4
REMARK    4  A    between atoms: C_7  and  N_8
REMARK    5  A    between atoms: C_14  and  C_15
REMARK    6  A    between atoms: C_21  and  C_22
REMARK                            x       y       z     vdW  Elec       q    Type
REMARK                         _______ _______ _______ _____ _____    ______ ____
ROOT
ATOM      1  N   UNL     1      -3.112  14.149  21.782  0.00  0.00    +0.000 N 
ATOM      2  C   UNL     1      -4.458  13.858  22.040  0.00  0.00    +0.000 C 
ATOM      3  O   UNL     1      -5.177  14.220  22.957  0.00  0.00    +0.000 OA
ATOM      4  C   UNL     1      -4.829  13.039  20.946  0.00  0.00    +0.000 A 
ATOM      5  N   UNL     1      -5.923  12.422  20.480  0.00  0.00    +0.000 N 
ATOM      6  N   UNL     1      -5.640  11.695  19.369  0.00  0.00    +0.000 NA
ATOM      7  C   UNL     1      -4.319  11.889  19.148  0.00  0.00    +0.000 A 
ATOM      8  C   UNL     1      -3.789  12.775  20.102  0.00  0.00    +0.000 A 
ATOM      9  C   UNL     1      -2.574  13.491  20.557  0.00  0.00    +0.000 C 
ATOM     10  H   UNL     1      -6.873  12.432  20.842  0.00  0.00    +0.000 HD
ENDROOT
BRANCH   9  11
ATOM     11  C   UNL     1      -1.458  12.507  20.850  0.00  0.00    +0.000 A 
ATOM     12  C   UNL     1      -0.268  12.604  20.098  0.00  0.00    +0.000 A 
ATOM     13  C   UNL     1       0.803  11.732  20.315  0.00  0.00    +0.000 A 
ATOM     14  C   UNL     1       0.705  10.744  21.289  0.00  0.00    +0.000 A 
ATOM     15  C   UNL     1      -0.454  10.647  22.047  0.00  0.00    +0.000 A 
ATOM     16  F   UNL     1      -0.551   9.691  22.980  0.00  0.00    +0.000 F 
ATOM     17  C   UNL     1      -1.520  11.521  21.852  0.00  0.00    +0.000 A 
ENDBRANCH   9  11
BRANCH   1  21
ATOM     18  C   UNL     1      -0.646  16.272  24.436  0.00  0.00    +0.000 A 
ATOM     19  C   UNL     1      -0.789  16.697  23.115  0.00  0.00    +0.000 A 
ATOM     20  C   UNL     1      -1.593  15.982  22.227  0.00  0.00    +0.000 A 
ATOM     21  C   UNL     1      -2.286  14.852  22.671  0.00  0.00    +0.000 A 
ATOM     22  C   UNL     1      -2.151  14.429  23.995  0.00  0.00    +0.000 A 
ATOM     23  C   UNL     1      -1.303  15.118  24.866  0.00  0.00    +0.000 A 
BRANCH  18  24
ATOM     24  O   UNL     1       0.171  17.048  25.211  0.00  0.00    +0.000 OA
BRANCH  24  26
ATOM     25  C   UNL     1      -1.071  18.577  26.549  0.00  0.00    +0.000 C 
ATOM     26  C   UNL     1      -0.276  17.284  26.546  0.00  0.00    +0.000 C 
ENDBRANCH  24  26
ENDBRANCH  18  24
ENDBRANCH   1  21
BRANCH   7  27
ATOM     27  C   UNL     1      -3.598  11.176  18.041  0.00  0.00    +0.000 A 
ATOM     28  C   UNL     1      -2.455  10.424  18.229  0.00  0.00    +0.000 A 
ATOM     29  C   UNL     1      -1.933   9.912  17.003  0.00  0.00    +0.000 A 
ATOM     30  C   UNL     1      -2.692  10.301  15.921  0.00  0.00    +0.000 A 
ATOM     31  S   UNL     1      -4.054  11.209  16.396  0.00  0.00    +0.000 S 
ENDBRANCH   7  27
TORSDOF 5
ENDMDL
MODEL 9
REMARK VINA RESULT:      -6.4      9.249     11.977
REMARK  Name = 
REMARK  6 active torsions:
REMARK  status: ('A' for Active; 'I' for Inactive)
REMARK    1  A    between atoms: C_1  and  C_2
REMARK    2  A    between atoms: C_2  and  O_3
REMARK    3  A    between atoms: O_3  and  C_4
REMARK    4  A    between atoms: C_7  and  N_8
REMARK    5  A    between atoms: C_14  and  C_15
REMARK    6  A    between atoms: C_21  and  C_22
REMARK                            x       y       z     vdW  Elec       q    Type
REMARK                         _______ _______ _______ _____ _____    ______ ____
ROOT
ATOM      1  N   UNL     1       7.443  15.120  21.880  0.00  0.00    +0.000 N 
ATOM      2  C   UNL     1       6.358  15.837  21.360  0.00  0.00    +0.000 C 
ATOM      3  O   UNL     1       5.186  15.845  21.702  0.00  0.00    +0.000 OA
ATOM      4  C   UNL     1       6.942  16.604  20.322  0.00  0.00    +0.000 A 
ATOM      5  N   UNL     1       6.571  17.529  19.426  0.00  0.00    +0.000 N 
ATOM      6  N   UNL     1       7.603  17.863  18.611  0.00  0.00    +0.000 NA
ATOM      7  C   UNL     1       8.646  17.115  19.039  0.00  0.00    +0.000 A 
ATOM      8  C   UNL     1       8.271  16.344  20.153  0.00  0.00    +0.000 A 
ATOM      9  C   UNL     1       8.730  15.366  21.167  0.00  0.00    +0.000 C 
ATOM     10  H   UNL     1       5.665  17.972  19.295  0.00  0.00    +0.000 HD
ENDROOT
BRANCH   9  11
ATOM     11  C   UNL     1       9.284  14.125  20.493  0.00  0.00    +0.000 A 
ATOM     12  C   UNL     1       8.573  13.586  19.400  0.00  0.00    +0.000 A 
ATOM     13  C   UNL     1       9.026  12.445  18.730  0.00  0.00    +0.000 A 
ATOM     14  C   UNL     1      10.200  11.821  19.140  0.00  0.00    +0.000 A 
ATOM     15  C   UNL     1      10.918  12.351  20.204  0.00  0.00    +0.000 A 
ATOM     16  F   UNL     1      12.044  11.746  20.603  0.00  0.00    +0.000 F 
ATOM     17  C   UNL     1      10.485  13.497  20.868  0.00  0.00    +0.000 A 
ENDBRANCH   9  11
BRANCH   1  21
ATOM     18  C   UNL     1       7.071  12.148  24.824  0.00  0.00    +0.000 A 
ATOM     19  C   UNL     1       6.402  12.022  23.606  0.00  0.00    +0.000 A 
ATOM     20  C   UNL     1       6.510  13.017  22.635  0.00  0.00    +0.000 A 
ATOM     21  C   UNL     1       7.319  14.133  22.868  0.00  0.00    +0.000 A 
ATOM     22  C   UNL     1       7.996  14.259  24.082  0.00  0.00    +0.000 A 
ATOM     23  C   UNL     1       7.843  13.284  25.073  0.00  0.00    +0.000 A 
BRANCH  18  24
ATOM     24  O   UNL     1       6.886  11.114  25.699  0.00  0.00    +0.000 OA
BRANCH  24  26
ATOM     25  C   UNL     1       4.960  11.521  27.040  0.00  0.00    +0.000 C 
ATOM     26  C   UNL     1       6.478  11.480  27.017  0.00  0.00    +0.000 C 
ENDBRANCH  24  26
ENDBRANCH  18  24
ENDBRANCH   1  21
BRANCH   7  27
ATOM     27  C   UNL     1       9.968  17.139  18.329  0.00  0.00    +0.000 A 
ATOM     28  C   UNL     1      10.412  16.128  17.499  0.00  0.00    +0.000 A 
ATOM     29  C   UNL     1      11.731  16.368  17.007  0.00  0.00    +0.000 A 
ATOM     30  C   UNL     1      12.250  17.550  17.487  0.00  0.00    +0.000 A 
ATOM     31  S   UNL     1      11.127  18.387  18.458  0.00  0.00    +0.000 S 
ENDBRANCH   7  27
TORSDOF 5
ENDMDL
