MODEL 1
REMARK VINA RESULT:      -7.7      0.000      0.000
REMARK  Name = 
REMARK  0 active torsions:
REMARK  status: ('A' for Active; 'I' for Inactive)
REMARK                            x       y       z     vdW  Elec       q    Type
REMARK                         _______ _______ _______ _____ _____    ______ ____
ROOT
ATOM      1  O   UNL     1       7.381   4.790  18.715  0.00  0.00    +0.000 OA
ATOM      2  C   UNL     1       6.447   4.554  17.978  0.00  0.00    +0.000 A 
ATOM      3  C   UNL     1       6.511   4.541  16.519  0.00  0.00    +0.000 A 
ATOM      4  C   UNL     1       7.538   4.875  15.665  0.00  0.00    +0.000 A 
ATOM      5  C   UNL     1       7.244   4.823  14.308  0.00  0.00    +0.000 A 
ATOM      6  C   UNL     1       5.953   4.445  13.920  0.00  0.00    +0.000 A 
ATOM      7  N   UNL     1       4.950   4.077  14.768  0.00  0.00    +0.000 NA
ATOM      8  C   UNL     1       5.262   4.112  16.074  0.00  0.00    +0.000 A 
ATOM      9  N   UNL     1       4.483   3.702  17.168  0.00  0.00    +0.000 N 
ATOM     10  N   UNL     1       5.131   4.254  18.293  0.00  0.00    +0.000 N 
ATOM     11  C   UNL     1       4.715   3.846  19.607  0.00  0.00    +0.000 C 
ATOM     12  C   UNL     1       3.246   3.516  19.686  0.00  0.00    +0.000 A 
ATOM     13  C   UNL     1       2.675   3.313  20.954  0.00  0.00    +0.000 A 
ATOM     14  C   UNL     1       1.331   2.972  21.078  0.00  0.00    +0.000 A 
ATOM     15  C   UNL     1       0.546   2.836  19.940  0.00  0.00    +0.000 A 
ATOM     16  C   UNL     1       1.100   3.033  18.671  0.00  0.00    +0.000 A 
ATOM     17  C   UNL     1       2.457   3.370  18.524  0.00  0.00    +0.000 A 
ATOM     18  C   UNL     1       3.036   3.594  17.128  0.00  0.00    +0.000 C 
ENDROOT
TORSDOF 0
ENDMDL
MODEL 2
REMARK VINA RESULT:      -7.1      3.512      3.622
REMARK  Name = 
REMARK  0 active torsions:
REMARK  status: ('A' for Active; 'I' for Inactive)
REMARK                            x       y       z     vdW  Elec       q    Type
REMARK                         _______ _______ _______ _____ _____    ______ ____
ROOT
ATOM      1  O   UNL     1       5.023   3.718  19.399  0.00  0.00    +0.000 OA
ATOM      2  C   UNL     1       4.817   4.628  18.624  0.00  0.00    +0.000 A 
ATOM      3  C   UNL     1       5.384   4.733  17.282  0.00  0.00    +0.000 A 
ATOM      4  C   UNL     1       6.314   3.949  16.639  0.00  0.00    +0.000 A 
ATOM      5  C   UNL     1       6.699   4.372  15.374  0.00  0.00    +0.000 A 
ATOM      6  C   UNL     1       6.127   5.542  14.859  0.00  0.00    +0.000 A 
ATOM      7  N   UNL     1       5.176   6.296  15.484  0.00  0.00    +0.000 NA
ATOM      8  C   UNL     1       4.802   5.856  16.696  0.00  0.00    +0.000 A 
ATOM      9  N   UNL     1       3.788   6.356  17.530  0.00  0.00    +0.000 N 
ATOM     10  N   UNL     1       4.035   5.761  18.786  0.00  0.00    +0.000 N 
ATOM     11  C   UNL     1       3.050   5.890  19.824  0.00  0.00    +0.000 C 
ATOM     12  C   UNL     1       2.287   7.189  19.757  0.00  0.00    +0.000 A 
ATOM     13  C   UNL     1       1.451   7.527  20.834  0.00  0.00    +0.000 A 
ATOM     14  C   UNL     1       0.698   8.699  20.804  0.00  0.00    +0.000 A 
ATOM     15  C   UNL     1       0.777   9.541  19.702  0.00  0.00    +0.000 A 
ATOM     16  C   UNL     1       1.604   9.216  18.621  0.00  0.00    +0.000 A 
ATOM     17  C   UNL     1       2.365   8.035  18.629  0.00  0.00    +0.000 A 
ATOM     18  C   UNL     1       3.270   7.709  17.443  0.00  0.00    +0.000 C 
ENDROOT
TORSDOF 0
ENDMDL
MODEL 3
REMARK VINA RESULT:      -7.1      5.930      6.777
REMARK  Name = 
REMARK  0 active torsions:
REMARK  status: ('A' for Active; 'I' for Inactive)
REMARK                            x       y       z     vdW  Elec       q    Type
REMARK                         _______ _______ _______ _____ _____    ______ ____
ROOT
ATOM      1  O   UNL     1       2.433   9.076  17.090  0.00  0.00    +0.000 OA
ATOM      2  C   UNL     1       2.219   8.453  18.109  0.00  0.00    +0.000 A 
ATOM      3  C   UNL     1       2.737   7.120  18.403  0.00  0.00    +0.000 A 
ATOM      4  C   UNL     1       3.455   6.245  17.619  0.00  0.00    +0.000 A 
ATOM      5  C   UNL     1       3.733   5.007  18.184  0.00  0.00    +0.000 A 
ATOM      6  C   UNL     1       3.270   4.746  19.480  0.00  0.00    +0.000 A 
ATOM      7  N   UNL     1       2.593   5.630  20.269  0.00  0.00    +0.000 NA
ATOM      8  C   UNL     1       2.355   6.829  19.712  0.00  0.00    +0.000 A 
ATOM      9  N   UNL     1       1.775   7.964  20.301  0.00  0.00    +0.000 N 
ATOM     10  N   UNL     1       1.461   8.808  19.214  0.00  0.00    +0.000 N 
ATOM     11  C   UNL     1       1.046  10.158  19.477  0.00  0.00    +0.000 C 
ATOM     12  C   UNL     1       0.284  10.302  20.770  0.00  0.00    +0.000 A 
ATOM     13  C   UNL     1      -0.357  11.523  21.035  0.00  0.00    +0.000 A 
ATOM     14  C   UNL     1      -1.044  11.717  22.231  0.00  0.00    +0.000 A 
ATOM     15  C   UNL     1      -1.100  10.693  23.168  0.00  0.00    +0.000 A 
ATOM     16  C   UNL     1      -0.465   9.472  22.920  0.00  0.00    +0.000 A 
ATOM     17  C   UNL     1       0.240   9.259  21.723  0.00  0.00    +0.000 A 
ATOM     18  C   UNL     1       0.914   7.912  21.468  0.00  0.00    +0.000 C 
ENDROOT
TORSDOF 0
ENDMDL
MODEL 4
REMARK VINA RESULT:      -6.9      1.561      1.898
REMARK  Name = 
REMARK  0 active torsions:
REMARK  status: ('A' for Active; 'I' for Inactive)
REMARK                            x       y       z     vdW  Elec       q    Type
REMARK                         _______ _______ _______ _____ _____    ______ ____
ROOT
ATOM      1  O   UNL     1       7.570   6.530  16.409  0.00  0.00    +0.000 OA
ATOM      2  C   UNL     1       6.691   5.777  16.045  0.00  0.00    +0.000 A 
ATOM      3  C   UNL     1       6.681   5.049  14.778  0.00  0.00    +0.000 A 
ATOM      4  C   UNL     1       7.541   5.108  13.705  0.00  0.00    +0.000 A 
ATOM      5  C   UNL     1       7.201   4.328  12.607  0.00  0.00    +0.000 A 
ATOM      6  C   UNL     1       6.032   3.559  12.673  0.00  0.00    +0.000 A 
ATOM      7  N   UNL     1       5.203   3.473  13.753  0.00  0.00    +0.000 NA
ATOM      8  C   UNL     1       5.564   4.217  14.812  0.00  0.00    +0.000 A 
ATOM      9  N   UNL     1       4.975   4.263  16.086  0.00  0.00    +0.000 N 
ATOM     10  N   UNL     1       5.516   5.419  16.686  0.00  0.00    +0.000 N 
ATOM     11  C   UNL     1       5.288   5.650  18.086  0.00  0.00    +0.000 C 
ATOM     12  C   UNL     1       3.960   5.119  18.565  0.00  0.00    +0.000 A 
ATOM     13  C   UNL     1       3.527   5.468  19.855  0.00  0.00    +0.000 A 
ATOM     14  C   UNL     1       2.325   4.976  20.355  0.00  0.00    +0.000 A 
ATOM     15  C   UNL     1       1.544   4.136  19.572  0.00  0.00    +0.000 A 
ATOM     16  C   UNL     1       1.962   3.778  18.285  0.00  0.00    +0.000 A 
ATOM     17  C   UNL     1       3.176   4.258  17.765  0.00  0.00    +0.000 A 
ATOM     18  C   UNL     1       3.605   3.864  16.353  0.00  0.00    +0.000 C 
ENDROOT
TORSDOF 0
ENDMDL
MODEL 5
REMARK VINA RESULT:      -6.9      1.327      1.333
REMARK  Name = 
REMARK  0 active torsions:
REMARK  status: ('A' for Active; 'I' for Inactive)
REMARK                            x       y       z     vdW  Elec       q    Type
REMARK                         _______ _______ _______ _____ _____    ______ ____
ROOT
ATOM      1  O   UNL     1       5.916   7.302  17.525  0.00  0.00    +0.000 OA
ATOM      2  C   UNL     1       5.514   6.213  17.174  0.00  0.00    +0.000 A 
ATOM      3  C   UNL     1       5.990   5.477  16.006  0.00  0.00    +0.000 A 
ATOM      4  C   UNL     1       6.870   5.846  15.013  0.00  0.00    +0.000 A 
ATOM      5  C   UNL     1       7.054   4.927  13.989  0.00  0.00    +0.000 A 
ATOM      6  C   UNL     1       6.345   3.721  14.040  0.00  0.00    +0.000 A 
ATOM      7  N   UNL     1       5.504   3.342  15.046  0.00  0.00    +0.000 NA
ATOM      8  C   UNL     1       5.358   4.236  16.037  0.00  0.00    +0.000 A 
ATOM      9  N   UNL     1       4.647   4.095  17.240  0.00  0.00    +0.000 N 
ATOM     10  N   UNL     1       4.542   5.408  17.747  0.00  0.00    +0.000 N 
ATOM     11  C   UNL     1       4.054   5.602  19.085  0.00  0.00    +0.000 C 
ATOM     12  C   UNL     1       3.043   4.563  19.502  0.00  0.00    +0.000 A 
ATOM     13  C   UNL     1       2.336   4.763  20.700  0.00  0.00    +0.000 A 
ATOM     14  C   UNL     1       1.418   3.817  21.146  0.00  0.00    +0.000 A 
ATOM     15  C   UNL     1       1.196   2.666  20.399  0.00  0.00    +0.000 A 
ATOM     16  C   UNL     1       1.893   2.451  19.206  0.00  0.00    +0.000 A 
ATOM     17  C   UNL     1       2.830   3.391  18.743  0.00  0.00    +0.000 A 
ATOM     18  C   UNL     1       3.570   3.141  17.430  0.00  0.00    +0.000 C 
ENDROOT
TORSDOF 0
ENDMDL
MODEL 6
REMARK VINA RESULT:      -6.9      2.061      5.920
REMARK  Name = 
REMARK  0 active torsions:
REMARK  status: ('A' for Active; 'I' for Inactive)
REMARK                            x       y       z     vdW  Elec       q    Type
REMARK                         _______ _______ _______ _____ _____    ______ ____
ROOT
ATOM      1  O   UNL     1       2.599   6.990  19.619  0.00  0.00    +0.000 OA
ATOM      2  C   UNL     1       2.873   5.848  19.313  0.00  0.00    +0.000 A 
ATOM      3  C   UNL     1       2.349   4.653  19.969  0.00  0.00    +0.000 A 
ATOM      4  C   UNL     1       1.557   4.520  21.087  0.00  0.00    +0.000 A 
ATOM      5  C   UNL     1       1.294   3.220  21.497  0.00  0.00    +0.000 A 
ATOM      6  C   UNL     1       1.844   2.164  20.759  0.00  0.00    +0.000 A 
ATOM      7  N   UNL     1       2.596   2.299  19.629  0.00  0.00    +0.000 NA
ATOM      8  C   UNL     1       2.819   3.564  19.237  0.00  0.00    +0.000 A 
ATOM      9  N   UNL     1       3.465   4.016  18.075  0.00  0.00    +0.000 N 
ATOM     10  N   UNL     1       3.717   5.383  18.316  0.00  0.00    +0.000 N 
ATOM     11  C   UNL     1       4.179   6.209  17.235  0.00  0.00    +0.000 C 
ATOM     12  C   UNL     1       5.037   5.461  16.245  0.00  0.00    +0.000 A 
ATOM     13  C   UNL     1       5.722   6.199  15.265  0.00  0.00    +0.000 A 
ATOM     14  C   UNL     1       6.499   5.552  14.307  0.00  0.00    +0.000 A 
ATOM     15  C   UNL     1       6.601   4.167  14.322  0.00  0.00    +0.000 A 
ATOM     16  C   UNL     1       5.923   3.418  15.291  0.00  0.00    +0.000 A 
ATOM     17  C   UNL     1       5.128   4.052  16.261  0.00  0.00    +0.000 A 
ATOM     18  C   UNL     1       4.408   3.214  17.317  0.00  0.00    +0.000 C 
ENDROOT
TORSDOF 0
ENDMDL
MODEL 7
REMARK VINA RESULT:      -6.8      2.518      5.522
REMARK  Name = 
REMARK  0 active torsions:
REMARK  status: ('A' for Active; 'I' for Inactive)
REMARK                            x       y       z     vdW  Elec       q    Type
REMARK                         _______ _______ _______ _____ _____    ______ ____
ROOT
ATOM      1  O   UNL     1       4.866   1.986  20.419  0.00  0.00    +0.000 OA
ATOM      2  C   UNL     1       4.363   2.814  19.689  0.00  0.00    +0.000 A 
ATOM      3  C   UNL     1       2.966   2.820  19.263  0.00  0.00    +0.000 A 
ATOM      4  C   UNL     1       1.963   1.900  19.470  0.00  0.00    +0.000 A 
ATOM      5  C   UNL     1       0.747   2.175  18.858  0.00  0.00    +0.000 A 
ATOM      6  C   UNL     1       0.636   3.341  18.089  0.00  0.00    +0.000 A 
ATOM      7  N   UNL     1       1.621   4.270  17.918  0.00  0.00    +0.000 NA
ATOM      8  C   UNL     1       2.780   3.996  18.538  0.00  0.00    +0.000 A 
ATOM      9  N   UNL     1       3.930   4.797  18.629  0.00  0.00    +0.000 N 
ATOM     10  N   UNL     1       4.939   3.921  19.085  0.00  0.00    +0.000 N 
ATOM     11  C   UNL     1       6.203   4.466  19.495  0.00  0.00    +0.000 C 
ATOM     12  C   UNL     1       6.590   5.705  18.727  0.00  0.00    +0.000 A 
ATOM     13  C   UNL     1       7.893   6.208  18.883  0.00  0.00    +0.000 A 
ATOM     14  C   UNL     1       8.287   7.368  18.223  0.00  0.00    +0.000 A 
ATOM     15  C   UNL     1       7.387   8.033  17.399  0.00  0.00    +0.000 A 
ATOM     16  C   UNL     1       6.086   7.546  17.235  0.00  0.00    +0.000 A 
ATOM     17  C   UNL     1       5.666   6.381  17.899  0.00  0.00    +0.000 A 
ATOM     18  C   UNL     1       4.245   5.861  17.694  0.00  0.00    +0.000 C 
ENDROOT
TORSDOF 0
ENDMDL
MODEL 8
REMARK VINA RESULT:      -6.8      2.306      3.318
REMARK  Name = 
REMARK  0 active torsions:
REMARK  status: ('A' for Active; 'I' for Inactive)
REMARK                            x       y       z     vdW  Elec       q    Type
REMARK                         _______ _______ _______ _____ _____    ______ ____
ROOT
ATOM      1  O   UNL     1       4.598   7.014  16.098  0.00  0.00    +0.000 OA
ATOM      2  C   UNL     1       4.927   6.354  17.061  0.00  0.00    +0.000 A 
ATOM      3  C   UNL     1       6.182   6.504  17.793  0.00  0.00    +0.000 A 
ATOM      4  C   UNL     1       7.280   7.293  17.535  0.00  0.00    +0.000 A 
ATOM      5  C   UNL     1       8.356   7.142  18.400  0.00  0.00    +0.000 A 
ATOM      6  C   UNL     1       8.247   6.217  19.445  0.00  0.00    +0.000 A 
ATOM      7  N   UNL     1       7.142   5.465  19.721  0.00  0.00    +0.000 NA
ATOM      8  C   UNL     1       6.105   5.643  18.887  0.00  0.00    +0.000 A 
ATOM      9  N   UNL     1       4.816   5.093  18.969  0.00  0.00    +0.000 N 
ATOM     10  N   UNL     1       4.247   5.328  17.699  0.00  0.00    +0.000 N 
ATOM     11  C   UNL     1       2.845   5.081  17.506  0.00  0.00    +0.000 C 
ATOM     12  C   UNL     1       2.322   3.949  18.354  0.00  0.00    +0.000 A 
ATOM     13  C   UNL     1       1.024   3.471  18.102  0.00  0.00    +0.000 A 
ATOM     14  C   UNL     1       0.483   2.451  18.880  0.00  0.00    +0.000 A 
ATOM     15  C   UNL     1       1.233   1.898  19.911  0.00  0.00    +0.000 A 
ATOM     16  C   UNL     1       2.525   2.364  20.174  0.00  0.00    +0.000 A 
ATOM     17  C   UNL     1       3.086   3.398  19.406  0.00  0.00    +0.000 A 
ATOM     18  C   UNL     1       4.504   3.881  19.704  0.00  0.00    +0.000 C 
ENDROOT
TORSDOF 0
ENDMDL
MODEL 9
REMARK VINA RESULT:      -6.8      2.016      6.223
REMARK  Name = 
REMARK  0 active torsions:
REMARK  status: ('A' for Active; 'I' for Inactive)
REMARK                            x       y       z     vdW  Elec       q    Type
REMARK                         _______ _______ _______ _____ _____    ______ ____
ROOT
ATOM      1  O   UNL     1       0.766   4.026  17.307  0.00  0.00    +0.000 OA
ATOM      2  C   UNL     1       1.765   3.900  17.984  0.00  0.00    +0.000 A 
ATOM      3  C   UNL     1       1.788   3.426  19.366  0.00  0.00    +0.000 A 
ATOM      4  C   UNL     1       0.758   3.128  20.228  0.00  0.00    +0.000 A 
ATOM      5  C   UNL     1       1.126   2.768  21.517  0.00  0.00    +0.000 A 
ATOM      6  C   UNL     1       2.489   2.738  21.838  0.00  0.00    +0.000 A 
ATOM      7  N   UNL     1       3.509   2.996  20.970  0.00  0.00    +0.000 NA
ATOM      8  C   UNL     1       3.132   3.319  19.722  0.00  0.00    +0.000 A 
ATOM      9  N   UNL     1       3.941   3.540  18.596  0.00  0.00    +0.000 N 
ATOM     10  N   UNL     1       3.087   4.160  17.660  0.00  0.00    +0.000 N 
ATOM     11  C   UNL     1       3.541   4.331  16.307  0.00  0.00    +0.000 C 
ATOM     12  C   UNL     1       5.030   4.544  16.206  0.00  0.00    +0.000 A 
ATOM     13  C   UNL     1       5.566   4.934  14.966  0.00  0.00    +0.000 A 
ATOM     14  C   UNL     1       6.939   5.109  14.813  0.00  0.00    +0.000 A 
ATOM     15  C   UNL     1       7.786   4.902  15.894  0.00  0.00    +0.000 A 
ATOM     16  C   UNL     1       7.268   4.512  17.134  0.00  0.00    +0.000 A 
ATOM     17  C   UNL     1       5.886   4.321  17.307  0.00  0.00    +0.000 A 
ATOM     18  C   UNL     1       5.343   3.908  18.674  0.00  0.00    +0.000 C 
ENDROOT
TORSDOF 0
ENDMDL
