MODEL 1
REMARK VINA RESULT:      -7.2      0.000      0.000
REMARK  Name = 
REMARK  10 active torsions:
REMARK  status: ('A' for Active; 'I' for Inactive)
REMARK    1  A    between atoms: C_1  and  C_2
REMARK    2  A    between atoms: C_2  and  O_3
REMARK    3  A    between atoms: O_3  and  C_4
REMARK    4  A    between atoms: C_4  and  C_6
REMARK    5  A    between atoms: C_8  and  C_9
REMARK    6  A    between atoms: C_12  and  C_13
REMARK    7  A    between atoms: N_16  and  C_17
REMARK    8  A    between atoms: C_17  and  C_18
REMARK    9  A    between atoms: N_20  and  C_21
REMARK   10  A    between atoms: C_28  and  C_29
REMARK                            x       y       z     vdW  Elec       q    Type
REMARK                         _______ _______ _______ _____ _____    ______ ____
ROOT
ATOM      1  C   UNL     1      -1.312  11.915  21.978  0.00  0.00    +0.000 A 
ATOM      2  C   UNL     1      -0.336  10.909  21.777  0.00  0.00    +0.000 A 
ATOM      3  C   UNL     1      -0.210  10.640  20.422  0.00  0.00    +0.000 A 
ATOM      4  N   UNL     1      -1.142  11.458  19.780  0.00  0.00    +0.000 N 
ATOM      5  C   UNL     1      -1.771  12.271  20.715  0.00  0.00    +0.000 A 
ATOM      6  C   UNL     1      -2.746  13.361  20.403  0.00  0.00    +0.000 C 
ENDROOT
BRANCH   3   7
ATOM      7  C   UNL     1       0.662   9.627  19.799  0.00  0.00    +0.000 A 
ATOM      8  C   UNL     1       1.033   9.775  18.454  0.00  0.00    +0.000 A 
ATOM      9  C   UNL     1       1.905   8.873  17.835  0.00  0.00    +0.000 A 
ATOM     10  C   UNL     1       2.427   7.794  18.548  0.00  0.00    +0.000 A 
ATOM     11  C   UNL     1       3.396   6.840  17.918  0.00  0.00    +0.000 C 
ATOM     12  C   UNL     1       2.035   7.614  19.876  0.00  0.00    +0.000 A 
ATOM     13  C   UNL     1       1.138   8.503  20.484  0.00  0.00    +0.000 A 
ENDBRANCH   3   7
BRANCH   1  14
ATOM     14  C   UNL     1      -1.724  12.532  23.238  0.00  0.00    +0.000 C 
ATOM     15  O   UNL     1      -2.789  12.288  23.798  0.00  0.00    +0.000 OA
BRANCH  14  16
ATOM     16  O   UNL     1      -0.831  13.466  23.678  0.00  0.00    +0.000 OA
BRANCH  16  18
ATOM     17  C   UNL     1      -1.443  15.234  25.158  0.00  0.00    +0.000 C 
ATOM     18  C   UNL     1      -1.344  14.804  23.706  0.00  0.00    +0.000 C 
ENDBRANCH  16  18
ENDBRANCH  14  16
ENDBRANCH   1  14
BRANCH   4  19
ATOM     19  C   UNL     1      -1.435  11.458  18.347  0.00  0.00    +0.000 C 
BRANCH  19  20
ATOM     20  C   UNL     1      -2.804  10.932  17.961  0.00  0.00    +0.000 C 
ATOM     21  O   UNL     1      -2.968   9.740  17.701  0.00  0.00    +0.000 OA
ATOM     22  N   UNL     1      -3.794  11.877  17.789  0.00  0.00    +0.000 N 
ATOM     23  H   UNL     1      -3.640  12.793  18.195  0.00  0.00    +0.000 HD
BRANCH  22  24
ATOM     24  C   UNL     1      -5.177  11.518  17.470  0.00  0.00    +0.000 C 
ATOM     25  C   UNL     1      -5.819  10.750  18.633  0.00  0.00    +0.000 C 
ATOM     26  C   UNL     1      -6.159  11.604  19.854  0.00  0.00    +0.000 C 
ATOM     27  C   UNL     1      -7.543  12.239  19.784  0.00  0.00    +0.000 C 
ATOM     28  C   UNL     1      -7.701  13.316  18.721  0.00  0.00    +0.000 C 
ATOM     29  C   UNL     1      -7.412  12.855  17.294  0.00  0.00    +0.000 C 
ATOM     30  C   UNL     1      -5.919  12.774  16.987  0.00  0.00    +0.000 C 
ENDBRANCH  22  24
ENDBRANCH  19  20
ENDBRANCH   4  19
TORSDOF 7
ENDMDL
MODEL 2
REMARK VINA RESULT:      -7.0      5.254      9.888
REMARK  Name = 
REMARK  10 active torsions:
REMARK  status: ('A' for Active; 'I' for Inactive)
REMARK    1  A    between atoms: C_1  and  C_2
REMARK    2  A    between atoms: C_2  and  O_3
REMARK    3  A    between atoms: O_3  and  C_4
REMARK    4  A    between atoms: C_4  and  C_6
REMARK    5  A    between atoms: C_8  and  C_9
REMARK    6  A    between atoms: C_12  and  C_13
REMARK    7  A    between atoms: N_16  and  C_17
REMARK    8  A    between atoms: C_17  and  C_18
REMARK    9  A    between atoms: N_20  and  C_21
REMARK   10  A    between atoms: C_28  and  C_29
REMARK                            x       y       z     vdW  Elec       q    Type
REMARK                         _______ _______ _______ _____ _____    ______ ____
ROOT
ATOM      1  C   UNL     1       5.278   4.679  15.681  0.00  0.00    +0.000 A 
ATOM      2  C   UNL     1       4.590   3.763  16.513  0.00  0.00    +0.000 A 
ATOM      3  C   UNL     1       3.994   4.440  17.567  0.00  0.00    +0.000 A 
ATOM      4  N   UNL     1       4.349   5.782  17.411  0.00  0.00    +0.000 N 
ATOM      5  C   UNL     1       5.079   5.937  16.239  0.00  0.00    +0.000 A 
ATOM      6  C   UNL     1       5.537   7.241  15.667  0.00  0.00    +0.000 C 
ENDROOT
BRANCH   3   7
ATOM      7  C   UNL     1       3.227   3.847  18.678  0.00  0.00    +0.000 A 
ATOM      8  C   UNL     1       3.909   3.156  19.691  0.00  0.00    +0.000 A 
ATOM      9  C   UNL     1       3.232   2.626  20.794  0.00  0.00    +0.000 A 
ATOM     10  C   UNL     1       1.850   2.772  20.911  0.00  0.00    +0.000 A 
ATOM     11  C   UNL     1       1.110   2.251  22.106  0.00  0.00    +0.000 C 
ATOM     12  C   UNL     1       1.155   3.424  19.890  0.00  0.00    +0.000 A 
ATOM     13  C   UNL     1       1.833   3.927  18.772  0.00  0.00    +0.000 A 
ENDBRANCH   3   7
BRANCH   1  14
ATOM     14  C   UNL     1       5.999   4.403  14.440  0.00  0.00    +0.000 C 
ATOM     15  O   UNL     1       6.951   5.068  14.044  0.00  0.00    +0.000 OA
BRANCH  14  16
ATOM     16  O   UNL     1       5.444   3.376  13.732  0.00  0.00    +0.000 OA
BRANCH  16  18
ATOM     17  C   UNL     1       4.502   3.281  11.542  0.00  0.00    +0.000 C 
ATOM     18  C   UNL     1       5.789   3.364  12.341  0.00  0.00    +0.000 C 
ENDBRANCH  16  18
ENDBRANCH  14  16
ENDBRANCH   1  14
BRANCH   4  19
ATOM     19  C   UNL     1       4.023   6.865  18.337  0.00  0.00    +0.000 C 
BRANCH  19  20
ATOM     20  C   UNL     1       2.769   7.651  18.006  0.00  0.00    +0.000 C 
ATOM     21  O   UNL     1       1.854   7.134  17.366  0.00  0.00    +0.000 OA
ATOM     22  N   UNL     1       2.783   8.989  18.341  0.00  0.00    +0.000 N 
ATOM     23  H   UNL     1       3.472   9.294  19.019  0.00  0.00    +0.000 HD
BRANCH  22  24
ATOM     24  C   UNL     1       1.627   9.864  18.135  0.00  0.00    +0.000 C 
ATOM     25  C   UNL     1       0.527   9.558  19.160  0.00  0.00    +0.000 C 
ATOM     26  C   UNL     1       0.827  10.032  20.581  0.00  0.00    +0.000 C 
ATOM     27  C   UNL     1       0.386  11.466  20.849  0.00  0.00    +0.000 C 
ATOM     28  C   UNL     1       1.176  12.529  20.100  0.00  0.00    +0.000 C 
ATOM     29  C   UNL     1       1.152  12.392  18.578  0.00  0.00    +0.000 C 
ATOM     30  C   UNL     1       2.111  11.320  18.064  0.00  0.00    +0.000 C 
ENDBRANCH  22  24
ENDBRANCH  19  20
ENDBRANCH   4  19
TORSDOF 7
ENDMDL
MODEL 3
REMARK VINA RESULT:      -7.0      6.334     11.109
REMARK  Name = 
REMARK  10 active torsions:
REMARK  status: ('A' for Active; 'I' for Inactive)
REMARK    1  A    between atoms: C_1  and  C_2
REMARK    2  A    between atoms: C_2  and  O_3
REMARK    3  A    between atoms: O_3  and  C_4
REMARK    4  A    between atoms: C_4  and  C_6
REMARK    5  A    between atoms: C_8  and  C_9
REMARK    6  A    between atoms: C_12  and  C_13
REMARK    7  A    between atoms: N_16  and  C_17
REMARK    8  A    between atoms: C_17  and  C_18
REMARK    9  A    between atoms: N_20  and  C_21
REMARK   10  A    between atoms: C_28  and  C_29
REMARK                            x       y       z     vdW  Elec       q    Type
REMARK                         _______ _______ _______ _____ _____    ______ ____
ROOT
ATOM      1  C   UNL     1       6.214   5.475  15.722  0.00  0.00    +0.000 A 
ATOM      2  C   UNL     1       5.097   6.346  15.687  0.00  0.00    +0.000 A 
ATOM      3  C   UNL     1       4.681   6.630  16.980  0.00  0.00    +0.000 A 
ATOM      4  N   UNL     1       5.521   5.900  17.823  0.00  0.00    +0.000 N 
ATOM      5  C   UNL     1       6.485   5.244  17.066  0.00  0.00    +0.000 A 
ATOM      6  C   UNL     1       7.633   4.457  17.614  0.00  0.00    +0.000 C 
ENDROOT
BRANCH   3   7
ATOM      7  C   UNL     1       3.527   7.458  17.375  0.00  0.00    +0.000 A 
ATOM      8  C   UNL     1       3.704   8.837  17.564  0.00  0.00    +0.000 A 
ATOM      9  C   UNL     1       2.628   9.672  17.882  0.00  0.00    +0.000 A 
ATOM     10  C   UNL     1       1.343   9.147  18.023  0.00  0.00    +0.000 A 
ATOM     11  C   UNL     1       0.170  10.030  18.321  0.00  0.00    +0.000 C 
ATOM     12  C   UNL     1       1.162   7.770  17.877  0.00  0.00    +0.000 A 
ATOM     13  C   UNL     1       2.246   6.932  17.587  0.00  0.00    +0.000 A 
ENDBRANCH   3   7
BRANCH   1  14
ATOM     14  C   UNL     1       6.993   4.964  14.596  0.00  0.00    +0.000 C 
ATOM     15  O   UNL     1       7.860   5.614  14.019  0.00  0.00    +0.000 OA
BRANCH  14  16
ATOM     16  O   UNL     1       6.592   3.719  14.207  0.00  0.00    +0.000 OA
BRANCH  16  18
ATOM     17  C   UNL     1       6.587   3.213  11.876  0.00  0.00    +0.000 C 
ATOM     18  C   UNL     1       5.755   3.706  13.044  0.00  0.00    +0.000 C 
ENDBRANCH  16  18
ENDBRANCH  14  16
ENDBRANCH   1  14
BRANCH   4  19
ATOM     19  C   UNL     1       5.407   5.814  19.278  0.00  0.00    +0.000 C 
BRANCH  19  20
ATOM     20  C   UNL     1       4.309   4.903  19.794  0.00  0.00    +0.000 C 
ATOM     21  O   UNL     1       4.337   3.694  19.563  0.00  0.00    +0.000 OA
ATOM     22  N   UNL     1       3.237   5.523  20.400  0.00  0.00    +0.000 N 
ATOM     23  H   UNL     1       3.368   6.477  20.717  0.00  0.00    +0.000 HD
BRANCH  22  24
ATOM     24  C   UNL     1       2.128   4.775  20.996  0.00  0.00    +0.000 C 
ATOM     25  C   UNL     1       0.931   4.728  20.037  0.00  0.00    +0.000 C 
ATOM     26  C   UNL     1       1.111   3.804  18.833  0.00  0.00    +0.000 C 
ATOM     27  C   UNL     1       0.685   2.366  19.103  0.00  0.00    +0.000 C 
ATOM     28  C   UNL     1       1.568   1.609  20.085  0.00  0.00    +0.000 C 
ATOM     29  C   UNL     1       1.681   2.247  21.468  0.00  0.00    +0.000 C 
ATOM     30  C   UNL     1       2.654   3.423  21.501  0.00  0.00    +0.000 C 
ENDBRANCH  22  24
ENDBRANCH  19  20
ENDBRANCH   4  19
TORSDOF 7
ENDMDL
MODEL 4
REMARK VINA RESULT:      -6.9      4.975      9.787
REMARK  Name = 
REMARK  10 active torsions:
REMARK  status: ('A' for Active; 'I' for Inactive)
REMARK    1  A    between atoms: C_1  and  C_2
REMARK    2  A    between atoms: C_2  and  O_3
REMARK    3  A    between atoms: O_3  and  C_4
REMARK    4  A    between atoms: C_4  and  C_6
REMARK    5  A    between atoms: C_8  and  C_9
REMARK    6  A    between atoms: C_12  and  C_13
REMARK    7  A    between atoms: N_16  and  C_17
REMARK    8  A    between atoms: C_17  and  C_18
REMARK    9  A    between atoms: N_20  and  C_21
REMARK   10  A    between atoms: C_28  and  C_29
REMARK                            x       y       z     vdW  Elec       q    Type
REMARK                         _______ _______ _______ _____ _____    ______ ____
ROOT
ATOM      1  C   UNL     1       5.500   4.533  16.634  0.00  0.00    +0.000 A 
ATOM      2  C   UNL     1       4.722   3.616  17.382  0.00  0.00    +0.000 A 
ATOM      3  C   UNL     1       4.047   4.286  18.393  0.00  0.00    +0.000 A 
ATOM      4  N   UNL     1       4.440   5.622  18.296  0.00  0.00    +0.000 N 
ATOM      5  C   UNL     1       5.276   5.784  17.198  0.00  0.00    +0.000 A 
ATOM      6  C   UNL     1       5.808   7.089  16.696  0.00  0.00    +0.000 C 
ENDROOT
BRANCH   3   7
ATOM      7  C   UNL     1       3.172   3.688  19.417  0.00  0.00    +0.000 A 
ATOM      8  C   UNL     1       3.739   2.890  20.423  0.00  0.00    +0.000 A 
ATOM      9  C   UNL     1       2.959   2.349  21.450  0.00  0.00    +0.000 A 
ATOM     10  C   UNL     1       1.585   2.591  21.496  0.00  0.00    +0.000 A 
ATOM     11  C   UNL     1       0.738   2.057  22.610  0.00  0.00    +0.000 C 
ATOM     12  C   UNL     1       1.004   3.351  20.479  0.00  0.00    +0.000 A 
ATOM     13  C   UNL     1       1.784   3.866  19.436  0.00  0.00    +0.000 A 
ENDBRANCH   3   7
BRANCH   1  14
ATOM     14  C   UNL     1       6.324   4.266  15.456  0.00  0.00    +0.000 C 
ATOM     15  O   UNL     1       7.470   4.681  15.320  0.00  0.00    +0.000 OA
BRANCH  14  16
ATOM     16  O   UNL     1       5.647   3.574  14.493  0.00  0.00    +0.000 OA
BRANCH  16  18
ATOM     17  C   UNL     1       5.924   3.012  12.191  0.00  0.00    +0.000 C 
ATOM     18  C   UNL     1       5.738   4.146  13.183  0.00  0.00    +0.000 C 
ENDBRANCH  16  18
ENDBRANCH  14  16
ENDBRANCH   1  14
BRANCH   4  19
ATOM     19  C   UNL     1       4.054   6.694  19.212  0.00  0.00    +0.000 C 
BRANCH  19  20
ATOM     20  C   UNL     1       2.663   7.263  19.001  0.00  0.00    +0.000 C 
ATOM     21  O   UNL     1       2.149   7.266  17.883  0.00  0.00    +0.000 OA
ATOM     22  N   UNL     1       2.089   7.887  20.089  0.00  0.00    +0.000 N 
ATOM     23  H   UNL     1       2.478   7.684  21.003  0.00  0.00    +0.000 HD
BRANCH  22  24
ATOM     24  C   UNL     1       0.732   8.436  20.056  0.00  0.00    +0.000 C 
ATOM     25  C   UNL     1       0.040   8.251  21.414  0.00  0.00    +0.000 C 
ATOM     26  C   UNL     1       0.551   9.171  22.522  0.00  0.00    +0.000 C 
ATOM     27  C   UNL     1      -0.166  10.515  22.574  0.00  0.00    +0.000 C 
ATOM     28  C   UNL     1       0.107  11.434  21.393  0.00  0.00    +0.000 C 
ATOM     29  C   UNL     1      -0.258  10.850  20.029  0.00  0.00    +0.000 C 
ATOM     30  C   UNL     1       0.787   9.868  19.505  0.00  0.00    +0.000 C 
ENDBRANCH  22  24
ENDBRANCH  19  20
ENDBRANCH   4  19
TORSDOF 7
ENDMDL
MODEL 5
REMARK VINA RESULT:      -6.8      5.317      8.762
REMARK  Name = 
REMARK  10 active torsions:
REMARK  status: ('A' for Active; 'I' for Inactive)
REMARK    1  A    between atoms: C_1  and  C_2
REMARK    2  A    between atoms: C_2  and  O_3
REMARK    3  A    between atoms: O_3  and  C_4
REMARK    4  A    between atoms: C_4  and  C_6
REMARK    5  A    between atoms: C_8  and  C_9
REMARK    6  A    between atoms: C_12  and  C_13
REMARK    7  A    between atoms: N_16  and  C_17
REMARK    8  A    between atoms: C_17  and  C_18
REMARK    9  A    between atoms: N_20  and  C_21
REMARK   10  A    between atoms: C_28  and  C_29
REMARK                            x       y       z     vdW  Elec       q    Type
REMARK                         _______ _______ _______ _____ _____    ______ ____
ROOT
ATOM      1  C   UNL     1       2.247   3.517  18.483  0.00  0.00    +0.000 A 
ATOM      2  C   UNL     1       3.187   3.289  17.447  0.00  0.00    +0.000 A 
ATOM      3  C   UNL     1       3.981   4.413  17.276  0.00  0.00    +0.000 A 
ATOM      4  N   UNL     1       3.506   5.361  18.186  0.00  0.00    +0.000 N 
ATOM      5  C   UNL     1       2.493   4.800  18.955  0.00  0.00    +0.000 A 
ATOM      6  C   UNL     1       1.816   5.462  20.114  0.00  0.00    +0.000 C 
ENDROOT
BRANCH   3   7
ATOM      7  C   UNL     1       5.044   4.600  16.272  0.00  0.00    +0.000 A 
ATOM      8  C   UNL     1       4.906   4.006  15.008  0.00  0.00    +0.000 A 
ATOM      9  C   UNL     1       5.858   4.202  14.003  0.00  0.00    +0.000 A 
ATOM     10  C   UNL     1       6.980   4.998  14.239  0.00  0.00    +0.000 A 
ATOM     11  C   UNL     1       7.991   5.257  13.163  0.00  0.00    +0.000 C 
ATOM     12  C   UNL     1       7.148   5.563  15.505  0.00  0.00    +0.000 A 
ATOM     13  C   UNL     1       6.206   5.340  16.518  0.00  0.00    +0.000 A 
ENDBRANCH   3   7
BRANCH   1  14
ATOM     14  C   UNL     1       1.257   2.586  19.021  0.00  0.00    +0.000 C 
ATOM     15  O   UNL     1       0.050   2.688  18.822  0.00  0.00    +0.000 OA
BRANCH  14  16
ATOM     16  O   UNL     1       1.815   1.644  19.836  0.00  0.00    +0.000 OA
BRANCH  16  18
ATOM     17  C   UNL     1       1.444   2.526  22.021  0.00  0.00    +0.000 C 
ATOM     18  C   UNL     1       2.492   2.180  20.980  0.00  0.00    +0.000 C 
ENDBRANCH  16  18
ENDBRANCH  14  16
ENDBRANCH   1  14
BRANCH   4  19
ATOM     19  C   UNL     1       3.979   6.738  18.309  0.00  0.00    +0.000 C 
BRANCH  19  20
ATOM     20  C   UNL     1       3.006   7.807  17.848  0.00  0.00    +0.000 C 
ATOM     21  O   UNL     1       2.948   8.134  16.663  0.00  0.00    +0.000 OA
ATOM     22  N   UNL     1       2.311   8.467  18.840  0.00  0.00    +0.000 N 
ATOM     23  H   UNL     1       2.268   8.027  19.752  0.00  0.00    +0.000 HD
BRANCH  22  24
ATOM     24  C   UNL     1       1.298   9.483  18.548  0.00  0.00    +0.000 C 
ATOM     25  C   UNL     1       0.221   9.503  19.641  0.00  0.00    +0.000 C 
ATOM     26  C   UNL     1       0.669  10.110  20.970  0.00  0.00    +0.000 C 
ATOM     27  C   UNL     1       0.475  11.620  21.044  0.00  0.00    +0.000 C 
ATOM     28  C   UNL     1       1.380  12.428  20.125  0.00  0.00    +0.000 C 
ATOM     29  C   UNL     1       1.252  12.091  18.641  0.00  0.00    +0.000 C 
ATOM     30  C   UNL     1       2.000  10.817  18.255  0.00  0.00    +0.000 C 
ENDBRANCH  22  24
ENDBRANCH  19  20
ENDBRANCH   4  19
TORSDOF 7
ENDMDL
MODEL 6
REMARK VINA RESULT:      -6.8      5.089      8.767
REMARK  Name = 
REMARK  10 active torsions:
REMARK  status: ('A' for Active; 'I' for Inactive)
REMARK    1  A    between atoms: C_1  and  C_2
REMARK    2  A    between atoms: C_2  and  O_3
REMARK    3  A    between atoms: O_3  and  C_4
REMARK    4  A    between atoms: C_4  and  C_6
REMARK    5  A    between atoms: C_8  and  C_9
REMARK    6  A    between atoms: C_12  and  C_13
REMARK    7  A    between atoms: N_16  and  C_17
REMARK    8  A    between atoms: C_17  and  C_18
REMARK    9  A    between atoms: N_20  and  C_21
REMARK   10  A    between atoms: C_28  and  C_29
REMARK                            x       y       z     vdW  Elec       q    Type
REMARK                         _______ _______ _______ _____ _____    ______ ____
ROOT
ATOM      1  C   UNL     1       3.509   3.623  19.740  0.00  0.00    +0.000 A 
ATOM      2  C   UNL     1       4.354   3.308  18.647  0.00  0.00    +0.000 A 
ATOM      3  C   UNL     1       4.656   4.462  17.938  0.00  0.00    +0.000 A 
ATOM      4  N   UNL     1       3.963   5.495  18.572  0.00  0.00    +0.000 N 
ATOM      5  C   UNL     1       3.313   4.999  19.696  0.00  0.00    +0.000 A 
ATOM      6  C   UNL     1       2.563   5.818  20.698  0.00  0.00    +0.000 C 
ENDROOT
BRANCH   3   7
ATOM      7  C   UNL     1       5.466   4.557  16.710  0.00  0.00    +0.000 A 
ATOM      8  C   UNL     1       4.899   4.177  15.484  0.00  0.00    +0.000 A 
ATOM      9  C   UNL     1       5.607   4.304  14.284  0.00  0.00    +0.000 A 
ATOM     10  C   UNL     1       6.906   4.814  14.280  0.00  0.00    +0.000 A 
ATOM     11  C   UNL     1       7.666   4.999  13.003  0.00  0.00    +0.000 C 
ATOM     12  C   UNL     1       7.494   5.159  15.499  0.00  0.00    +0.000 A 
ATOM     13  C   UNL     1       6.793   5.003  16.701  0.00  0.00    +0.000 A 
ENDBRANCH   3   7
BRANCH   1  14
ATOM     14  C   UNL     1       2.991   2.722  20.768  0.00  0.00    +0.000 C 
ATOM     15  O   UNL     1       3.696   2.179  21.613  0.00  0.00    +0.000 OA
BRANCH  14  16
ATOM     16  O   UNL     1       1.653   2.488  20.630  0.00  0.00    +0.000 OA
BRANCH  16  18
ATOM     17  C   UNL     1       0.386   2.858  18.643  0.00  0.00    +0.000 C 
ATOM     18  C   UNL     1       1.286   1.886  19.382  0.00  0.00    +0.000 C 
ENDBRANCH  16  18
ENDBRANCH  14  16
ENDBRANCH   1  14
BRANCH   4  19
ATOM     19  C   UNL     1       3.906   6.886  18.125  0.00  0.00    +0.000 C 
BRANCH  19  20
ATOM     20  C   UNL     1       2.520   7.500  18.079  0.00  0.00    +0.000 C 
ATOM     21  O   UNL     1       1.588   6.907  17.536  0.00  0.00    +0.000 OA
ATOM     22  N   UNL     1       2.411   8.793  18.547  0.00  0.00    +0.000 N 
ATOM     23  H   UNL     1       3.158   9.140  19.138  0.00  0.00    +0.000 HD
BRANCH  22  24
ATOM     24  C   UNL     1       1.130   9.499  18.617  0.00  0.00    +0.000 C 
ATOM     25  C   UNL     1       0.356   9.091  19.879  0.00  0.00    +0.000 C 
ATOM     26  C   UNL     1       0.915   9.658  21.183  0.00  0.00    +0.000 C 
ATOM     27  C   UNL     1       0.357  11.031  21.538  0.00  0.00    +0.000 C 
ATOM     28  C   UNL     1       0.794  12.158  20.613  0.00  0.00    +0.000 C 
ATOM     29  C   UNL     1       0.431  11.958  19.143  0.00  0.00    +0.000 C 
ATOM     30  C   UNL     1       1.378  11.002  18.422  0.00  0.00    +0.000 C 
ENDBRANCH  22  24
ENDBRANCH  19  20
ENDBRANCH   4  19
TORSDOF 7
ENDMDL
MODEL 7
REMARK VINA RESULT:      -6.7      4.001      8.480
REMARK  Name = 
REMARK  10 active torsions:
REMARK  status: ('A' for Active; 'I' for Inactive)
REMARK    1  A    between atoms: C_1  and  C_2
REMARK    2  A    between atoms: C_2  and  O_3
REMARK    3  A    between atoms: O_3  and  C_4
REMARK    4  A    between atoms: C_4  and  C_6
REMARK    5  A    between atoms: C_8  and  C_9
REMARK    6  A    between atoms: C_12  and  C_13
REMARK    7  A    between atoms: N_16  and  C_17
REMARK    8  A    between atoms: C_17  and  C_18
REMARK    9  A    between atoms: N_20  and  C_21
REMARK   10  A    between atoms: C_28  and  C_29
REMARK                            x       y       z     vdW  Elec       q    Type
REMARK                         _______ _______ _______ _____ _____    ______ ____
ROOT
ATOM      1  C   UNL     1       0.627   9.668  18.703  0.00  0.00    +0.000 A 
ATOM      2  C   UNL     1       1.566   9.114  17.799  0.00  0.00    +0.000 A 
ATOM      3  C   UNL     1       2.273   8.095  18.422  0.00  0.00    +0.000 A 
ATOM      4  N   UNL     1       1.797   8.042  19.733  0.00  0.00    +0.000 N 
ATOM      5  C   UNL     1       0.761   8.956  19.890  0.00  0.00    +0.000 A 
ATOM      6  C   UNL     1      -0.081   9.114  21.116  0.00  0.00    +0.000 C 
ENDROOT
BRANCH   3   7
ATOM      7  C   UNL     1       3.370   7.299  17.842  0.00  0.00    +0.000 A 
ATOM      8  C   UNL     1       3.165   5.936  17.581  0.00  0.00    +0.000 A 
ATOM      9  C   UNL     1       4.154   5.152  16.978  0.00  0.00    +0.000 A 
ATOM     10  C   UNL     1       5.381   5.714  16.624  0.00  0.00    +0.000 A 
ATOM     11  C   UNL     1       6.439   4.904  15.938  0.00  0.00    +0.000 C 
ATOM     12  C   UNL     1       5.612   7.060  16.915  0.00  0.00    +0.000 A 
ATOM     13  C   UNL     1       4.629   7.834  17.545  0.00  0.00    +0.000 A 
ENDBRANCH   3   7
BRANCH   1  14
ATOM     14  C   UNL     1      -0.352  10.724  18.450  0.00  0.00    +0.000 C 
ATOM     15  O   UNL     1      -0.094  11.922  18.526  0.00  0.00    +0.000 OA
BRANCH  14  16
ATOM     16  O   UNL     1      -1.600  10.230  18.202  0.00  0.00    +0.000 OA
BRANCH  16  18
ATOM     17  C   UNL     1      -2.513   9.994  16.011  0.00  0.00    +0.000 C 
ATOM     18  C   UNL     1      -2.322  10.935  17.186  0.00  0.00    +0.000 C 
ENDBRANCH  16  18
ENDBRANCH  14  16
ENDBRANCH   1  14
BRANCH   4  19
ATOM     19  C   UNL     1       2.309   7.177  20.794  0.00  0.00    +0.000 C 
BRANCH  19  20
ATOM     20  C   UNL     1       1.872   5.726  20.721  0.00  0.00    +0.000 C 
ATOM     21  O   UNL     1       0.678   5.429  20.708  0.00  0.00    +0.000 OA
ATOM     22  N   UNL     1       2.875   4.783  20.808  0.00  0.00    +0.000 N 
ATOM     23  H   UNL     1       3.823   5.092  20.628  0.00  0.00    +0.000 HD
BRANCH  22  24
ATOM     24  C   UNL     1       2.616   3.346  20.697  0.00  0.00    +0.000 C 
ATOM     25  C   UNL     1       1.377   3.085  19.829  0.00  0.00    +0.000 C 
ATOM     26  C   UNL     1       1.584   3.320  18.333  0.00  0.00    +0.000 C 
ATOM     27  C   UNL     1       2.104   2.094  17.592  0.00  0.00    +0.000 C 
ATOM     28  C   UNL     1       3.529   1.690  17.942  0.00  0.00    +0.000 C 
ATOM     29  C   UNL     1       3.763   1.380  19.420  0.00  0.00    +0.000 C 
ATOM     30  C   UNL     1       3.911   2.638  20.273  0.00  0.00    +0.000 C 
ENDBRANCH  22  24
ENDBRANCH  19  20
ENDBRANCH   4  19
TORSDOF 7
ENDMDL
MODEL 8
REMARK VINA RESULT:      -6.7      4.161      7.369
REMARK  Name = 
REMARK  10 active torsions:
REMARK  status: ('A' for Active; 'I' for Inactive)
REMARK    1  A    between atoms: C_1  and  C_2
REMARK    2  A    between atoms: C_2  and  O_3
REMARK    3  A    between atoms: O_3  and  C_4
REMARK    4  A    between atoms: C_4  and  C_6
REMARK    5  A    between atoms: C_8  and  C_9
REMARK    6  A    between atoms: C_12  and  C_13
REMARK    7  A    between atoms: N_16  and  C_17
REMARK    8  A    between atoms: C_17  and  C_18
REMARK    9  A    between atoms: N_20  and  C_21
REMARK   10  A    between atoms: C_28  and  C_29
REMARK                            x       y       z     vdW  Elec       q    Type
REMARK                         _______ _______ _______ _____ _____    ______ ____
ROOT
ATOM      1  C   UNL     1      -1.937  11.541  18.875  0.00  0.00    +0.000 A 
ATOM      2  C   UNL     1      -1.321  10.271  18.749  0.00  0.00    +0.000 A 
ATOM      3  C   UNL     1       0.003  10.348  19.157  0.00  0.00    +0.000 A 
ATOM      4  N   UNL     1       0.222  11.683  19.502  0.00  0.00    +0.000 N 
ATOM      5  C   UNL     1      -0.966  12.395  19.385  0.00  0.00    +0.000 A 
ATOM      6  C   UNL     1      -1.164  13.825  19.777  0.00  0.00    +0.000 C 
ENDROOT
BRANCH   3   7
ATOM      7  C   UNL     1       0.998   9.260  19.137  0.00  0.00    +0.000 A 
ATOM      8  C   UNL     1       1.150   8.449  20.271  0.00  0.00    +0.000 A 
ATOM      9  C   UNL     1       2.039   7.368  20.280  0.00  0.00    +0.000 A 
ATOM     10  C   UNL     1       2.804   7.074  19.151  0.00  0.00    +0.000 A 
ATOM     11  C   UNL     1       3.730   5.896  19.124  0.00  0.00    +0.000 C 
ATOM     12  C   UNL     1       2.690   7.898  18.030  0.00  0.00    +0.000 A 
ATOM     13  C   UNL     1       1.820   8.997  18.035  0.00  0.00    +0.000 A 
ENDBRANCH   3   7
BRANCH   1  14
ATOM     14  C   UNL     1      -3.328  11.898  18.603  0.00  0.00    +0.000 C 
ATOM     15  O   UNL     1      -4.170  12.065  19.480  0.00  0.00    +0.000 OA
BRANCH  14  16
ATOM     16  O   UNL     1      -3.603  11.944  17.267  0.00  0.00    +0.000 OA
BRANCH  16  18
ATOM     17  C   UNL     1      -3.203  10.634  15.313  0.00  0.00    +0.000 C 
ATOM     18  C   UNL     1      -3.870  10.666  16.676  0.00  0.00    +0.000 C 
ENDBRANCH  16  18
ENDBRANCH  14  16
ENDBRANCH   1  14
BRANCH   4  19
ATOM     19  C   UNL     1       1.501  12.261  19.909  0.00  0.00    +0.000 C 
BRANCH  19  20
ATOM     20  C   UNL     1       2.325  12.874  18.792  0.00  0.00    +0.000 C 
ATOM     21  O   UNL     1       2.431  12.306  17.706  0.00  0.00    +0.000 OA
ATOM     22  N   UNL     1       3.042  14.007  19.116  0.00  0.00    +0.000 N 
ATOM     23  H   UNL     1       2.764  14.513  19.949  0.00  0.00    +0.000 HD
BRANCH  22  24
ATOM     24  C   UNL     1       3.839  14.742  18.131  0.00  0.00    +0.000 C 
ATOM     25  C   UNL     1       3.650  16.256  18.303  0.00  0.00    +0.000 C 
ATOM     26  C   UNL     1       4.337  16.850  19.532  0.00  0.00    +0.000 C 
ATOM     27  C   UNL     1       5.780  17.270  19.277  0.00  0.00    +0.000 C 
ATOM     28  C   UNL     1       6.747  16.122  19.028  0.00  0.00    +0.000 C 
ATOM     29  C   UNL     1       6.387  15.226  17.844  0.00  0.00    +0.000 C 
ATOM     30  C   UNL     1       5.284  14.223  18.172  0.00  0.00    +0.000 C 
ENDBRANCH  22  24
ENDBRANCH  19  20
ENDBRANCH   4  19
TORSDOF 7
ENDMDL
MODEL 9
REMARK VINA RESULT:      -6.7      5.891     11.080
REMARK  Name = 
REMARK  10 active torsions:
REMARK  status: ('A' for Active; 'I' for Inactive)
REMARK    1  A    between atoms: C_1  and  C_2
REMARK    2  A    between atoms: C_2  and  O_3
REMARK    3  A    between atoms: O_3  and  C_4
REMARK    4  A    between atoms: C_4  and  C_6
REMARK    5  A    between atoms: C_8  and  C_9
REMARK    6  A    between atoms: C_12  and  C_13
REMARK    7  A    between atoms: N_16  and  C_17
REMARK    8  A    between atoms: C_17  and  C_18
REMARK    9  A    between atoms: N_20  and  C_21
REMARK   10  A    between atoms: C_28  and  C_29
REMARK                            x       y       z     vdW  Elec       q    Type
REMARK                         _______ _______ _______ _____ _____    ______ ____
ROOT
ATOM      1  C   UNL     1       2.901   4.282  20.079  0.00  0.00    +0.000 A 
ATOM      2  C   UNL     1       2.193   5.468  20.395  0.00  0.00    +0.000 A 
ATOM      3  C   UNL     1       2.475   6.449  19.455  0.00  0.00    +0.000 A 
ATOM      4  N   UNL     1       3.395   5.881  18.572  0.00  0.00    +0.000 N 
ATOM      5  C   UNL     1       3.611   4.552  18.915  0.00  0.00    +0.000 A 
ATOM      6  C   UNL     1       4.440   3.578  18.139  0.00  0.00    +0.000 C 
ENDROOT
BRANCH   3   7
ATOM      7  C   UNL     1       1.977   7.837  19.450  0.00  0.00    +0.000 A 
ATOM      8  C   UNL     1       2.059   8.590  18.270  0.00  0.00    +0.000 A 
ATOM      9  C   UNL     1       1.548   9.891  18.199  0.00  0.00    +0.000 A 
ATOM     10  C   UNL     1       0.943  10.473  19.313  0.00  0.00    +0.000 A 
ATOM     11  C   UNL     1       0.351  11.848  19.247  0.00  0.00    +0.000 C 
ATOM     12  C   UNL     1       0.892   9.748  20.505  0.00  0.00    +0.000 A 
ATOM     13  C   UNL     1       1.431   8.457  20.580  0.00  0.00    +0.000 A 
ENDBRANCH   3   7
BRANCH   1  14
ATOM     14  C   UNL     1       2.858   2.996  20.772  0.00  0.00    +0.000 C 
ATOM     15  O   UNL     1       3.828   2.492  21.330  0.00  0.00    +0.000 OA
BRANCH  14  16
ATOM     16  O   UNL     1       1.645   2.382  20.656  0.00  0.00    +0.000 OA
BRANCH  16  18
ATOM     17  C   UNL     1       0.437   2.566  18.607  0.00  0.00    +0.000 C 
ATOM     18  C   UNL     1       1.430   1.733  19.397  0.00  0.00    +0.000 C 
ENDBRANCH  16  18
ENDBRANCH  14  16
ENDBRANCH   1  14
BRANCH   4  19
ATOM     19  C   UNL     1       4.051   6.571  17.462  0.00  0.00    +0.000 C 
BRANCH  19  20
ATOM     20  C   UNL     1       5.389   5.996  17.036  0.00  0.00    +0.000 C 
ATOM     21  O   UNL     1       6.379   6.108  17.759  0.00  0.00    +0.000 OA
ATOM     22  N   UNL     1       5.451   5.480  15.759  0.00  0.00    +0.000 N 
ATOM     23  H   UNL     1       4.574   5.253  15.304  0.00  0.00    +0.000 HD
BRANCH  22  24
ATOM     24  C   UNL     1       6.656   4.842  15.226  0.00  0.00    +0.000 C 
ATOM     25  C   UNL     1       6.322   3.469  14.625  0.00  0.00    +0.000 C 
ATOM     26  C   UNL     1       5.573   3.519  13.294  0.00  0.00    +0.000 C 
ATOM     27  C   UNL     1       6.493   3.592  12.082  0.00  0.00    +0.000 C 
ATOM     28  C   UNL     1       7.263   4.897  11.940  0.00  0.00    +0.000 C 
ATOM     29  C   UNL     1       8.157   5.246  13.129  0.00  0.00    +0.000 C 
ATOM     30  C   UNL     1       7.379   5.835  14.303  0.00  0.00    +0.000 C 
ENDBRANCH  22  24
ENDBRANCH  19  20
ENDBRANCH   4  19
TORSDOF 7
ENDMDL
