MODEL 1
REMARK VINA RESULT:      -7.6      0.000      0.000
REMARK  Name = 
REMARK  9 active torsions:
REMARK  status: ('A' for Active; 'I' for Inactive)
REMARK    1  A    between atoms: C_1  and  C_2
REMARK    2  A    between atoms: C_2  and  C_3
REMARK    3  A    between atoms: C_3  and  C_4
REMARK    4  A    between atoms: C_7  and  O_8
REMARK    5  A    between atoms: O_8  and  S_9
REMARK    6  A    between atoms: S_9  and  C_12
REMARK    7  A    between atoms: C_15  and  N_16
REMARK    8  A    between atoms: N_19  and  C_20
REMARK    9  A    between atoms: C_20  and  C_21
REMARK                            x       y       z     vdW  Elec       q    Type
REMARK                         _______ _______ _______ _____ _____    ______ ____
ROOT
ATOM      1  C   UNL     1       2.298   4.729  18.823  0.00  0.00    +0.000 A 
ATOM      2  C   UNL     1       2.477   5.931  18.153  0.00  0.00    +0.000 A 
ATOM      3  C   UNL     1       2.272   7.133  18.848  0.00  0.00    +0.000 A 
ATOM      4  C   UNL     1       1.889   7.149  20.198  0.00  0.00    +0.000 A 
ATOM      5  C   UNL     1       1.720   5.927  20.857  0.00  0.00    +0.000 A 
ATOM      6  C   UNL     1       1.919   4.722  20.174  0.00  0.00    +0.000 A 
ENDROOT
BRANCH   4   7
ATOM      7  N   UNL     1       1.678   8.337  20.938  0.00  0.00    +0.000 N 
ATOM      8  C   UNL     1       0.918   9.414  20.548  0.00  0.00    +0.000 C 
ATOM      9  O   UNL     1       0.244   9.499  19.523  0.00  0.00    +0.000 OA
ATOM     10  N   UNL     1       0.980  10.465  21.432  0.00  0.00    +0.000 N 
ATOM     11  H   UNL     1       2.090   8.379  21.860  0.00  0.00    +0.000 HD
ATOM     12  H   UNL     1       1.457  10.373  22.315  0.00  0.00    +0.000 HD
BRANCH  10  13
ATOM     13  C   UNL     1       0.232  11.685  21.160  0.00  0.00    +0.000 C 
BRANCH  13  14
ATOM     14  C   UNL     1      -0.727  12.088  22.280  0.00  0.00    +0.000 C 
ATOM     15 CL   UNL     1      -1.218  10.666  23.240  0.00  0.00    +0.000 Cl
ENDBRANCH  13  14
ENDBRANCH  10  13
ENDBRANCH   4   7
BRANCH   1  16
ATOM     16  S   UNL     1       2.567   3.152  18.049  0.00  0.00    +0.000 S 
ATOM     17  O   UNL     1       2.028   3.284  16.708  0.00  0.00    +0.000 OA
ATOM     18  O   UNL     1       2.020   2.186  18.985  0.00  0.00    +0.000 OA
BRANCH  16  19
ATOM     19  O   UNL     1       4.186   2.926  17.939  0.00  0.00    +0.000 OA
BRANCH  19  23
ATOM     20  C   UNL     1       6.708   6.233  17.307  0.00  0.00    +0.000 A 
ATOM     21  C   UNL     1       5.992   5.637  16.259  0.00  0.00    +0.000 A 
ATOM     22  C   UNL     1       5.145   4.542  16.497  0.00  0.00    +0.000 A 
ATOM     23  C   UNL     1       5.022   4.013  17.781  0.00  0.00    +0.000 A 
ATOM     24  C   UNL     1       5.729   4.611  18.827  0.00  0.00    +0.000 A 
ATOM     25  C   UNL     1       6.569   5.704  18.592  0.00  0.00    +0.000 A 
BRANCH  20  26
ATOM     26  C   UNL     1       7.617   7.417  17.075  0.00  0.00    +0.000 C 
BRANCH  26  28
ATOM     27  C   UNL     1       8.509   9.447  18.286  0.00  0.00    +0.000 C 
ATOM     28  C   UNL     1       8.214   7.958  18.376  0.00  0.00    +0.000 C 
ENDBRANCH  26  28
ENDBRANCH  20  26
ENDBRANCH  19  23
ENDBRANCH  16  19
ENDBRANCH   1  16
TORSDOF 8
ENDMDL
MODEL 2
REMARK VINA RESULT:      -7.5      1.003      1.050
REMARK  Name = 
REMARK  9 active torsions:
REMARK  status: ('A' for Active; 'I' for Inactive)
REMARK    1  A    between atoms: C_1  and  C_2
REMARK    2  A    between atoms: C_2  and  C_3
REMARK    3  A    between atoms: C_3  and  C_4
REMARK    4  A    between atoms: C_7  and  O_8
REMARK    5  A    between atoms: O_8  and  S_9
REMARK    6  A    between atoms: S_9  and  C_12
REMARK    7  A    between atoms: C_15  and  N_16
REMARK    8  A    between atoms: N_19  and  C_20
REMARK    9  A    between atoms: C_20  and  C_21
REMARK                            x       y       z     vdW  Elec       q    Type
REMARK                         _______ _______ _______ _____ _____    ______ ____
ROOT
ATOM      1  C   UNL     1       2.189   4.690  18.847  0.00  0.00    +0.000 A 
ATOM      2  C   UNL     1       2.338   5.937  18.255  0.00  0.00    +0.000 A 
ATOM      3  C   UNL     1       2.144   7.087  19.038  0.00  0.00    +0.000 A 
ATOM      4  C   UNL     1       1.804   7.007  20.397  0.00  0.00    +0.000 A 
ATOM      5  C   UNL     1       1.665   5.740  20.975  0.00  0.00    +0.000 A 
ATOM      6  C   UNL     1       1.852   4.587  20.205  0.00  0.00    +0.000 A 
ENDROOT
BRANCH   4   7
ATOM      7  N   UNL     1       1.607   8.138  21.223  0.00  0.00    +0.000 N 
ATOM      8  C   UNL     1       0.410   8.561  21.751  0.00  0.00    +0.000 C 
ATOM      9  O   UNL     1      -0.675   7.994  21.647  0.00  0.00    +0.000 OA
ATOM     10  N   UNL     1       0.513   9.751  22.434  0.00  0.00    +0.000 N 
ATOM     11  H   UNL     1       2.431   8.660  21.486  0.00  0.00    +0.000 HD
ATOM     12  H   UNL     1       1.411  10.178  22.599  0.00  0.00    +0.000 HD
BRANCH  10  13
ATOM     13  C   UNL     1      -0.669  10.336  23.050  0.00  0.00    +0.000 C 
BRANCH  13  14
ATOM     14  C   UNL     1      -0.942  11.778  22.623  0.00  0.00    +0.000 C 
ATOM     15 CL   UNL     1      -0.164  12.137  21.057  0.00  0.00    +0.000 Cl
ENDBRANCH  13  14
ENDBRANCH  10  13
ENDBRANCH   4   7
BRANCH   1  16
ATOM     16  S   UNL     1       2.446   3.173  17.958  0.00  0.00    +0.000 S 
ATOM     17  O   UNL     1       2.034   3.451  16.594  0.00  0.00    +0.000 OA
ATOM     18  O   UNL     1       1.772   2.164  18.754  0.00  0.00    +0.000 OA
BRANCH  16  19
ATOM     19  O   UNL     1       4.055   2.866  17.962  0.00  0.00    +0.000 OA
BRANCH  19  23
ATOM     20  C   UNL     1       6.777   6.016  17.359  0.00  0.00    +0.000 A 
ATOM     21  C   UNL     1       6.113   5.397  16.291  0.00  0.00    +0.000 A 
ATOM     22  C   UNL     1       5.197   4.356  16.518  0.00  0.00    +0.000 A 
ATOM     23  C   UNL     1       4.953   3.904  17.813  0.00  0.00    +0.000 A 
ATOM     24  C   UNL     1       5.610   4.524  18.879  0.00  0.00    +0.000 A 
ATOM     25  C   UNL     1       6.517   5.563  18.655  0.00  0.00    +0.000 A 
BRANCH  20  26
ATOM     26  C   UNL     1       7.759   7.143  17.138  0.00  0.00    +0.000 C 
BRANCH  26  28
ATOM     27  C   UNL     1       8.466   9.325  18.196  0.00  0.00    +0.000 C 
ATOM     28  C   UNL     1       7.293   8.455  17.773  0.00  0.00    +0.000 C 
ENDBRANCH  26  28
ENDBRANCH  20  26
ENDBRANCH  19  23
ENDBRANCH  16  19
ENDBRANCH   1  16
TORSDOF 8
ENDMDL
MODEL 3
REMARK VINA RESULT:      -7.2      0.752      1.243
REMARK  Name = 
REMARK  9 active torsions:
REMARK  status: ('A' for Active; 'I' for Inactive)
REMARK    1  A    between atoms: C_1  and  C_2
REMARK    2  A    between atoms: C_2  and  C_3
REMARK    3  A    between atoms: C_3  and  C_4
REMARK    4  A    between atoms: C_7  and  O_8
REMARK    5  A    between atoms: O_8  and  S_9
REMARK    6  A    between atoms: S_9  and  C_12
REMARK    7  A    between atoms: C_15  and  N_16
REMARK    8  A    between atoms: N_19  and  C_20
REMARK    9  A    between atoms: C_20  and  C_21
REMARK                            x       y       z     vdW  Elec       q    Type
REMARK                         _______ _______ _______ _____ _____    ______ ____
ROOT
ATOM      1  C   UNL     1       2.779   4.787  18.620  0.00  0.00    +0.000 A 
ATOM      2  C   UNL     1       2.829   6.038  18.021  0.00  0.00    +0.000 A 
ATOM      3  C   UNL     1       2.460   7.166  18.772  0.00  0.00    +0.000 A 
ATOM      4  C   UNL     1       2.041   7.059  20.107  0.00  0.00    +0.000 A 
ATOM      5  C   UNL     1       2.005   5.790  20.694  0.00  0.00    +0.000 A 
ATOM      6  C   UNL     1       2.367   4.658  19.955  0.00  0.00    +0.000 A 
ENDROOT
BRANCH   4   7
ATOM      7  N   UNL     1       1.668   8.169  20.902  0.00  0.00    +0.000 N 
ATOM      8  C   UNL     1       1.046   9.312  20.460  0.00  0.00    +0.000 C 
ATOM      9  O   UNL     1       0.654   9.536  19.316  0.00  0.00    +0.000 OA
ATOM     10  N   UNL     1       0.898  10.260  21.446  0.00  0.00    +0.000 N 
ATOM     11  H   UNL     1       1.834   8.094  21.896  0.00  0.00    +0.000 HD
ATOM     12  H   UNL     1       1.136  10.054  22.403  0.00  0.00    +0.000 HD
BRANCH  10  13
ATOM     13  C   UNL     1       0.261  11.532  21.137  0.00  0.00    +0.000 C 
BRANCH  13  14
ATOM     14  C   UNL     1      -1.221  11.590  21.508  0.00  0.00    +0.000 C 
ATOM     15 CL   UNL     1      -1.435  12.149  23.189  0.00  0.00    +0.000 Cl
ENDBRANCH  13  14
ENDBRANCH  10  13
ENDBRANCH   4   7
BRANCH   1  16
ATOM     16  S   UNL     1       3.259   3.301  17.772  0.00  0.00    +0.000 S 
ATOM     17  O   UNL     1       2.110   2.929  16.966  0.00  0.00    +0.000 OA
ATOM     18  O   UNL     1       3.755   2.426  18.819  0.00  0.00    +0.000 OA
BRANCH  16  19
ATOM     19  O   UNL     1       4.496   3.683  16.769  0.00  0.00    +0.000 OA
BRANCH  19  23
ATOM     20  C   UNL     1       7.303   6.550  18.032  0.00  0.00    +0.000 A 
ATOM     21  C   UNL     1       7.022   5.404  18.791  0.00  0.00    +0.000 A 
ATOM     22  C   UNL     1       6.091   4.454  18.342  0.00  0.00    +0.000 A 
ATOM     23  C   UNL     1       5.410   4.649  17.141  0.00  0.00    +0.000 A 
ATOM     24  C   UNL     1       5.693   5.786  16.382  0.00  0.00    +0.000 A 
ATOM     25  C   UNL     1       6.624   6.731  16.825  0.00  0.00    +0.000 A 
BRANCH  20  26
ATOM     26  C   UNL     1       8.308   7.581  18.492  0.00  0.00    +0.000 C 
BRANCH  26  28
ATOM     27  C   UNL     1       8.889  10.038  18.568  0.00  0.00    +0.000 C 
ATOM     28  C   UNL     1       8.020   8.971  17.921  0.00  0.00    +0.000 C 
ENDBRANCH  26  28
ENDBRANCH  20  26
ENDBRANCH  19  23
ENDBRANCH  16  19
ENDBRANCH   1  16
TORSDOF 8
ENDMDL
MODEL 4
REMARK VINA RESULT:      -7.2      0.988      1.661
REMARK  Name = 
REMARK  9 active torsions:
REMARK  status: ('A' for Active; 'I' for Inactive)
REMARK    1  A    between atoms: C_1  and  C_2
REMARK    2  A    between atoms: C_2  and  C_3
REMARK    3  A    between atoms: C_3  and  C_4
REMARK    4  A    between atoms: C_7  and  O_8
REMARK    5  A    between atoms: O_8  and  S_9
REMARK    6  A    between atoms: S_9  and  C_12
REMARK    7  A    between atoms: C_15  and  N_16
REMARK    8  A    between atoms: N_19  and  C_20
REMARK    9  A    between atoms: C_20  and  C_21
REMARK                            x       y       z     vdW  Elec       q    Type
REMARK                         _______ _______ _______ _____ _____    ______ ____
ROOT
ATOM      1  C   UNL     1       2.226   4.822  19.044  0.00  0.00    +0.000 A 
ATOM      2  C   UNL     1       1.812   4.942  20.363  0.00  0.00    +0.000 A 
ATOM      3  C   UNL     1       1.587   6.224  20.890  0.00  0.00    +0.000 A 
ATOM      4  C   UNL     1       1.772   7.382  20.119  0.00  0.00    +0.000 A 
ATOM      5  C   UNL     1       2.183   7.239  18.790  0.00  0.00    +0.000 A 
ATOM      6  C   UNL     1       2.414   5.967  18.255  0.00  0.00    +0.000 A 
ENDROOT
BRANCH   4   7
ATOM      7  N   UNL     1       1.550   8.691  20.608  0.00  0.00    +0.000 N 
ATOM      8  C   UNL     1       0.895   9.705  19.949  0.00  0.00    +0.000 C 
ATOM      9  O   UNL     1       0.340   9.626  18.855  0.00  0.00    +0.000 OA
ATOM     10  N   UNL     1       0.921  10.897  20.634  0.00  0.00    +0.000 N 
ATOM     11  H   UNL     1       1.862   8.886  21.549  0.00  0.00    +0.000 HD
ATOM     12  H   UNL     1       1.296  10.951  21.568  0.00  0.00    +0.000 HD
BRANCH  10  13
ATOM     13  C   UNL     1       0.274  12.072  20.066  0.00  0.00    +0.000 C 
BRANCH  13  14
ATOM     14  C   UNL     1      -1.154  12.295  20.562  0.00  0.00    +0.000 C 
ATOM     15 CL   UNL     1      -2.341  11.856  19.304  0.00  0.00    +0.000 Cl
ENDBRANCH  13  14
ENDBRANCH  10  13
ENDBRANCH   4   7
BRANCH   1  16
ATOM     16  S   UNL     1       2.505   3.247  18.268  0.00  0.00    +0.000 S 
ATOM     17  O   UNL     1       2.001   3.391  16.914  0.00  0.00    +0.000 OA
ATOM     18  O   UNL     1       1.928   2.281  19.184  0.00  0.00    +0.000 OA
BRANCH  16  19
ATOM     19  O   UNL     1       4.124   3.012  18.198  0.00  0.00    +0.000 OA
BRANCH  19  23
ATOM     20  C   UNL     1       6.702   6.236  17.385  0.00  0.00    +0.000 A 
ATOM     21  C   UNL     1       6.549   5.718  18.679  0.00  0.00    +0.000 A 
ATOM     22  C   UNL     1       5.693   4.631  18.924  0.00  0.00    +0.000 A 
ATOM     23  C   UNL     1       4.959   4.065  17.883  0.00  0.00    +0.000 A 
ATOM     24  C   UNL     1       5.115   4.576  16.592  0.00  0.00    +0.000 A 
ATOM     25  C   UNL     1       5.970   5.654  16.346  0.00  0.00    +0.000 A 
BRANCH  20  26
ATOM     26  C   UNL     1       7.624   7.397  17.098  0.00  0.00    +0.000 C 
BRANCH  26  28
ATOM     27  C   UNL     1       8.518   9.471  18.230  0.00  0.00    +0.000 C 
ATOM     28  C   UNL     1       8.238   7.983  18.371  0.00  0.00    +0.000 C 
ENDBRANCH  26  28
ENDBRANCH  20  26
ENDBRANCH  19  23
ENDBRANCH  16  19
ENDBRANCH   1  16
TORSDOF 8
ENDMDL
MODEL 5
REMARK VINA RESULT:      -7.2      2.215      3.454
REMARK  Name = 
REMARK  9 active torsions:
REMARK  status: ('A' for Active; 'I' for Inactive)
REMARK    1  A    between atoms: C_1  and  C_2
REMARK    2  A    between atoms: C_2  and  C_3
REMARK    3  A    between atoms: C_3  and  C_4
REMARK    4  A    between atoms: C_7  and  O_8
REMARK    5  A    between atoms: O_8  and  S_9
REMARK    6  A    between atoms: S_9  and  C_12
REMARK    7  A    between atoms: C_15  and  N_16
REMARK    8  A    between atoms: N_19  and  C_20
REMARK    9  A    between atoms: C_20  and  C_21
REMARK                            x       y       z     vdW  Elec       q    Type
REMARK                         _______ _______ _______ _____ _____    ______ ____
ROOT
ATOM      1  C   UNL     1       2.422   6.602  19.158  0.00  0.00    +0.000 A 
ATOM      2  C   UNL     1       2.372   7.595  18.189  0.00  0.00    +0.000 A 
ATOM      3  C   UNL     1       1.801   8.835  18.517  0.00  0.00    +0.000 A 
ATOM      4  C   UNL     1       1.280   9.094  19.794  0.00  0.00    +0.000 A 
ATOM      5  C   UNL     1       1.347   8.082  20.758  0.00  0.00    +0.000 A 
ATOM      6  C   UNL     1       1.911   6.841  20.442  0.00  0.00    +0.000 A 
ENDROOT
BRANCH   4   7
ATOM      7  N   UNL     1       0.703  10.330  20.169  0.00  0.00    +0.000 N 
ATOM      8  C   UNL     1      -0.530  10.801  19.788  0.00  0.00    +0.000 C 
ATOM      9  O   UNL     1      -1.364  10.201  19.111  0.00  0.00    +0.000 OA
ATOM     10  N   UNL     1      -0.780  12.079  20.229  0.00  0.00    +0.000 N 
ATOM     11  H   UNL     1       1.230  10.902  20.815  0.00  0.00    +0.000 HD
ATOM     12  H   UNL     1      -0.142  12.545  20.855  0.00  0.00    +0.000 HD
BRANCH  10  13
ATOM     13  C   UNL     1      -2.044  12.723  19.903  0.00  0.00    +0.000 C 
BRANCH  13  14
ATOM     14  C   UNL     1      -2.846  13.169  21.126  0.00  0.00    +0.000 C 
ATOM     15 CL   UNL     1      -2.491  12.130  22.534  0.00  0.00    +0.000 Cl
ENDBRANCH  13  14
ENDBRANCH  10  13
ENDBRANCH   4   7
BRANCH   1  16
ATOM     16  S   UNL     1       3.155   5.011  18.860  0.00  0.00    +0.000 S 
ATOM     17  O   UNL     1       2.463   4.479  17.700  0.00  0.00    +0.000 OA
ATOM     18  O   UNL     1       3.097   4.335  20.143  0.00  0.00    +0.000 OA
BRANCH  16  19
ATOM     19  O   UNL     1       4.724   5.258  18.460  0.00  0.00    +0.000 OA
BRANCH  19  23
ATOM     20  C   UNL     1       6.009   4.636  14.503  0.00  0.00    +0.000 A 
ATOM     21  C   UNL     1       6.011   3.605  15.453  0.00  0.00    +0.000 A 
ATOM     22  C   UNL     1       5.564   3.833  16.765  0.00  0.00    +0.000 A 
ATOM     23  C   UNL     1       5.133   5.101  17.151  0.00  0.00    +0.000 A 
ATOM     24  C   UNL     1       5.125   6.128  16.204  0.00  0.00    +0.000 A 
ATOM     25  C   UNL     1       5.565   5.901  14.897  0.00  0.00    +0.000 A 
BRANCH  20  26
ATOM     26  C   UNL     1       6.476   4.411  13.084  0.00  0.00    +0.000 C 
BRANCH  26  28
ATOM     27  C   UNL     1       4.626   3.343  11.736  0.00  0.00    +0.000 C 
ATOM     28  C   UNL     1       5.927   3.113  12.488  0.00  0.00    +0.000 C 
ENDBRANCH  26  28
ENDBRANCH  20  26
ENDBRANCH  19  23
ENDBRANCH  16  19
ENDBRANCH   1  16
TORSDOF 8
ENDMDL
MODEL 6
REMARK VINA RESULT:      -7.1      4.828      7.954
REMARK  Name = 
REMARK  9 active torsions:
REMARK  status: ('A' for Active; 'I' for Inactive)
REMARK    1  A    between atoms: C_1  and  C_2
REMARK    2  A    between atoms: C_2  and  C_3
REMARK    3  A    between atoms: C_3  and  C_4
REMARK    4  A    between atoms: C_7  and  O_8
REMARK    5  A    between atoms: O_8  and  S_9
REMARK    6  A    between atoms: S_9  and  C_12
REMARK    7  A    between atoms: C_15  and  N_16
REMARK    8  A    between atoms: N_19  and  C_20
REMARK    9  A    between atoms: C_20  and  C_21
REMARK                            x       y       z     vdW  Elec       q    Type
REMARK                         _______ _______ _______ _____ _____    ______ ____
ROOT
ATOM      1  C   UNL     1       2.897   4.278  19.348  0.00  0.00    +0.000 A 
ATOM      2  C   UNL     1       2.344   3.825  18.158  0.00  0.00    +0.000 A 
ATOM      3  C   UNL     1       3.197   3.537  17.080  0.00  0.00    +0.000 A 
ATOM      4  C   UNL     1       4.588   3.697  17.176  0.00  0.00    +0.000 A 
ATOM      5  C   UNL     1       5.125   4.148  18.387  0.00  0.00    +0.000 A 
ATOM      6  C   UNL     1       4.285   4.441  19.467  0.00  0.00    +0.000 A 
ENDROOT
BRANCH   4   7
ATOM      7  N   UNL     1       5.483   3.412  16.118  0.00  0.00    +0.000 N 
ATOM      8  C   UNL     1       5.833   4.263  15.097  0.00  0.00    +0.000 C 
ATOM      9  O   UNL     1       5.477   5.433  14.967  0.00  0.00    +0.000 OA
ATOM     10  N   UNL     1       6.648   3.674  14.159  0.00  0.00    +0.000 N 
ATOM     11  H   UNL     1       5.944   2.513  16.140  0.00  0.00    +0.000 HD
ATOM     12  H   UNL     1       7.015   2.746  14.301  0.00  0.00    +0.000 HD
BRANCH  10  13
ATOM     13  C   UNL     1       7.104   4.444  13.010  0.00  0.00    +0.000 C 
BRANCH  13  14
ATOM     14  C   UNL     1       6.870   3.751  11.667  0.00  0.00    +0.000 C 
ATOM     15 CL   UNL     1       5.684   2.428  11.831  0.00  0.00    +0.000 Cl
ENDBRANCH  13  14
ENDBRANCH  10  13
ENDBRANCH   4   7
BRANCH   1  16
ATOM     16  S   UNL     1       1.913   4.636  20.784  0.00  0.00    +0.000 S 
ATOM     17  O   UNL     1       2.322   3.666  21.784  0.00  0.00    +0.000 OA
ATOM     18  O   UNL     1       0.548   4.676  20.293  0.00  0.00    +0.000 OA
BRANCH  16  19
ATOM     19  O   UNL     1       2.332   6.131  21.308  0.00  0.00    +0.000 OA
BRANCH  19  23
ATOM     20  C   UNL     1       0.806   9.510  19.321  0.00  0.00    +0.000 A 
ATOM     21  C   UNL     1       1.738   8.654  18.717  0.00  0.00    +0.000 A 
ATOM     22  C   UNL     1       2.223   7.523  19.395  0.00  0.00    +0.000 A 
ATOM     23  C   UNL     1       1.802   7.248  20.695  0.00  0.00    +0.000 A 
ATOM     24  C   UNL     1       0.869   8.096  21.296  0.00  0.00    +0.000 A 
ATOM     25  C   UNL     1       0.381   9.219  20.620  0.00  0.00    +0.000 A 
BRANCH  20  26
ATOM     26  C   UNL     1       0.264  10.726  18.607  0.00  0.00    +0.000 C 
BRANCH  26  28
ATOM     27  C   UNL     1      -1.770   9.908  17.351  0.00  0.00    +0.000 C 
ATOM     28  C   UNL     1      -1.264  10.724  18.530  0.00  0.00    +0.000 C 
ENDBRANCH  26  28
ENDBRANCH  20  26
ENDBRANCH  19  23
ENDBRANCH  16  19
ENDBRANCH   1  16
TORSDOF 8
ENDMDL
MODEL 7
REMARK VINA RESULT:      -7.1      1.047      1.486
REMARK  Name = 
REMARK  9 active torsions:
REMARK  status: ('A' for Active; 'I' for Inactive)
REMARK    1  A    between atoms: C_1  and  C_2
REMARK    2  A    between atoms: C_2  and  C_3
REMARK    3  A    between atoms: C_3  and  C_4
REMARK    4  A    between atoms: C_7  and  O_8
REMARK    5  A    between atoms: O_8  and  S_9
REMARK    6  A    between atoms: S_9  and  C_12
REMARK    7  A    between atoms: C_15  and  N_16
REMARK    8  A    between atoms: N_19  and  C_20
REMARK    9  A    between atoms: C_20  and  C_21
REMARK                            x       y       z     vdW  Elec       q    Type
REMARK                         _______ _______ _______ _____ _____    ______ ____
ROOT
ATOM      1  C   UNL     1       2.324   5.585  18.906  0.00  0.00    +0.000 A 
ATOM      2  C   UNL     1       2.026   5.772  20.249  0.00  0.00    +0.000 A 
ATOM      3  C   UNL     1       1.765   7.071  20.712  0.00  0.00    +0.000 A 
ATOM      4  C   UNL     1       1.799   8.182  19.855  0.00  0.00    +0.000 A 
ATOM      5  C   UNL     1       2.095   7.971  18.503  0.00  0.00    +0.000 A 
ATOM      6  C   UNL     1       2.361   6.681  18.031  0.00  0.00    +0.000 A 
ENDROOT
BRANCH   4   7
ATOM      7  N   UNL     1       1.536   9.506  20.277  0.00  0.00    +0.000 N 
ATOM      8  C   UNL     1       0.314  10.011  20.654  0.00  0.00    +0.000 C 
ATOM      9  O   UNL     1      -0.739   9.383  20.747  0.00  0.00    +0.000 OA
ATOM     10  N   UNL     1       0.347  11.360  20.920  0.00  0.00    +0.000 N 
ATOM     11  H   UNL     1       2.329  10.127  20.353  0.00  0.00    +0.000 HD
ATOM     12  H   UNL     1       1.220  11.865  20.932  0.00  0.00    +0.000 HD
BRANCH  10  13
ATOM     13  C   UNL     1      -0.869  12.048  21.328  0.00  0.00    +0.000 C 
BRANCH  13  14
ATOM     14  C   UNL     1      -1.052  12.140  22.843  0.00  0.00    +0.000 C 
ATOM     15 CL   UNL     1      -2.766  11.926  23.292  0.00  0.00    +0.000 Cl
ENDBRANCH  13  14
ENDBRANCH  10  13
ENDBRANCH   4   7
BRANCH   1  16
ATOM     16  S   UNL     1       2.635   3.980  18.209  0.00  0.00    +0.000 S 
ATOM     17  O   UNL     1       1.454   3.665  17.426  0.00  0.00    +0.000 OA
ATOM     18  O   UNL     1       3.026   3.159  19.340  0.00  0.00    +0.000 OA
BRANCH  16  19
ATOM     19  O   UNL     1       3.910   4.124  17.191  0.00  0.00    +0.000 OA
BRANCH  19  23
ATOM     20  C   UNL     1       7.165   6.618  18.128  0.00  0.00    +0.000 A 
ATOM     21  C   UNL     1       6.413   6.791  16.958  0.00  0.00    +0.000 A 
ATOM     22  C   UNL     1       5.321   5.954  16.673  0.00  0.00    +0.000 A 
ATOM     23  C   UNL     1       4.984   4.918  17.541  0.00  0.00    +0.000 A 
ATOM     24  C   UNL     1       5.729   4.748  18.711  0.00  0.00    +0.000 A 
ATOM     25  C   UNL     1       6.813   5.583  18.998  0.00  0.00    +0.000 A 
BRANCH  20  26
ATOM     26  C   UNL     1       8.338   7.512  18.458  0.00  0.00    +0.000 C 
BRANCH  26  28
ATOM     27  C   UNL     1       8.941   9.951  18.720  0.00  0.00    +0.000 C 
ATOM     28  C   UNL     1       8.165   8.928  17.905  0.00  0.00    +0.000 C 
ENDBRANCH  26  28
ENDBRANCH  20  26
ENDBRANCH  19  23
ENDBRANCH  16  19
ENDBRANCH   1  16
TORSDOF 8
ENDMDL
MODEL 8
REMARK VINA RESULT:      -7.0      4.827      7.684
REMARK  Name = 
REMARK  9 active torsions:
REMARK  status: ('A' for Active; 'I' for Inactive)
REMARK    1  A    between atoms: C_1  and  C_2
REMARK    2  A    between atoms: C_2  and  C_3
REMARK    3  A    between atoms: C_3  and  C_4
REMARK    4  A    between atoms: C_7  and  O_8
REMARK    5  A    between atoms: O_8  and  S_9
REMARK    6  A    between atoms: S_9  and  C_12
REMARK    7  A    between atoms: C_15  and  N_16
REMARK    8  A    between atoms: N_19  and  C_20
REMARK    9  A    between atoms: C_20  and  C_21
REMARK                            x       y       z     vdW  Elec       q    Type
REMARK                         _______ _______ _______ _____ _____    ______ ____
ROOT
ATOM      1  C   UNL     1       2.830   4.169  19.436  0.00  0.00    +0.000 A 
ATOM      2  C   UNL     1       2.277   3.781  18.223  0.00  0.00    +0.000 A 
ATOM      3  C   UNL     1       3.133   3.507  17.144  0.00  0.00    +0.000 A 
ATOM      4  C   UNL     1       4.527   3.617  17.260  0.00  0.00    +0.000 A 
ATOM      5  C   UNL     1       5.064   4.002  18.493  0.00  0.00    +0.000 A 
ATOM      6  C   UNL     1       4.221   4.282  19.575  0.00  0.00    +0.000 A 
ENDROOT
BRANCH   4   7
ATOM      7  N   UNL     1       5.425   3.343  16.202  0.00  0.00    +0.000 N 
ATOM      8  C   UNL     1       5.742   4.189  15.166  0.00  0.00    +0.000 C 
ATOM      9  O   UNL     1       5.350   5.345  15.020  0.00  0.00    +0.000 OA
ATOM     10  N   UNL     1       6.570   3.610  14.232  0.00  0.00    +0.000 N 
ATOM     11  H   UNL     1       5.913   2.459  16.235  0.00  0.00    +0.000 HD
ATOM     12  H   UNL     1       6.967   2.697  14.386  0.00  0.00    +0.000 HD
BRANCH  10  13
ATOM     13  C   UNL     1       6.996   4.376  13.069  0.00  0.00    +0.000 C 
BRANCH  13  14
ATOM     14  C   UNL     1       6.880   3.614  11.749  0.00  0.00    +0.000 C 
ATOM     15 CL   UNL     1       5.373   2.659  11.694  0.00  0.00    +0.000 Cl
ENDBRANCH  13  14
ENDBRANCH  10  13
ENDBRANCH   4   7
BRANCH   1  16
ATOM     16  S   UNL     1       1.841   4.504  20.874  0.00  0.00    +0.000 S 
ATOM     17  O   UNL     1       2.275   3.543  21.872  0.00  0.00    +0.000 OA
ATOM     18  O   UNL     1       0.475   4.513  20.385  0.00  0.00    +0.000 OA
BRANCH  16  19
ATOM     19  O   UNL     1       2.227   6.008  21.398  0.00  0.00    +0.000 OA
BRANCH  19  23
ATOM     20  C   UNL     1       1.056   9.411  19.220  0.00  0.00    +0.000 A 
ATOM     21  C   UNL     1       0.616   9.184  20.531  0.00  0.00    +0.000 A 
ATOM     22  C   UNL     1       1.032   8.047  21.244  0.00  0.00    +0.000 A 
ATOM     23  C   UNL     1       1.872   7.110  20.646  0.00  0.00    +0.000 A 
ATOM     24  C   UNL     1       2.317   7.338  19.341  0.00  0.00    +0.000 A 
ATOM     25  C   UNL     1       1.908   8.471  18.632  0.00  0.00    +0.000 A 
BRANCH  20  26
ATOM     26  C   UNL     1       0.629  10.631  18.438  0.00  0.00    +0.000 C 
BRANCH  26  28
ATOM     27  C   UNL     1       2.429  12.388  18.204  0.00  0.00    +0.000 C 
ATOM     28  C   UNL     1       1.222  11.923  19.004  0.00  0.00    +0.000 C 
ENDBRANCH  26  28
ENDBRANCH  20  26
ENDBRANCH  19  23
ENDBRANCH  16  19
ENDBRANCH   1  16
TORSDOF 8
ENDMDL
MODEL 9
REMARK VINA RESULT:      -7.0      0.889      1.606
REMARK  Name = 
REMARK  9 active torsions:
REMARK  status: ('A' for Active; 'I' for Inactive)
REMARK    1  A    between atoms: C_1  and  C_2
REMARK    2  A    between atoms: C_2  and  C_3
REMARK    3  A    between atoms: C_3  and  C_4
REMARK    4  A    between atoms: C_7  and  O_8
REMARK    5  A    between atoms: O_8  and  S_9
REMARK    6  A    between atoms: S_9  and  C_12
REMARK    7  A    between atoms: C_15  and  N_16
REMARK    8  A    between atoms: N_19  and  C_20
REMARK    9  A    between atoms: C_20  and  C_21
REMARK                            x       y       z     vdW  Elec       q    Type
REMARK                         _______ _______ _______ _____ _____    ______ ____
ROOT
ATOM      1  C   UNL     1       2.672   4.940  18.747  0.00  0.00    +0.000 A 
ATOM      2  C   UNL     1       2.492   4.794  20.115  0.00  0.00    +0.000 A 
ATOM      3  C   UNL     1       2.207   5.931  20.888  0.00  0.00    +0.000 A 
ATOM      4  C   UNL     1       2.104   7.207  20.313  0.00  0.00    +0.000 A 
ATOM      5  C   UNL     1       2.283   7.332  18.931  0.00  0.00    +0.000 A 
ATOM      6  C   UNL     1       2.570   6.206  18.151  0.00  0.00    +0.000 A 
ENDROOT
BRANCH   4   7
ATOM      7  N   UNL     1       1.812   8.378  21.053  0.00  0.00    +0.000 N 
ATOM      8  C   UNL     1       0.690   9.161  20.926  0.00  0.00    +0.000 C 
ATOM      9  O   UNL     1      -0.275   8.942  20.196  0.00  0.00    +0.000 OA
ATOM     10  N   UNL     1       0.730  10.291  21.709  0.00  0.00    +0.000 N 
ATOM     11  H   UNL     1       2.471   8.637  21.774  0.00  0.00    +0.000 HD
ATOM     12  H   UNL     1       1.474  10.435  22.374  0.00  0.00    +0.000 HD
BRANCH  10  13
ATOM     13  C   UNL     1      -0.384  11.228  21.685  0.00  0.00    +0.000 C 
BRANCH  13  14
ATOM     14  C   UNL     1      -1.259  11.184  22.938  0.00  0.00    +0.000 C 
ATOM     15 CL   UNL     1      -1.784  12.825  23.406  0.00  0.00    +0.000 Cl
ENDBRANCH  13  14
ENDBRANCH  10  13
ENDBRANCH   4   7
BRANCH   1  16
ATOM     16  S   UNL     1       2.999   3.563  17.672  0.00  0.00    +0.000 S 
ATOM     17  O   UNL     1       1.774   3.361  16.921  0.00  0.00    +0.000 OA
ATOM     18  O   UNL     1       3.520   2.530  18.549  0.00  0.00    +0.000 OA
BRANCH  16  19
ATOM     19  O   UNL     1       4.179   4.019  16.631  0.00  0.00    +0.000 OA
BRANCH  19  23
ATOM     20  C   UNL     1       7.207   6.600  17.997  0.00  0.00    +0.000 A 
ATOM     21  C   UNL     1       7.039   5.312  18.524  0.00  0.00    +0.000 A 
ATOM     22  C   UNL     1       6.029   4.463  18.042  0.00  0.00    +0.000 A 
ATOM     23  C   UNL     1       5.158   4.900  17.045  0.00  0.00    +0.000 A 
ATOM     24  C   UNL     1       5.328   6.181  16.515  0.00  0.00    +0.000 A 
ATOM     25  C   UNL     1       6.336   7.025  16.990  0.00  0.00    +0.000 A 
BRANCH  20  26
ATOM     26  C   UNL     1       8.292   7.527  18.494  0.00  0.00    +0.000 C 
BRANCH  26  28
ATOM     27  C   UNL     1       8.969   9.949  18.727  0.00  0.00    +0.000 C 
ATOM     28  C   UNL     1       8.152   8.943  17.932  0.00  0.00    +0.000 C 
ENDBRANCH  26  28
ENDBRANCH  20  26
ENDBRANCH  19  23
ENDBRANCH  16  19
ENDBRANCH   1  16
TORSDOF 8
ENDMDL
