MODEL 1
REMARK VINA RESULT:      -7.6      0.000      0.000
REMARK  Name = 
REMARK  10 active torsions:
REMARK  status: ('A' for Active; 'I' for Inactive)
REMARK    1  A    between atoms: C_2  and  C_25
REMARK    2  A    between atoms: N_3  and  C_4
REMARK    3  A    between atoms: C_4  and  C_5
REMARK    4  A    between atoms: C_5  and  C_6
REMARK    5  A    between atoms: C_6  and  N_7
REMARK    6  A    between atoms: N_10  and  C_11
REMARK    7  A    between atoms: C_11  and  C_12
REMARK    8  A    between atoms: C_12  and  C_13
REMARK    9  A    between atoms: C_13  and  N_14
REMARK   10  A    between atoms: C_15  and  C_17
REMARK                            x       y       z     vdW  Elec       q    Type
REMARK                         _______ _______ _______ _____ _____    ______ ____
ROOT
ATOM      1  N   UNL     1       2.639   6.716  20.157  0.00  0.00    +0.000 NA
ATOM      2  C   UNL     1       2.062   5.628  20.976  0.00  0.00    +0.000 C 
ATOM      3  C   UNL     1       1.083   4.718  20.204  0.00  0.00    +0.000 C 
ATOM      4  N   UNL     1       1.680   4.098  19.001  0.00  0.00    +0.000 NA
ATOM      5  C   UNL     1       2.240   5.180  18.157  0.00  0.00    +0.000 C 
ATOM      6  C   UNL     1       3.190   6.149  18.905  0.00  0.00    +0.000 C 
ENDROOT
BRANCH   1   7
ATOM      7  C   UNL     1       1.676   7.796  19.882  0.00  0.00    +0.000 C 
BRANCH   7   8
ATOM      8  C   UNL     1       1.138   8.471  21.155  0.00  0.00    +0.000 C 
BRANCH   8   9
ATOM      9  C   UNL     1       0.671   9.889  20.852  0.00  0.00    +0.000 C 
BRANCH   9  12
ATOM     10  N   UNL     1       0.579  10.839  18.113  0.00  0.00    +0.000 NA
ATOM     11  C   UNL     1      -0.500  10.459  18.725  0.00  0.00    +0.000 C 
ATOM     12  N   UNL     1      -0.491   9.917  19.991  0.00  0.00    +0.000 N 
ATOM     13  H   UNL     1       1.387  10.677  18.713  0.00  0.00    +0.000 HD
ATOM     14  H   UNL     1      -1.411   9.803  20.414  0.00  0.00    +0.000 HD
BRANCH  11  15
ATOM     15  C   UNL     1      -1.823  10.621  18.018  0.00  0.00    +0.000 A 
ATOM     16  C   UNL     1      -2.054   9.932  16.832  0.00  0.00    +0.000 A 
ATOM     17  C   UNL     1      -3.269  10.119  16.188  0.00  0.00    +0.000 A 
ATOM     18  C   UNL     1      -4.206  10.981  16.744  0.00  0.00    +0.000 A 
ATOM     19  C   UNL     1      -3.889  11.621  17.936  0.00  0.00    +0.000 A 
ATOM     20  N   UNL     1      -2.719  11.466  18.598  0.00  0.00    +0.000 NA
ENDBRANCH  11  15
ENDBRANCH   9  12
ENDBRANCH   8   9
ENDBRANCH   7   8
ENDBRANCH   1   7
BRANCH   4  21
ATOM     21  C   UNL     1       2.714   3.097  19.328  0.00  0.00    +0.000 C 
BRANCH  21  22
ATOM     22  C   UNL     1       2.804   1.938  18.325  0.00  0.00    +0.000 C 
BRANCH  22  23
ATOM     23  C   UNL     1       3.905   2.184  17.302  0.00  0.00    +0.000 C 
BRANCH  23  24
ATOM     24  N   UNL     1       4.708   3.330  17.656  0.00  0.00    +0.000 N 
ATOM     25  C   UNL     1       5.707   3.877  16.888  0.00  0.00    +0.000 C 
ATOM     26  N   UNL     1       5.968   3.479  15.681  0.00  0.00    +0.000 NA
ATOM     27  H   UNL     1       4.617   3.724  18.592  0.00  0.00    +0.000 HD
ATOM     28  H   UNL     1       5.329   2.724  15.430  0.00  0.00    +0.000 HD
BRANCH  25  29
ATOM     29  C   UNL     1       6.529   4.991  17.483  0.00  0.00    +0.000 A 
ATOM     30  C   UNL     1       6.636   6.206  16.820  0.00  0.00    +0.000 A 
ATOM     31  C   UNL     1       7.413   7.200  17.400  0.00  0.00    +0.000 A 
ATOM     32  C   UNL     1       8.051   6.950  18.608  0.00  0.00    +0.000 A 
ATOM     33  C   UNL     1       7.885   5.704  19.198  0.00  0.00    +0.000 A 
ATOM     34  N   UNL     1       7.133   4.711  18.672  0.00  0.00    +0.000 NA
ENDBRANCH  25  29
ENDBRANCH  23  24
ENDBRANCH  22  23
ENDBRANCH  21  22
ENDBRANCH   4  21
TORSDOF 10
ENDMDL
MODEL 2
REMARK VINA RESULT:      -7.4      4.116      8.309
REMARK  Name = 
REMARK  10 active torsions:
REMARK  status: ('A' for Active; 'I' for Inactive)
REMARK    1  A    between atoms: C_2  and  C_25
REMARK    2  A    between atoms: N_3  and  C_4
REMARK    3  A    between atoms: C_4  and  C_5
REMARK    4  A    between atoms: C_5  and  C_6
REMARK    5  A    between atoms: C_6  and  N_7
REMARK    6  A    between atoms: N_10  and  C_11
REMARK    7  A    between atoms: C_11  and  C_12
REMARK    8  A    between atoms: C_12  and  C_13
REMARK    9  A    between atoms: C_13  and  N_14
REMARK   10  A    between atoms: C_15  and  C_17
REMARK                            x       y       z     vdW  Elec       q    Type
REMARK                         _______ _______ _______ _____ _____    ______ ____
ROOT
ATOM      1  N   UNL     1       6.048   6.583  18.068  0.00  0.00    +0.000 NA
ATOM      2  C   UNL     1       5.323   6.590  16.778  0.00  0.00    +0.000 C 
ATOM      3  C   UNL     1       5.545   5.320  15.930  0.00  0.00    +0.000 C 
ATOM      4  N   UNL     1       5.183   4.071  16.635  0.00  0.00    +0.000 NA
ATOM      5  C   UNL     1       5.924   4.037  17.918  0.00  0.00    +0.000 C 
ATOM      6  C   UNL     1       5.770   5.316  18.780  0.00  0.00    +0.000 C 
ENDROOT
BRANCH   1   7
ATOM      7  C   UNL     1       7.495   6.806  17.909  0.00  0.00    +0.000 C 
BRANCH   7   8
ATOM      8  C   UNL     1       7.846   8.233  17.455  0.00  0.00    +0.000 C 
BRANCH   8   9
ATOM      9  C   UNL     1       8.468   9.021  18.600  0.00  0.00    +0.000 C 
BRANCH   9  12
ATOM     10  N   UNL     1       9.505  11.152  20.271  0.00  0.00    +0.000 NA
ATOM     11  C   UNL     1       9.539  11.242  18.977  0.00  0.00    +0.000 C 
ATOM     12  N   UNL     1       9.141  10.218  18.146  0.00  0.00    +0.000 N 
ATOM     13  H   UNL     1       9.144  10.238  20.542  0.00  0.00    +0.000 HD
ATOM     14  H   UNL     1       9.074  10.469  17.160  0.00  0.00    +0.000 HD
BRANCH  11  15
ATOM     15  C   UNL     1      10.032  12.526  18.358  0.00  0.00    +0.000 A 
ATOM     16  C   UNL     1      11.025  12.480  17.386  0.00  0.00    +0.000 A 
ATOM     17  C   UNL     1      11.479  13.677  16.851  0.00  0.00    +0.000 A 
ATOM     18  C   UNL     1      10.932  14.872  17.302  0.00  0.00    +0.000 A 
ATOM     19  C   UNL     1       9.939  14.819  18.272  0.00  0.00    +0.000 A 
ATOM     20  N   UNL     1       9.466  13.675  18.818  0.00  0.00    +0.000 NA
ENDBRANCH  11  15
ENDBRANCH   9  12
ENDBRANCH   8   9
ENDBRANCH   7   8
ENDBRANCH   1   7
BRANCH   4  21
ATOM     21  C   UNL     1       3.731   3.944  16.862  0.00  0.00    +0.000 C 
BRANCH  21  22
ATOM     22  C   UNL     1       3.348   2.856  17.876  0.00  0.00    +0.000 C 
BRANCH  22  23
ATOM     23  C   UNL     1       2.333   3.380  18.883  0.00  0.00    +0.000 C 
BRANCH  23  24
ATOM     24  N   UNL     1       2.170   4.810  18.773  0.00  0.00    +0.000 N 
ATOM     25  C   UNL     1       2.311   5.714  19.797  0.00  0.00    +0.000 C 
ATOM     26  N   UNL     1       2.723   5.381  20.982  0.00  0.00    +0.000 NA
ATOM     27  H   UNL     1       1.824   5.200  17.897  0.00  0.00    +0.000 HD
ATOM     28  H   UNL     1       2.908   4.378  21.003  0.00  0.00    +0.000 HD
BRANCH  25  29
ATOM     29  C   UNL     1       1.969   7.156  19.522  0.00  0.00    +0.000 A 
ATOM     30  C   UNL     1       1.370   7.928  20.508  0.00  0.00    +0.000 A 
ATOM     31  C   UNL     1       1.062   9.248  20.207  0.00  0.00    +0.000 A 
ATOM     32  C   UNL     1       1.358   9.747  18.946  0.00  0.00    +0.000 A 
ATOM     33  C   UNL     1       1.959   8.900  18.024  0.00  0.00    +0.000 A 
ATOM     34  N   UNL     1       2.282   7.611  18.276  0.00  0.00    +0.000 NA
ENDBRANCH  25  29
ENDBRANCH  23  24
ENDBRANCH  22  23
ENDBRANCH  21  22
ENDBRANCH   4  21
TORSDOF 10
ENDMDL
MODEL 3
REMARK VINA RESULT:      -7.4      6.644     11.316
REMARK  Name = 
REMARK  10 active torsions:
REMARK  status: ('A' for Active; 'I' for Inactive)
REMARK    1  A    between atoms: C_2  and  C_25
REMARK    2  A    between atoms: N_3  and  C_4
REMARK    3  A    between atoms: C_4  and  C_5
REMARK    4  A    between atoms: C_5  and  C_6
REMARK    5  A    between atoms: C_6  and  N_7
REMARK    6  A    between atoms: N_10  and  C_11
REMARK    7  A    between atoms: C_11  and  C_12
REMARK    8  A    between atoms: C_12  and  C_13
REMARK    9  A    between atoms: C_13  and  N_14
REMARK   10  A    between atoms: C_15  and  C_17
REMARK                            x       y       z     vdW  Elec       q    Type
REMARK                         _______ _______ _______ _____ _____    ______ ____
ROOT
ATOM      1  N   UNL     1       9.388  12.041  19.283  0.00  0.00    +0.000 NA
ATOM      2  C   UNL     1      10.310  12.745  20.201  0.00  0.00    +0.000 C 
ATOM      3  C   UNL     1      11.803  12.495  19.898  0.00  0.00    +0.000 C 
ATOM      4  N   UNL     1      12.192  12.856  18.518  0.00  0.00    +0.000 NA
ATOM      5  C   UNL     1      11.293  12.136  17.586  0.00  0.00    +0.000 C 
ATOM      6  C   UNL     1       9.783  12.319  17.883  0.00  0.00    +0.000 C 
ENDROOT
BRANCH   1   7
ATOM      7  C   UNL     1       9.315  10.594  19.547  0.00  0.00    +0.000 C 
BRANCH   7   8
ATOM      8  C   UNL     1       8.629   9.803  18.420  0.00  0.00    +0.000 C 
BRANCH   8   9
ATOM      9  C   UNL     1       8.624   8.314  18.739  0.00  0.00    +0.000 C 
BRANCH   9  12
ATOM     10  N   UNL     1       7.729   5.576  19.080  0.00  0.00    +0.000 NA
ATOM     11  C   UNL     1       7.490   6.225  17.981  0.00  0.00    +0.000 C 
ATOM     12  N   UNL     1       7.816   7.552  17.811  0.00  0.00    +0.000 N 
ATOM     13  H   UNL     1       8.182   6.195  19.751  0.00  0.00    +0.000 HD
ATOM     14  H   UNL     1       7.716   7.898  16.858  0.00  0.00    +0.000 HD
BRANCH  11  15
ATOM     15  C   UNL     1       6.830   5.491  16.842  0.00  0.00    +0.000 A 
ATOM     16  C   UNL     1       5.612   4.853  17.053  0.00  0.00    +0.000 A 
ATOM     17  C   UNL     1       5.038   4.163  15.994  0.00  0.00    +0.000 A 
ATOM     18  C   UNL     1       5.694   4.132  14.770  0.00  0.00    +0.000 A 
ATOM     19  C   UNL     1       6.903   4.805  14.650  0.00  0.00    +0.000 A 
ATOM     20  N   UNL     1       7.497   5.491  15.655  0.00  0.00    +0.000 NA
ENDBRANCH  11  15
ENDBRANCH   9  12
ENDBRANCH   8   9
ENDBRANCH   7   8
ENDBRANCH   1   7
BRANCH   4  21
ATOM     21  C   UNL     1      12.149  14.310  18.274  0.00  0.00    +0.000 C 
BRANCH  21  22
ATOM     22  C   UNL     1      11.649  14.697  16.875  0.00  0.00    +0.000 C 
BRANCH  22  23
ATOM     23  C   UNL     1      11.047  16.096  16.876  0.00  0.00    +0.000 C 
BRANCH  23  24
ATOM     24  N   UNL     1       9.618  16.055  17.068  0.00  0.00    +0.000 N 
ATOM     25  C   UNL     1       8.965  16.207  18.268  0.00  0.00    +0.000 C 
ATOM     26  N   UNL     1       9.576  16.521  19.369  0.00  0.00    +0.000 NA
ATOM     27  H   UNL     1       9.023  15.793  16.283  0.00  0.00    +0.000 HD
ATOM     28  H   UNL     1      10.574  16.623  19.182  0.00  0.00    +0.000 HD
BRANCH  25  29
ATOM     29  C   UNL     1       7.473  15.999  18.294  0.00  0.00    +0.000 A 
ATOM     30  C   UNL     1       6.642  16.990  18.799  0.00  0.00    +0.000 A 
ATOM     31  C   UNL     1       5.275  16.751  18.814  0.00  0.00    +0.000 A 
ATOM     32  C   UNL     1       4.788  15.544  18.331  0.00  0.00    +0.000 A 
ATOM     33  C   UNL     1       5.695  14.612  17.844  0.00  0.00    +0.000 A 
ATOM     34  N   UNL     1       7.033  14.806  17.804  0.00  0.00    +0.000 NA
ENDBRANCH  25  29
ENDBRANCH  23  24
ENDBRANCH  22  23
ENDBRANCH  21  22
ENDBRANCH   4  21
TORSDOF 10
ENDMDL
MODEL 4
REMARK VINA RESULT:      -7.1      2.071      8.931
REMARK  Name = 
REMARK  10 active torsions:
REMARK  status: ('A' for Active; 'I' for Inactive)
REMARK    1  A    between atoms: C_2  and  C_25
REMARK    2  A    between atoms: N_3  and  C_4
REMARK    3  A    between atoms: C_4  and  C_5
REMARK    4  A    between atoms: C_5  and  C_6
REMARK    5  A    between atoms: C_6  and  N_7
REMARK    6  A    between atoms: N_10  and  C_11
REMARK    7  A    between atoms: C_11  and  C_12
REMARK    8  A    between atoms: C_12  and  C_13
REMARK    9  A    between atoms: C_13  and  N_14
REMARK   10  A    between atoms: C_15  and  C_17
REMARK                            x       y       z     vdW  Elec       q    Type
REMARK                         _______ _______ _______ _____ _____    ______ ____
ROOT
ATOM      1  N   UNL     1       1.474   4.138  19.139  0.00  0.00    +0.000 NA
ATOM      2  C   UNL     1       1.102   5.020  20.268  0.00  0.00    +0.000 C 
ATOM      3  C   UNL     1       2.193   6.047  20.642  0.00  0.00    +0.000 C 
ATOM      4  N   UNL     1       2.594   6.916  19.514  0.00  0.00    +0.000 NA
ATOM      5  C   UNL     1       2.994   6.045  18.384  0.00  0.00    +0.000 C 
ATOM      6  C   UNL     1       1.949   4.965  18.007  0.00  0.00    +0.000 C 
ENDROOT
BRANCH   1   7
ATOM      7  C   UNL     1       2.466   3.117  19.516  0.00  0.00    +0.000 C 
BRANCH   7   8
ATOM      8  C   UNL     1       2.580   1.973  18.495  0.00  0.00    +0.000 C 
BRANCH   8   9
ATOM      9  C   UNL     1       3.958   1.971  17.846  0.00  0.00    +0.000 C 
BRANCH   9  12
ATOM     10  N   UNL     1       5.674   3.382  15.982  0.00  0.00    +0.000 NA
ATOM     11  C   UNL     1       5.566   3.770  17.216  0.00  0.00    +0.000 C 
ATOM     12  N   UNL     1       4.696   3.186  18.110  0.00  0.00    +0.000 N 
ATOM     13  H   UNL     1       5.036   2.606  15.811  0.00  0.00    +0.000 HD
ATOM     14  H   UNL     1       4.817   3.480  19.078  0.00  0.00    +0.000 HD
BRANCH  11  15
ATOM     15  C   UNL     1       6.434   4.908  17.690  0.00  0.00    +0.000 A 
ATOM     16  C   UNL     1       6.623   6.014  16.868  0.00  0.00    +0.000 A 
ATOM     17  C   UNL     1       7.447   7.036  17.318  0.00  0.00    +0.000 A 
ATOM     18  C   UNL     1       8.051   6.922  18.564  0.00  0.00    +0.000 A 
ATOM     19  C   UNL     1       7.798   5.783  19.319  0.00  0.00    +0.000 A 
ATOM     20  N   UNL     1       7.001   4.765  18.920  0.00  0.00    +0.000 NA
ENDBRANCH  11  15
ENDBRANCH   9  12
ENDBRANCH   8   9
ENDBRANCH   7   8
ENDBRANCH   1   7
BRANCH   4  21
ATOM     21  C   UNL     1       1.528   7.851  19.107  0.00  0.00    +0.000 C 
BRANCH  21  22
ATOM     22  C   UNL     1       1.866   8.681  17.860  0.00  0.00    +0.000 C 
BRANCH  22  23
ATOM     23  C   UNL     1       1.867  10.170  18.178  0.00  0.00    +0.000 C 
BRANCH  23  24
ATOM     24  N   UNL     1       0.828  10.510  19.119  0.00  0.00    +0.000 N 
ATOM     25  C   UNL     1       0.824  11.605  19.949  0.00  0.00    +0.000 C 
ATOM     26  N   UNL     1       1.728  12.535  19.896  0.00  0.00    +0.000 NA
ATOM     27  H   UNL     1       0.069   9.848  19.274  0.00  0.00    +0.000 HD
ATOM     28  H   UNL     1       2.402  12.306  19.165  0.00  0.00    +0.000 HD
BRANCH  25  29
ATOM     29  C   UNL     1      -0.285  11.722  20.962  0.00  0.00    +0.000 A 
ATOM     30  C   UNL     1      -1.451  12.405  20.640  0.00  0.00    +0.000 A 
ATOM     31  C   UNL     1      -2.442  12.498  21.608  0.00  0.00    +0.000 A 
ATOM     32  C   UNL     1      -2.238  11.913  22.851  0.00  0.00    +0.000 A 
ATOM     33  C   UNL     1      -1.041  11.250  23.082  0.00  0.00    +0.000 A 
ATOM     34  N   UNL     1      -0.052  11.130  22.167  0.00  0.00    +0.000 NA
ENDBRANCH  25  29
ENDBRANCH  23  24
ENDBRANCH  22  23
ENDBRANCH  21  22
ENDBRANCH   4  21
TORSDOF 10
ENDMDL
MODEL 5
REMARK VINA RESULT:      -7.1      2.834      5.413
REMARK  Name = 
REMARK  10 active torsions:
REMARK  status: ('A' for Active; 'I' for Inactive)
REMARK    1  A    between atoms: C_2  and  C_25
REMARK    2  A    between atoms: N_3  and  C_4
REMARK    3  A    between atoms: C_4  and  C_5
REMARK    4  A    between atoms: C_5  and  C_6
REMARK    5  A    between atoms: C_6  and  N_7
REMARK    6  A    between atoms: N_10  and  C_11
REMARK    7  A    between atoms: C_11  and  C_12
REMARK    8  A    between atoms: C_12  and  C_13
REMARK    9  A    between atoms: C_13  and  N_14
REMARK   10  A    between atoms: C_15  and  C_17
REMARK                            x       y       z     vdW  Elec       q    Type
REMARK                         _______ _______ _______ _____ _____    ______ ____
ROOT
ATOM      1  N   UNL     1       0.268  11.107  22.103  0.00  0.00    +0.000 NA
ATOM      2  C   UNL     1       0.348   9.775  21.465  0.00  0.00    +0.000 C 
ATOM      3  C   UNL     1      -0.504   9.643  20.185  0.00  0.00    +0.000 C 
ATOM      4  N   UNL     1      -0.174  10.649  19.153  0.00  0.00    +0.000 NA
ATOM      5  C   UNL     1      -0.276  11.992  19.771  0.00  0.00    +0.000 C 
ATOM      6  C   UNL     1       0.525  12.153  21.088  0.00  0.00    +0.000 C 
ENDROOT
BRANCH   1   7
ATOM      7  C   UNL     1      -1.012  11.332  22.797  0.00  0.00    +0.000 C 
BRANCH   7   8
ATOM      8  C   UNL     1      -1.332  12.819  23.019  0.00  0.00    +0.000 C 
BRANCH   8   9
ATOM      9  C   UNL     1      -2.824  13.076  22.856  0.00  0.00    +0.000 C 
BRANCH   9  12
ATOM     10  N   UNL     1      -5.482  12.413  21.902  0.00  0.00    +0.000 NA
ATOM     11  C   UNL     1      -4.503  12.606  21.072  0.00  0.00    +0.000 C 
ATOM     12  N   UNL     1      -3.250  13.010  21.475  0.00  0.00    +0.000 N 
ATOM     13  H   UNL     1      -5.166  12.600  22.853  0.00  0.00    +0.000 HD
ATOM     14  H   UNL     1      -2.536  12.978  20.748  0.00  0.00    +0.000 HD
BRANCH  11  15
ATOM     15  C   UNL     1      -4.750  12.374  19.602  0.00  0.00    +0.000 A 
ATOM     16  C   UNL     1      -3.800  11.697  18.846  0.00  0.00    +0.000 A 
ATOM     17  C   UNL     1      -4.041  11.519  17.491  0.00  0.00    +0.000 A 
ATOM     18  C   UNL     1      -5.213  12.020  16.939  0.00  0.00    +0.000 A 
ATOM     19  C   UNL     1      -6.108  12.678  17.774  0.00  0.00    +0.000 A 
ATOM     20  N   UNL     1      -5.914  12.872  19.100  0.00  0.00    +0.000 NA
ENDBRANCH  11  15
ENDBRANCH   9  12
ENDBRANCH   8   9
ENDBRANCH   7   8
ENDBRANCH   1   7
BRANCH   4  21
ATOM     21  C   UNL     1       1.162  10.442  18.561  0.00  0.00    +0.000 C 
BRANCH  21  22
ATOM     22  C   UNL     1       1.317   9.110  17.813  0.00  0.00    +0.000 C 
BRANCH  22  23
ATOM     23  C   UNL     1       2.686   8.495  18.069  0.00  0.00    +0.000 C 
BRANCH  23  24
ATOM     24  N   UNL     1       2.631   7.053  18.038  0.00  0.00    +0.000 N 
ATOM     25  C   UNL     1       2.586   6.230  19.137  0.00  0.00    +0.000 C 
ATOM     26  N   UNL     1       2.477   6.676  20.351  0.00  0.00    +0.000 NA
ATOM     27  H   UNL     1       2.733   6.576  17.144  0.00  0.00    +0.000 HD
ATOM     28  H   UNL     1       2.435   7.695  20.331  0.00  0.00    +0.000 HD
BRANCH  25  29
ATOM     29  C   UNL     1       2.669   4.742  18.911  0.00  0.00    +0.000 A 
ATOM     30  C   UNL     1       2.215   4.195  17.718  0.00  0.00    +0.000 A 
ATOM     31  C   UNL     1       2.301   2.819  17.556  0.00  0.00    +0.000 A 
ATOM     32  C   UNL     1       2.830   2.043  18.580  0.00  0.00    +0.000 A 
ATOM     33  C   UNL     1       3.259   2.679  19.737  0.00  0.00    +0.000 A 
ATOM     34  N   UNL     1       3.201   4.016  19.934  0.00  0.00    +0.000 NA
ENDBRANCH  25  29
ENDBRANCH  23  24
ENDBRANCH  22  23
ENDBRANCH  21  22
ENDBRANCH   4  21
TORSDOF 10
ENDMDL
MODEL 6
REMARK VINA RESULT:      -7.0      1.792      2.646
REMARK  Name = 
REMARK  10 active torsions:
REMARK  status: ('A' for Active; 'I' for Inactive)
REMARK    1  A    between atoms: C_2  and  C_25
REMARK    2  A    between atoms: N_3  and  C_4
REMARK    3  A    between atoms: C_4  and  C_5
REMARK    4  A    between atoms: C_5  and  C_6
REMARK    5  A    between atoms: C_6  and  N_7
REMARK    6  A    between atoms: N_10  and  C_11
REMARK    7  A    between atoms: C_11  and  C_12
REMARK    8  A    between atoms: C_12  and  C_13
REMARK    9  A    between atoms: C_13  and  N_14
REMARK   10  A    between atoms: C_15  and  C_17
REMARK                            x       y       z     vdW  Elec       q    Type
REMARK                         _______ _______ _______ _____ _____    ______ ____
ROOT
ATOM      1  N   UNL     1       2.720   6.913  19.536  0.00  0.00    +0.000 NA
ATOM      2  C   UNL     1       2.350   5.966  20.611  0.00  0.00    +0.000 C 
ATOM      3  C   UNL     1       1.296   4.922  20.186  0.00  0.00    +0.000 C 
ATOM      4  N   UNL     1       1.700   4.121  19.010  0.00  0.00    +0.000 NA
ATOM      5  C   UNL     1       2.049   5.058  17.916  0.00  0.00    +0.000 C 
ATOM      6  C   UNL     1       3.068   6.156  18.313  0.00  0.00    +0.000 C 
ENDROOT
BRANCH   1   7
ATOM      7  C   UNL     1       1.672   7.913  19.272  0.00  0.00    +0.000 C 
BRANCH   7   8
ATOM      8  C   UNL     1       1.922   8.736  17.997  0.00  0.00    +0.000 C 
BRANCH   8   9
ATOM      9  C   UNL     1       1.640  10.212  18.249  0.00  0.00    +0.000 C 
BRANCH   9  12
ATOM     10  N   UNL     1      -0.844  11.709  18.253  0.00  0.00    +0.000 NA
ATOM     11  C   UNL     1      -0.360  11.215  19.351  0.00  0.00    +0.000 C 
ATOM     12  N   UNL     1       0.766  10.423  19.382  0.00  0.00    +0.000 N 
ATOM     13  H   UNL     1      -0.265  11.423  17.465  0.00  0.00    +0.000 HD
ATOM     14  H   UNL     1       1.126  10.227  20.316  0.00  0.00    +0.000 HD
BRANCH  11  15
ATOM     15  C   UNL     1      -1.061  11.526  20.650  0.00  0.00    +0.000 A 
ATOM     16  C   UNL     1      -2.146  12.396  20.651  0.00  0.00    +0.000 A 
ATOM     17  C   UNL     1      -2.758  12.685  21.862  0.00  0.00    +0.000 A 
ATOM     18  C   UNL     1      -2.269  12.101  23.025  0.00  0.00    +0.000 A 
ATOM     19  C   UNL     1      -1.184  11.239  22.926  0.00  0.00    +0.000 A 
ATOM     20  N   UNL     1      -0.560  10.929  21.766  0.00  0.00    +0.000 NA
ENDBRANCH  11  15
ENDBRANCH   9  12
ENDBRANCH   8   9
ENDBRANCH   7   8
ENDBRANCH   1   7
BRANCH   4  21
ATOM     21  C   UNL     1       2.823   3.208  19.299  0.00  0.00    +0.000 C 
BRANCH  21  22
ATOM     22  C   UNL     1       2.924   2.015  18.339  0.00  0.00    +0.000 C 
BRANCH  22  23
ATOM     23  C   UNL     1       4.092   2.183  17.377  0.00  0.00    +0.000 C 
BRANCH  23  24
ATOM     24  N   UNL     1       4.876   3.352  17.698  0.00  0.00    +0.000 N 
ATOM     25  C   UNL     1       5.652   4.064  16.816  0.00  0.00    +0.000 C 
ATOM     26  N   UNL     1       5.679   3.819  15.542  0.00  0.00    +0.000 NA
ATOM     27  H   UNL     1       4.958   3.636  18.674  0.00  0.00    +0.000 HD
ATOM     28  H   UNL     1       5.052   3.041  15.337  0.00  0.00    +0.000 HD
BRANCH  25  29
ATOM     29  C   UNL     1       6.506   5.178  17.364  0.00  0.00    +0.000 A 
ATOM     30  C   UNL     1       7.174   5.011  18.571  0.00  0.00    +0.000 A 
ATOM     31  C   UNL     1       7.941   6.067  19.043  0.00  0.00    +0.000 A 
ATOM     32  C   UNL     1       8.015   7.241  18.305  0.00  0.00    +0.000 A 
ATOM     33  C   UNL     1       7.313   7.316  17.109  0.00  0.00    +0.000 A 
ATOM     34  N   UNL     1       6.560   6.310  16.608  0.00  0.00    +0.000 NA
ENDBRANCH  25  29
ENDBRANCH  23  24
ENDBRANCH  22  23
ENDBRANCH  21  22
ENDBRANCH   4  21
TORSDOF 10
ENDMDL
MODEL 7
REMARK VINA RESULT:      -7.0      2.974     10.462
REMARK  Name = 
REMARK  10 active torsions:
REMARK  status: ('A' for Active; 'I' for Inactive)
REMARK    1  A    between atoms: C_2  and  C_25
REMARK    2  A    between atoms: N_3  and  C_4
REMARK    3  A    between atoms: C_4  and  C_5
REMARK    4  A    between atoms: C_5  and  C_6
REMARK    5  A    between atoms: C_6  and  N_7
REMARK    6  A    between atoms: N_10  and  C_11
REMARK    7  A    between atoms: C_11  and  C_12
REMARK    8  A    between atoms: C_12  and  C_13
REMARK    9  A    between atoms: C_13  and  N_14
REMARK   10  A    between atoms: C_15  and  C_17
REMARK                            x       y       z     vdW  Elec       q    Type
REMARK                         _______ _______ _______ _____ _____    ______ ____
ROOT
ATOM      1  N   UNL     1       0.153  11.095  18.900  0.00  0.00    +0.000 NA
ATOM      2  C   UNL     1      -0.503  10.104  19.781  0.00  0.00    +0.000 C 
ATOM      3  C   UNL     1       0.129  10.004  21.186  0.00  0.00    +0.000 C 
ATOM      4  N   UNL     1       0.156  11.292  21.912  0.00  0.00    +0.000 NA
ATOM      5  C   UNL     1       0.834  12.289  21.051  0.00  0.00    +0.000 C 
ATOM      6  C   UNL     1       0.264  12.387  19.613  0.00  0.00    +0.000 C 
ENDROOT
BRANCH   1   7
ATOM      7  C   UNL     1       1.461  10.639  18.402  0.00  0.00    +0.000 C 
BRANCH   7   8
ATOM      8  C   UNL     1       1.406   9.263  17.716  0.00  0.00    +0.000 C 
BRANCH   8   9
ATOM      9  C   UNL     1       2.606   8.416  18.119  0.00  0.00    +0.000 C 
BRANCH   9  12
ATOM     10  N   UNL     1       2.187   7.073  20.656  0.00  0.00    +0.000 NA
ATOM     11  C   UNL     1       2.159   6.414  19.538  0.00  0.00    +0.000 C 
ATOM     12  N   UNL     1       2.263   7.024  18.307  0.00  0.00    +0.000 N 
ATOM     13  H   UNL     1       2.299   8.068  20.463  0.00  0.00    +0.000 HD
ATOM     14  H   UNL     1       2.379   6.384  17.522  0.00  0.00    +0.000 HD
BRANCH  11  15
ATOM     15  C   UNL     1       2.009   4.914  19.592  0.00  0.00    +0.000 A 
ATOM     16  C   UNL     1       1.479   4.320  20.732  0.00  0.00    +0.000 A 
ATOM     17  C   UNL     1       1.375   2.937  20.765  0.00  0.00    +0.000 A 
ATOM     18  C   UNL     1       1.802   2.197  19.669  0.00  0.00    +0.000 A 
ATOM     19  C   UNL     1       2.312   2.879  18.571  0.00  0.00    +0.000 A 
ATOM     20  N   UNL     1       2.429   4.225  18.495  0.00  0.00    +0.000 NA
ENDBRANCH  11  15
ENDBRANCH   9  12
ENDBRANCH   8   9
ENDBRANCH   7   8
ENDBRANCH   1   7
BRANCH   4  21
ATOM     21  C   UNL     1      -1.189  11.758  22.299  0.00  0.00    +0.000 C 
BRANCH  21  22
ATOM     22  C   UNL     1      -1.209  13.151  22.943  0.00  0.00    +0.000 C 
BRANCH  22  23
ATOM     23  C   UNL     1      -2.628  13.699  23.019  0.00  0.00    +0.000 C 
BRANCH  23  24
ATOM     24  N   UNL     1      -3.407  13.307  21.869  0.00  0.00    +0.000 N 
ATOM     25  C   UNL     1      -4.661  12.747  21.903  0.00  0.00    +0.000 C 
ATOM     26  N   UNL     1      -5.342  12.606  22.999  0.00  0.00    +0.000 NA
ATOM     27  H   UNL     1      -2.975  13.345  20.946  0.00  0.00    +0.000 HD
ATOM     28  H   UNL     1      -4.797  12.968  23.782  0.00  0.00    +0.000 HD
BRANCH  25  29
ATOM     29  C   UNL     1      -5.263  12.278  20.604  0.00  0.00    +0.000 A 
ATOM     30  C   UNL     1      -6.559  11.779  20.579  0.00  0.00    +0.000 A 
ATOM     31  C   UNL     1      -7.069  11.349  19.363  0.00  0.00    +0.000 A 
ATOM     32  C   UNL     1      -6.278  11.428  18.224  0.00  0.00    +0.000 A 
ATOM     33  C   UNL     1      -4.994  11.941  18.345  0.00  0.00    +0.000 A 
ATOM     34  N   UNL     1      -4.459  12.378  19.508  0.00  0.00    +0.000 NA
ENDBRANCH  25  29
ENDBRANCH  23  24
ENDBRANCH  22  23
ENDBRANCH  21  22
ENDBRANCH   4  21
TORSDOF 10
ENDMDL
MODEL 8
REMARK VINA RESULT:      -7.0      4.627      8.515
REMARK  Name = 
REMARK  10 active torsions:
REMARK  status: ('A' for Active; 'I' for Inactive)
REMARK    1  A    between atoms: C_2  and  C_25
REMARK    2  A    between atoms: N_3  and  C_4
REMARK    3  A    between atoms: C_4  and  C_5
REMARK    4  A    between atoms: C_5  and  C_6
REMARK    5  A    between atoms: C_6  and  N_7
REMARK    6  A    between atoms: N_10  and  C_11
REMARK    7  A    between atoms: C_11  and  C_12
REMARK    8  A    between atoms: C_12  and  C_13
REMARK    9  A    between atoms: C_13  and  N_14
REMARK   10  A    between atoms: C_15  and  C_17
REMARK                            x       y       z     vdW  Elec       q    Type
REMARK                         _______ _______ _______ _____ _____    ______ ____
ROOT
ATOM      1  N   UNL     1       6.742   7.123  18.140  0.00  0.00    +0.000 NA
ATOM      2  C   UNL     1       5.625   6.816  17.220  0.00  0.00    +0.000 C 
ATOM      3  C   UNL     1       5.950   5.712  16.191  0.00  0.00    +0.000 C 
ATOM      4  N   UNL     1       6.378   4.438  16.809  0.00  0.00    +0.000 NA
ATOM      5  C   UNL     1       7.515   4.727  17.714  0.00  0.00    +0.000 C 
ATOM      6  C   UNL     1       7.249   5.865  18.732  0.00  0.00    +0.000 C 
ENDROOT
BRANCH   1   7
ATOM      7  C   UNL     1       7.820   7.888  17.492  0.00  0.00    +0.000 C 
BRANCH   7   8
ATOM      8  C   UNL     1       8.480   8.919  18.423  0.00  0.00    +0.000 C 
BRANCH   8   9
ATOM      9  C   UNL     1       8.809  10.196  17.659  0.00  0.00    +0.000 C 
BRANCH   9  12
ATOM     10  N   UNL     1       8.332  13.032  17.290  0.00  0.00    +0.000 NA
ATOM     11  C   UNL     1       9.075  12.601  18.263  0.00  0.00    +0.000 C 
ATOM     12  N   UNL     1       9.255  11.262  18.529  0.00  0.00    +0.000 N 
ATOM     13  H   UNL     1       7.935  12.240  16.786  0.00  0.00    +0.000 HD
ATOM     14  H   UNL     1       9.977  11.056  19.219  0.00  0.00    +0.000 HD
BRANCH  11  15
ATOM     15  C   UNL     1       9.773  13.612  19.137  0.00  0.00    +0.000 A 
ATOM     16  C   UNL     1       9.026  14.391  20.015  0.00  0.00    +0.000 A 
ATOM     17  C   UNL     1       9.691  15.331  20.789  0.00  0.00    +0.000 A 
ATOM     18  C   UNL     1      11.068  15.464  20.662  0.00  0.00    +0.000 A 
ATOM     19  C   UNL     1      11.731  14.638  19.764  0.00  0.00    +0.000 A 
ATOM     20  N   UNL     1      11.124  13.707  18.992  0.00  0.00    +0.000 NA
ENDBRANCH  11  15
ENDBRANCH   9  12
ENDBRANCH   8   9
ENDBRANCH   7   8
ENDBRANCH   1   7
BRANCH   4  21
ATOM     21  C   UNL     1       5.286   3.761  17.534  0.00  0.00    +0.000 C 
BRANCH  21  22
ATOM     22  C   UNL     1       3.932   3.801  16.810  0.00  0.00    +0.000 C 
BRANCH  22  23
ATOM     23  C   UNL     1       2.787   3.966  17.801  0.00  0.00    +0.000 C 
BRANCH  23  24
ATOM     24  N   UNL     1       2.420   5.353  17.956  0.00  0.00    +0.000 N 
ATOM     25  C   UNL     1       2.721   6.145  19.038  0.00  0.00    +0.000 C 
ATOM     26  N   UNL     1       3.481   5.751  20.013  0.00  0.00    +0.000 NA
ATOM     27  H   UNL     1       1.800   5.778  17.268  0.00  0.00    +0.000 HD
ATOM     28  H   UNL     1       3.791   4.796  19.832  0.00  0.00    +0.000 HD
BRANCH  25  29
ATOM     29  C   UNL     1       2.136   7.533  19.083  0.00  0.00    +0.000 A 
ATOM     30  C   UNL     1       2.129   8.322  17.940  0.00  0.00    +0.000 A 
ATOM     31  C   UNL     1       1.590   9.597  18.031  0.00  0.00    +0.000 A 
ATOM     32  C   UNL     1       1.082  10.040  19.245  0.00  0.00    +0.000 A 
ATOM     33  C   UNL     1       1.132   9.180  20.335  0.00  0.00    +0.000 A 
ATOM     34  N   UNL     1       1.641   7.928  20.290  0.00  0.00    +0.000 NA
ENDBRANCH  25  29
ENDBRANCH  23  24
ENDBRANCH  22  23
ENDBRANCH  21  22
ENDBRANCH   4  21
TORSDOF 10
ENDMDL
MODEL 9
REMARK VINA RESULT:      -6.9      1.425      8.938
REMARK  Name = 
REMARK  10 active torsions:
REMARK  status: ('A' for Active; 'I' for Inactive)
REMARK    1  A    between atoms: C_2  and  C_25
REMARK    2  A    between atoms: N_3  and  C_4
REMARK    3  A    between atoms: C_4  and  C_5
REMARK    4  A    between atoms: C_5  and  C_6
REMARK    5  A    between atoms: C_6  and  N_7
REMARK    6  A    between atoms: N_10  and  C_11
REMARK    7  A    between atoms: C_11  and  C_12
REMARK    8  A    between atoms: C_12  and  C_13
REMARK    9  A    between atoms: C_13  and  N_14
REMARK   10  A    between atoms: C_15  and  C_17
REMARK                            x       y       z     vdW  Elec       q    Type
REMARK                         _______ _______ _______ _____ _____    ______ ____
ROOT
ATOM      1  N   UNL     1       0.968   3.108  19.484  0.00  0.00    +0.000 NA
ATOM      2  C   UNL     1       1.077   3.538  20.895  0.00  0.00    +0.000 C 
ATOM      3  C   UNL     1       2.309   4.423  21.185  0.00  0.00    +0.000 C 
ATOM      4  N   UNL     1       2.369   5.639  20.346  0.00  0.00    +0.000 NA
ATOM      5  C   UNL     1       2.287   5.222  18.926  0.00  0.00    +0.000 C 
ATOM      6  C   UNL     1       1.092   4.290  18.601  0.00  0.00    +0.000 C 
ENDROOT
BRANCH   1   7
ATOM      7  C   UNL     1       1.943   2.064  19.128  0.00  0.00    +0.000 C 
BRANCH   7   8
ATOM      8  C   UNL     1       2.444   2.166  17.677  0.00  0.00    +0.000 C 
BRANCH   8   9
ATOM      9  C   UNL     1       3.914   1.776  17.590  0.00  0.00    +0.000 C 
BRANCH   9  12
ATOM     10  N   UNL     1       5.275   3.213  19.710  0.00  0.00    +0.000 NA
ATOM     11  C   UNL     1       5.336   3.622  18.479  0.00  0.00    +0.000 C 
ATOM     12  N   UNL     1       4.781   2.922  17.431  0.00  0.00    +0.000 N 
ATOM     13  H   UNL     1       4.765   2.331  19.752  0.00  0.00    +0.000 HD
ATOM     14  H   UNL     1       4.766   3.423  16.543  0.00  0.00    +0.000 HD
BRANCH  11  15
ATOM     15  C   UNL     1       6.042   4.922  18.188  0.00  0.00    +0.000 A 
ATOM     16  C   UNL     1       5.537   5.772  17.211  0.00  0.00    +0.000 A 
ATOM     17  C   UNL     1       6.221   6.950  16.945  0.00  0.00    +0.000 A 
ATOM     18  C   UNL     1       7.378   7.239  17.658  0.00  0.00    +0.000 A 
ATOM     19  C   UNL     1       7.803   6.333  18.622  0.00  0.00    +0.000 A 
ATOM     20  N   UNL     1       7.167   5.175  18.914  0.00  0.00    +0.000 NA
ENDBRANCH  11  15
ENDBRANCH   9  12
ENDBRANCH   8   9
ENDBRANCH   7   8
ENDBRANCH   1   7
BRANCH   4  21
ATOM     21  C   UNL     1       1.307   6.610  20.672  0.00  0.00    +0.000 C 
BRANCH  21  22
ATOM     22  C   UNL     1       1.797   8.062  20.780  0.00  0.00    +0.000 C 
BRANCH  22  23
ATOM     23  C   UNL     1       1.368   8.876  19.567  0.00  0.00    +0.000 C 
BRANCH  23  24
ATOM     24  N   UNL     1       0.228   9.709  19.867  0.00  0.00    +0.000 N 
ATOM     25  C   UNL     1      -0.590  10.312  18.942  0.00  0.00    +0.000 C 
ATOM     26  N   UNL     1      -0.486  10.103  17.665  0.00  0.00    +0.000 NA
ATOM     27  H   UNL     1       0.051   9.970  20.836  0.00  0.00    +0.000 HD
ATOM     28  H   UNL     1       0.275   9.446  17.493  0.00  0.00    +0.000 HD
BRANCH  25  29
ATOM     29  C   UNL     1      -1.651  11.256  19.444  0.00  0.00    +0.000 A 
ATOM     30  C   UNL     1      -1.451  11.962  20.623  0.00  0.00    +0.000 A 
ATOM     31  C   UNL     1      -2.459  12.813  21.054  0.00  0.00    +0.000 A 
ATOM     32  C   UNL     1      -3.622  12.928  20.303  0.00  0.00    +0.000 A 
ATOM     33  C   UNL     1      -3.733  12.183  19.137  0.00  0.00    +0.000 A 
ATOM     34  N   UNL     1      -2.773  11.348  18.677  0.00  0.00    +0.000 NA
ENDBRANCH  25  29
ENDBRANCH  23  24
ENDBRANCH  22  23
ENDBRANCH  21  22
ENDBRANCH   4  21
TORSDOF 10
ENDMDL
