MODEL 1
REMARK VINA RESULT:      -6.4      0.000      0.000
REMARK  Name = 
REMARK  3 active torsions:
REMARK  status: ('A' for Active; 'I' for Inactive)
REMARK    1  A    between atoms: C_1  and  C_2
REMARK    2  A    between atoms: C_7  and  C_8
REMARK    3  A    between atoms: C_10  and  O_11
REMARK                            x       y       z     vdW  Elec       q    Type
REMARK                         _______ _______ _______ _____ _____    ______ ____
ROOT
ATOM      1  C   UNL     1       7.478   6.531  18.009  0.00  0.00    +0.000 C 
ATOM      2  C   UNL     1       6.108   5.927  18.032  0.00  0.00    +0.000 A 
ATOM      3  C   UNL     1       5.021   6.564  17.433  0.00  0.00    +0.000 A 
ATOM      4  C   UNL     1       3.751   5.975  17.460  0.00  0.00    +0.000 A 
ATOM      5  C   UNL     1       3.520   4.755  18.086  0.00  0.00    +0.000 A 
ATOM      6  N   UNL     1       2.282   4.239  18.107  0.00  0.00    +0.000 NA
ATOM      7  C   UNL     1       2.100   3.069  18.749  0.00  0.00    +0.000 A 
ATOM      8  C   UNL     1       0.709   2.522  18.812  0.00  0.00    +0.000 C 
ATOM      9  N   UNL     1       3.066   2.372  19.369  0.00  0.00    +0.000 NA
ATOM     10  C   UNL     1       4.283   2.922  19.311  0.00  0.00    +0.000 A 
ATOM     11  C   UNL     1       4.605   4.119  18.688  0.00  0.00    +0.000 A 
ATOM     12  C   UNL     1       5.897   4.693  18.651  0.00  0.00    +0.000 A 
ENDROOT
BRANCH  10  13
ATOM     13  O   UNL     1       5.225   2.196  19.972  0.00  0.00    +0.000 OA
ATOM     14  H   UNL     1       5.704   1.810  19.218  0.00  0.00    +0.000 HD
ENDBRANCH  10  13
TORSDOF 1
ENDMDL
MODEL 2
REMARK VINA RESULT:      -6.3      2.015      2.151
REMARK  Name = 
REMARK  3 active torsions:
REMARK  status: ('A' for Active; 'I' for Inactive)
REMARK    1  A    between atoms: C_1  and  C_2
REMARK    2  A    between atoms: C_7  and  C_8
REMARK    3  A    between atoms: C_10  and  O_11
REMARK                            x       y       z     vdW  Elec       q    Type
REMARK                         _______ _______ _______ _____ _____    ______ ____
ROOT
ATOM      1  C   UNL     1       6.536   4.767  14.412  0.00  0.00    +0.000 C 
ATOM      2  C   UNL     1       5.605   4.978  15.566  0.00  0.00    +0.000 A 
ATOM      3  C   UNL     1       5.227   6.258  15.972  0.00  0.00    +0.000 A 
ATOM      4  C   UNL     1       4.348   6.429  17.049  0.00  0.00    +0.000 A 
ATOM      5  C   UNL     1       3.833   5.349  17.756  0.00  0.00    +0.000 A 
ATOM      6  N   UNL     1       3.012   5.561  18.795  0.00  0.00    +0.000 NA
ATOM      7  C   UNL     1       2.559   4.485  19.468  0.00  0.00    +0.000 A 
ATOM      8  C   UNL     1       1.683   4.730  20.656  0.00  0.00    +0.000 C 
ATOM      9  N   UNL     1       2.863   3.210  19.177  0.00  0.00    +0.000 NA
ATOM     10  C   UNL     1       3.675   3.051  18.127  0.00  0.00    +0.000 A 
ATOM     11  C   UNL     1       4.213   4.069  17.353  0.00  0.00    +0.000 A 
ATOM     12  C   UNL     1       5.084   3.880  16.256  0.00  0.00    +0.000 A 
ENDROOT
BRANCH  10  13
ATOM     13  O   UNL     1       3.976   1.747  17.883  0.00  0.00    +0.000 OA
ATOM     14  H   UNL     1       4.800   1.853  17.375  0.00  0.00    +0.000 HD
ENDBRANCH  10  13
TORSDOF 1
ENDMDL
MODEL 3
REMARK VINA RESULT:      -6.3      2.244      4.276
REMARK  Name = 
REMARK  3 active torsions:
REMARK  status: ('A' for Active; 'I' for Inactive)
REMARK    1  A    between atoms: C_1  and  C_2
REMARK    2  A    between atoms: C_7  and  C_8
REMARK    3  A    between atoms: C_10  and  O_11
REMARK                            x       y       z     vdW  Elec       q    Type
REMARK                         _______ _______ _______ _____ _____    ______ ____
ROOT
ATOM      1  C   UNL     1       1.437   3.419  20.831  0.00  0.00    +0.000 C 
ATOM      2  C   UNL     1       2.296   3.577  19.614  0.00  0.00    +0.000 A 
ATOM      3  C   UNL     1       1.825   3.249  18.343  0.00  0.00    +0.000 A 
ATOM      4  C   UNL     1       2.645   3.414  17.219  0.00  0.00    +0.000 A 
ATOM      5  C   UNL     1       3.946   3.890  17.323  0.00  0.00    +0.000 A 
ATOM      6  N   UNL     1       4.704   4.010  16.222  0.00  0.00    +0.000 NA
ATOM      7  C   UNL     1       5.968   4.450  16.374  0.00  0.00    +0.000 A 
ATOM      8  C   UNL     1       6.824   4.535  15.149  0.00  0.00    +0.000 C 
ATOM      9  N   UNL     1       6.533   4.783  17.546  0.00  0.00    +0.000 NA
ATOM     10  C   UNL     1       5.734   4.657  18.611  0.00  0.00    +0.000 A 
ATOM     11  C   UNL     1       4.420   4.214  18.594  0.00  0.00    +0.000 A 
ATOM     12  C   UNL     1       3.597   4.072  19.734  0.00  0.00    +0.000 A 
ENDROOT
BRANCH  10  13
ATOM     13  O   UNL     1       6.353   4.981  19.778  0.00  0.00    +0.000 OA
ATOM     14  H   UNL     1       7.248   5.177  19.449  0.00  0.00    +0.000 HD
ENDBRANCH  10  13
TORSDOF 1
ENDMDL
MODEL 4
REMARK VINA RESULT:      -6.3      1.793      1.893
REMARK  Name = 
REMARK  3 active torsions:
REMARK  status: ('A' for Active; 'I' for Inactive)
REMARK    1  A    between atoms: C_1  and  C_2
REMARK    2  A    between atoms: C_7  and  C_8
REMARK    3  A    between atoms: C_10  and  O_11
REMARK                            x       y       z     vdW  Elec       q    Type
REMARK                         _______ _______ _______ _____ _____    ______ ____
ROOT
ATOM      1  C   UNL     1       5.672   5.628  15.324  0.00  0.00    +0.000 C 
ATOM      2  C   UNL     1       4.858   5.335  16.547  0.00  0.00    +0.000 A 
ATOM      3  C   UNL     1       4.326   6.360  17.330  0.00  0.00    +0.000 A 
ATOM      4  C   UNL     1       3.562   6.059  18.465  0.00  0.00    +0.000 A 
ATOM      5  C   UNL     1       3.315   4.750  18.859  0.00  0.00    +0.000 A 
ATOM      6  N   UNL     1       2.596   4.510  19.966  0.00  0.00    +0.000 NA
ATOM      7  C   UNL     1       2.405   3.226  20.326  0.00  0.00    +0.000 A 
ATOM      8  C   UNL     1       1.645   2.966  21.588  0.00  0.00    +0.000 C 
ATOM      9  N   UNL     1       2.877   2.160  19.658  0.00  0.00    +0.000 NA
ATOM     10  C   UNL     1       3.578   2.452  18.557  0.00  0.00    +0.000 A 
ATOM     11  C   UNL     1       3.850   3.726  18.080  0.00  0.00    +0.000 A 
ATOM     12  C   UNL     1       4.606   4.013  16.921  0.00  0.00    +0.000 A 
ENDROOT
BRANCH  10  13
ATOM     13  O   UNL     1       4.057   1.346  17.926  0.00  0.00    +0.000 OA
ATOM     14  H   UNL     1       4.384   1.747  17.102  0.00  0.00    +0.000 HD
ENDBRANCH  10  13
TORSDOF 1
ENDMDL
MODEL 5
REMARK VINA RESULT:      -6.3      2.328      2.861
REMARK  Name = 
REMARK  3 active torsions:
REMARK  status: ('A' for Active; 'I' for Inactive)
REMARK    1  A    between atoms: C_1  and  C_2
REMARK    2  A    between atoms: C_7  and  C_8
REMARK    3  A    between atoms: C_10  and  O_11
REMARK                            x       y       z     vdW  Elec       q    Type
REMARK                         _______ _______ _______ _____ _____    ______ ____
ROOT
ATOM      1  C   UNL     1       5.217   6.417  15.800  0.00  0.00    +0.000 C 
ATOM      2  C   UNL     1       4.580   5.516  16.814  0.00  0.00    +0.000 A 
ATOM      3  C   UNL     1       4.635   4.128  16.691  0.00  0.00    +0.000 A 
ATOM      4  C   UNL     1       4.040   3.307  17.657  0.00  0.00    +0.000 A 
ATOM      5  C   UNL     1       3.369   3.833  18.755  0.00  0.00    +0.000 A 
ATOM      6  N   UNL     1       2.794   3.009  19.643  0.00  0.00    +0.000 NA
ATOM      7  C   UNL     1       2.130   3.562  20.677  0.00  0.00    +0.000 A 
ATOM      8  C   UNL     1       1.449   2.639  21.638  0.00  0.00    +0.000 C 
ATOM      9  N   UNL     1       2.002   4.882  20.892  0.00  0.00    +0.000 NA
ATOM     10  C   UNL     1       2.602   5.660  19.985  0.00  0.00    +0.000 A 
ATOM     11  C   UNL     1       3.310   5.220  18.877  0.00  0.00    +0.000 A 
ATOM     12  C   UNL     1       3.924   6.061  17.921  0.00  0.00    +0.000 A 
ENDROOT
BRANCH  10  13
ATOM     13  O   UNL     1       2.426   6.988  20.228  0.00  0.00    +0.000 OA
ATOM     14  H   UNL     1       3.178   7.154  20.823  0.00  0.00    +0.000 HD
ENDBRANCH  10  13
TORSDOF 1
ENDMDL
MODEL 6
REMARK VINA RESULT:      -6.1      4.493      5.677
REMARK  Name = 
REMARK  3 active torsions:
REMARK  status: ('A' for Active; 'I' for Inactive)
REMARK    1  A    between atoms: C_1  and  C_2
REMARK    2  A    between atoms: C_7  and  C_8
REMARK    3  A    between atoms: C_10  and  O_11
REMARK                            x       y       z     vdW  Elec       q    Type
REMARK                         _______ _______ _______ _____ _____    ______ ____
ROOT
ATOM      1  C   UNL     1       5.279   2.665  11.493  0.00  0.00    +0.000 C 
ATOM      2  C   UNL     1       5.874   3.513  12.575  0.00  0.00    +0.000 A 
ATOM      3  C   UNL     1       7.064   4.214  12.378  0.00  0.00    +0.000 A 
ATOM      4  C   UNL     1       7.596   5.007  13.404  0.00  0.00    +0.000 A 
ATOM      5  C   UNL     1       6.979   5.116  14.644  0.00  0.00    +0.000 A 
ATOM      6  N   UNL     1       7.537   5.869  15.604  0.00  0.00    +0.000 NA
ATOM      7  C   UNL     1       6.918   5.924  16.799  0.00  0.00    +0.000 A 
ATOM      8  C   UNL     1       7.570   6.725  17.881  0.00  0.00    +0.000 C 
ATOM      9  N   UNL     1       5.778   5.284  17.107  0.00  0.00    +0.000 NA
ATOM     10  C   UNL     1       5.256   4.556  16.114  0.00  0.00    +0.000 A 
ATOM     11  C   UNL     1       5.792   4.412  14.842  0.00  0.00    +0.000 A 
ATOM     12  C   UNL     1       5.232   3.624  13.811  0.00  0.00    +0.000 A 
ENDROOT
BRANCH  10  13
ATOM     13  O   UNL     1       4.116   3.906  16.476  0.00  0.00    +0.000 OA
ATOM     14  H   UNL     1       4.088   3.215  15.791  0.00  0.00    +0.000 HD
ENDBRANCH  10  13
TORSDOF 1
ENDMDL
MODEL 7
REMARK VINA RESULT:      -6.1      2.159      4.202
REMARK  Name = 
REMARK  3 active torsions:
REMARK  status: ('A' for Active; 'I' for Inactive)
REMARK    1  A    between atoms: C_1  and  C_2
REMARK    2  A    between atoms: C_7  and  C_8
REMARK    3  A    between atoms: C_10  and  O_11
REMARK                            x       y       z     vdW  Elec       q    Type
REMARK                         _______ _______ _______ _____ _____    ______ ____
ROOT
ATOM      1  C   UNL     1       1.358   2.865  21.667  0.00  0.00    +0.000 C 
ATOM      2  C   UNL     1       2.015   3.753  20.655  0.00  0.00    +0.000 A 
ATOM      3  C   UNL     1       1.852   5.138  20.688  0.00  0.00    +0.000 A 
ATOM      4  C   UNL     1       2.484   5.948  19.735  0.00  0.00    +0.000 A 
ATOM      5  C   UNL     1       3.276   5.414  18.726  0.00  0.00    +0.000 A 
ATOM      6  N   UNL     1       3.842   6.226  17.821  0.00  0.00    +0.000 NA
ATOM      7  C   UNL     1       4.579   5.663  16.844  0.00  0.00    +0.000 A 
ATOM      8  C   UNL     1       5.169   6.569  15.810  0.00  0.00    +0.000 C 
ATOM      9  N   UNL     1       4.796   4.344  16.706  0.00  0.00    +0.000 NA
ATOM     10  C   UNL     1       4.219   3.579  17.638  0.00  0.00    +0.000 A 
ATOM     11  C   UNL     1       3.435   4.030  18.690  0.00  0.00    +0.000 A 
ATOM     12  C   UNL     1       2.821   3.201  19.657  0.00  0.00    +0.000 A 
ENDROOT
BRANCH  10  13
ATOM     13  O   UNL     1       4.444   2.250  17.446  0.00  0.00    +0.000 OA
ATOM     14  H   UNL     1       3.530   1.938  17.322  0.00  0.00    +0.000 HD
ENDBRANCH  10  13
TORSDOF 1
ENDMDL
MODEL 8
REMARK VINA RESULT:      -6.0      2.808      4.404
REMARK  Name = 
REMARK  3 active torsions:
REMARK  status: ('A' for Active; 'I' for Inactive)
REMARK    1  A    between atoms: C_1  and  C_2
REMARK    2  A    between atoms: C_7  and  C_8
REMARK    3  A    between atoms: C_10  and  O_11
REMARK                            x       y       z     vdW  Elec       q    Type
REMARK                         _______ _______ _______ _____ _____    ______ ____
ROOT
ATOM      1  C   UNL     1       3.015   3.595  20.655  0.00  0.00    +0.000 C 
ATOM      2  C   UNL     1       3.609   3.801  19.295  0.00  0.00    +0.000 A 
ATOM      3  C   UNL     1       2.837   3.689  18.139  0.00  0.00    +0.000 A 
ATOM      4  C   UNL     1       3.414   3.895  16.880  0.00  0.00    +0.000 A 
ATOM      5  C   UNL     1       4.762   4.201  16.730  0.00  0.00    +0.000 A 
ATOM      6  N   UNL     1       5.276   4.367  15.503  0.00  0.00    +0.000 NA
ATOM      7  C   UNL     1       6.593   4.635  15.404  0.00  0.00    +0.000 A 
ATOM      8  C   UNL     1       7.172   4.771  14.031  0.00  0.00    +0.000 C 
ATOM      9  N   UNL     1       7.435   4.755  16.443  0.00  0.00    +0.000 NA
ATOM     10  C   UNL     1       6.871   4.592  17.645  0.00  0.00    +0.000 A 
ATOM     11  C   UNL     1       5.535   4.309  17.885  0.00  0.00    +0.000 A 
ATOM     12  C   UNL     1       4.962   4.124  19.164  0.00  0.00    +0.000 A 
ENDROOT
BRANCH  10  13
ATOM     13  O   UNL     1       7.764   4.697  18.667  0.00  0.00    +0.000 OA
ATOM     14  H   UNL     1       8.089   5.602  18.518  0.00  0.00    +0.000 HD
ENDBRANCH  10  13
TORSDOF 1
ENDMDL
MODEL 9
REMARK VINA RESULT:      -5.9      2.632      4.802
REMARK  Name = 
REMARK  3 active torsions:
REMARK  status: ('A' for Active; 'I' for Inactive)
REMARK    1  A    between atoms: C_1  and  C_2
REMARK    2  A    between atoms: C_7  and  C_8
REMARK    3  A    between atoms: C_10  and  O_11
REMARK                            x       y       z     vdW  Elec       q    Type
REMARK                         _______ _______ _______ _____ _____    ______ ____
ROOT
ATOM      1  C   UNL     1       0.771   3.424  20.135  0.00  0.00    +0.000 C 
ATOM      2  C   UNL     1       1.891   3.497  19.142  0.00  0.00    +0.000 A 
ATOM      3  C   UNL     1       2.463   2.344  18.604  0.00  0.00    +0.000 A 
ATOM      4  C   UNL     1       3.503   2.440  17.671  0.00  0.00    +0.000 A 
ATOM      5  C   UNL     1       4.010   3.666  17.258  0.00  0.00    +0.000 A 
ATOM      6  N   UNL     1       5.023   3.709  16.380  0.00  0.00    +0.000 NA
ATOM      7  C   UNL     1       5.500   4.919  16.029  0.00  0.00    +0.000 A 
ATOM      8  C   UNL     1       6.662   4.958  15.087  0.00  0.00    +0.000 C 
ATOM      9  N   UNL     1       5.038   6.093  16.488  0.00  0.00    +0.000 NA
ATOM     10  C   UNL     1       4.022   5.997  17.353  0.00  0.00    +0.000 A 
ATOM     11  C   UNL     1       3.441   4.819  17.799  0.00  0.00    +0.000 A 
ATOM     12  C   UNL     1       2.377   4.739  18.726  0.00  0.00    +0.000 A 
ENDROOT
BRANCH  10  13
ATOM     13  O   UNL     1       3.601   7.207  17.811  0.00  0.00    +0.000 OA
ATOM     14  H   UNL     1       4.409   7.511  18.259  0.00  0.00    +0.000 HD
ENDBRANCH  10  13
TORSDOF 1
ENDMDL
