MODEL 1
REMARK VINA RESULT:      -7.1      0.000      0.000
REMARK  Name = 
REMARK  4 active torsions:
REMARK  status: ('A' for Active; 'I' for Inactive)
REMARK    1  A    between atoms: C_1  and  N_2
REMARK    2  A    between atoms: C_7  and  C_8
REMARK    3  A    between atoms: N_10  and  C_11
REMARK    4  A    between atoms: C_11  and  C_12
REMARK                            x       y       z     vdW  Elec       q    Type
REMARK                         _______ _______ _______ _____ _____    ______ ____
ROOT
ATOM      1  C   UNL     1       4.560   2.959  19.858  0.00  0.00    +0.000 C 
ATOM      2  O   UNL     1       4.814   1.784  20.112  0.00  0.00    +0.000 OA
ATOM      3  N   UNL     1       5.604   3.819  19.670  0.00  0.00    +0.000 N 
ATOM      4  H   UNL     1       6.508   3.364  19.751  0.00  0.00    +0.000 HD
ENDROOT
BRANCH   1  11
ATOM      5  C   UNL     1       2.689   3.049  17.376  0.00  0.00    +0.000 C 
ATOM      6  N   UNL     1       2.312   2.944  18.771  0.00  0.00    +0.000 N 
ATOM      7  C   UNL     1       1.034   2.661  19.203  0.00  0.00    +0.000 C 
ATOM      8  O   UNL     1       0.090   2.319  18.509  0.00  0.00    +0.000 OA
ATOM      9  C   UNL     1       0.955   2.931  20.682  0.00  0.00    +0.000 C 
ATOM     10  C   UNL     1       2.391   3.208  21.102  0.00  0.00    +0.000 C 
ATOM     11  C   UNL     1       3.131   3.522  19.810  0.00  0.00    +0.000 C 
ENDBRANCH   1  11
BRANCH   3  12
ATOM     12  C   UNL     1       5.597   5.227  19.328  0.00  0.00    +0.000 C 
BRANCH  12  13
ATOM     13  C   UNL     1       5.592   5.513  17.846  0.00  0.00    +0.000 A 
ATOM     14  C   UNL     1       4.564   6.240  17.210  0.00  0.00    +0.000 A 
ATOM     15 CL   UNL     1       3.179   6.855  18.048  0.00  0.00    +0.000 Cl
ATOM     16  C   UNL     1       4.630   6.547  15.844  0.00  0.00    +0.000 A 
ATOM     17  C   UNL     1       5.730   6.168  15.084  0.00  0.00    +0.000 A 
ATOM     18  C   UNL     1       6.771   5.477  15.693  0.00  0.00    +0.000 A 
ATOM     19  C   UNL     1       6.705   5.152  17.055  0.00  0.00    +0.000 A 
ATOM     20 CL   UNL     1       8.078   4.315  17.700  0.00  0.00    +0.000 Cl
ENDBRANCH  12  13
ENDBRANCH   3  12
TORSDOF 3
ENDMDL
MODEL 2
REMARK VINA RESULT:      -7.1      0.067      2.106
REMARK  Name = 
REMARK  4 active torsions:
REMARK  status: ('A' for Active; 'I' for Inactive)
REMARK    1  A    between atoms: C_1  and  N_2
REMARK    2  A    between atoms: C_7  and  C_8
REMARK    3  A    between atoms: N_10  and  C_11
REMARK    4  A    between atoms: C_11  and  C_12
REMARK                            x       y       z     vdW  Elec       q    Type
REMARK                         _______ _______ _______ _____ _____    ______ ____
ROOT
ATOM      1  C   UNL     1       4.558   2.950  19.798  0.00  0.00    +0.000 C 
ATOM      2  O   UNL     1       4.822   1.769  20.011  0.00  0.00    +0.000 OA
ATOM      3  N   UNL     1       5.593   3.826  19.644  0.00  0.00    +0.000 N 
ATOM      4  H   UNL     1       6.501   3.378  19.713  0.00  0.00    +0.000 HD
ENDROOT
BRANCH   1  11
ATOM      5  C   UNL     1       2.665   3.034  17.332  0.00  0.00    +0.000 C 
ATOM      6  N   UNL     1       2.301   2.919  18.729  0.00  0.00    +0.000 N 
ATOM      7  C   UNL     1       1.029   2.623  19.170  0.00  0.00    +0.000 C 
ATOM      8  O   UNL     1       0.082   2.275  18.482  0.00  0.00    +0.000 OA
ATOM      9  C   UNL     1       0.960   2.885  20.650  0.00  0.00    +0.000 C 
ATOM     10  C   UNL     1       2.396   3.173  21.060  0.00  0.00    +0.000 C 
ATOM     11  C   UNL     1       3.123   3.499  19.763  0.00  0.00    +0.000 C 
ENDBRANCH   1  11
BRANCH   3  12
ATOM     12  C   UNL     1       5.573   5.245  19.353  0.00  0.00    +0.000 C 
BRANCH  12  13
ATOM     13  C   UNL     1       5.682   5.587  17.886  0.00  0.00    +0.000 A 
ATOM     14  C   UNL     1       6.770   5.184  17.084  0.00  0.00    +0.000 A 
ATOM     15 CL   UNL     1       8.116   4.283  17.697  0.00  0.00    +0.000 Cl
ATOM     16  C   UNL     1       6.802   5.461  15.711  0.00  0.00    +0.000 A 
ATOM     17  C   UNL     1       5.741   6.114  15.094  0.00  0.00    +0.000 A 
ATOM     18  C   UNL     1       4.643   6.496  15.856  0.00  0.00    +0.000 A 
ATOM     19  C   UNL     1       4.612   6.237  17.233  0.00  0.00    +0.000 A 
ATOM     20 CL   UNL     1       3.175   6.737  18.064  0.00  0.00    +0.000 Cl
ENDBRANCH  12  13
ENDBRANCH   3  12
TORSDOF 3
ENDMDL
MODEL 3
REMARK VINA RESULT:      -6.7      3.253      5.705
REMARK  Name = 
REMARK  4 active torsions:
REMARK  status: ('A' for Active; 'I' for Inactive)
REMARK    1  A    between atoms: C_1  and  N_2
REMARK    2  A    between atoms: C_7  and  C_8
REMARK    3  A    between atoms: N_10  and  C_11
REMARK    4  A    between atoms: C_11  and  C_12
REMARK                            x       y       z     vdW  Elec       q    Type
REMARK                         _______ _______ _______ _____ _____    ______ ____
ROOT
ATOM      1  C   UNL     1       5.599   4.504  18.200  0.00  0.00    +0.000 C 
ATOM      2  O   UNL     1       6.636   4.203  18.788  0.00  0.00    +0.000 OA
ATOM      3  N   UNL     1       4.420   4.402  18.879  0.00  0.00    +0.000 N 
ATOM      4  H   UNL     1       4.543   4.089  19.837  0.00  0.00    +0.000 HD
ENDROOT
BRANCH   1  11
ATOM      5  C   UNL     1       7.244   6.788  16.879  0.00  0.00    +0.000 C 
ATOM      6  N   UNL     1       6.769   5.565  16.266  0.00  0.00    +0.000 N 
ATOM      7  C   UNL     1       7.158   5.128  15.017  0.00  0.00    +0.000 C 
ATOM      8  O   UNL     1       8.043   5.604  14.322  0.00  0.00    +0.000 OA
ATOM      9  C   UNL     1       6.248   4.008  14.593  0.00  0.00    +0.000 C 
ATOM     10  C   UNL     1       5.410   3.702  15.826  0.00  0.00    +0.000 C 
ATOM     11  C   UNL     1       5.560   4.923  16.722  0.00  0.00    +0.000 C 
ENDBRANCH   1  11
BRANCH   3  12
ATOM     12  C   UNL     1       3.072   4.719  18.452  0.00  0.00    +0.000 C 
BRANCH  12  13
ATOM     13  C   UNL     1       2.408   5.824  19.239  0.00  0.00    +0.000 A 
ATOM     14  C   UNL     1       1.758   5.602  20.471  0.00  0.00    +0.000 A 
ATOM     15 CL   UNL     1       1.621   4.038  21.202  0.00  0.00    +0.000 Cl
ATOM     16  C   UNL     1       1.214   6.663  21.207  0.00  0.00    +0.000 A 
ATOM     17  C   UNL     1       1.328   7.972  20.753  0.00  0.00    +0.000 A 
ATOM     18  C   UNL     1       1.989   8.222  19.556  0.00  0.00    +0.000 A 
ATOM     19  C   UNL     1       2.522   7.163  18.807  0.00  0.00    +0.000 A 
ATOM     20 CL   UNL     1       3.347   7.609  17.350  0.00  0.00    +0.000 Cl
ENDBRANCH  12  13
ENDBRANCH   3  12
TORSDOF 3
ENDMDL
MODEL 4
REMARK VINA RESULT:      -6.7      3.270      5.710
REMARK  Name = 
REMARK  4 active torsions:
REMARK  status: ('A' for Active; 'I' for Inactive)
REMARK    1  A    between atoms: C_1  and  N_2
REMARK    2  A    between atoms: C_7  and  C_8
REMARK    3  A    between atoms: N_10  and  C_11
REMARK    4  A    between atoms: C_11  and  C_12
REMARK                            x       y       z     vdW  Elec       q    Type
REMARK                         _______ _______ _______ _____ _____    ______ ____
ROOT
ATOM      1  C   UNL     1       5.654   4.510  18.209  0.00  0.00    +0.000 C 
ATOM      2  O   UNL     1       6.710   4.207  18.758  0.00  0.00    +0.000 OA
ATOM      3  N   UNL     1       4.500   4.419  18.933  0.00  0.00    +0.000 N 
ATOM      4  H   UNL     1       4.658   4.112  19.887  0.00  0.00    +0.000 HD
ENDROOT
BRANCH   1  11
ATOM      5  C   UNL     1       7.245   6.788  16.814  0.00  0.00    +0.000 C 
ATOM      6  N   UNL     1       6.751   5.561  16.226  0.00  0.00    +0.000 N 
ATOM      7  C   UNL     1       7.095   5.117  14.966  0.00  0.00    +0.000 C 
ATOM      8  O   UNL     1       7.953   5.590  14.237  0.00  0.00    +0.000 OA
ATOM      9  C   UNL     1       6.171   3.993  14.584  0.00  0.00    +0.000 C 
ATOM     10  C   UNL     1       5.379   3.694  15.848  0.00  0.00    +0.000 C 
ATOM     11  C   UNL     1       5.560   4.920  16.730  0.00  0.00    +0.000 C 
ENDBRANCH   1  11
BRANCH   3  12
ATOM     12  C   UNL     1       3.140   4.743  18.556  0.00  0.00    +0.000 C 
BRANCH  12  13
ATOM     13  C   UNL     1       2.532   5.895  19.320  0.00  0.00    +0.000 A 
ATOM     14  C   UNL     1       2.571   7.226  18.856  0.00  0.00    +0.000 A 
ATOM     15 CL   UNL     1       3.344   7.693  17.378  0.00  0.00    +0.000 Cl
ATOM     16  C   UNL     1       1.935   8.259  19.559  0.00  0.00    +0.000 A 
ATOM     17  C   UNL     1       1.220   7.991  20.721  0.00  0.00    +0.000 A 
ATOM     18  C   UNL     1       1.142   6.682  21.184  0.00  0.00    +0.000 A 
ATOM     19  C   UNL     1       1.789   5.647  20.495  0.00  0.00    +0.000 A 
ATOM     20 CL   UNL     1       1.591   4.059  21.158  0.00  0.00    +0.000 Cl
ENDBRANCH  12  13
ENDBRANCH   3  12
TORSDOF 3
ENDMDL
MODEL 5
REMARK VINA RESULT:      -6.6      3.002      5.578
REMARK  Name = 
REMARK  4 active torsions:
REMARK  status: ('A' for Active; 'I' for Inactive)
REMARK    1  A    between atoms: C_1  and  N_2
REMARK    2  A    between atoms: C_7  and  C_8
REMARK    3  A    between atoms: N_10  and  C_11
REMARK    4  A    between atoms: C_11  and  C_12
REMARK                            x       y       z     vdW  Elec       q    Type
REMARK                         _______ _______ _______ _____ _____    ______ ____
ROOT
ATOM      1  C   UNL     1       3.903   6.444  17.656  0.00  0.00    +0.000 C 
ATOM      2  O   UNL     1       4.313   7.596  17.532  0.00  0.00    +0.000 OA
ATOM      3  N   UNL     1       2.559   6.248  17.786  0.00  0.00    +0.000 N 
ATOM      4  H   UNL     1       2.029   7.113  17.750  0.00  0.00    +0.000 HD
ENDROOT
BRANCH   1  11
ATOM      5  C   UNL     1       5.277   4.996  15.273  0.00  0.00    +0.000 C 
ATOM      6  N   UNL     1       5.755   5.116  16.635  0.00  0.00    +0.000 N 
ATOM      7  C   UNL     1       7.024   4.761  17.040  0.00  0.00    +0.000 C 
ATOM      8  O   UNL     1       7.957   4.447  16.317  0.00  0.00    +0.000 OA
ATOM      9  C   UNL     1       7.060   4.735  18.544  0.00  0.00    +0.000 C 
ATOM     10  C   UNL     1       5.721   5.314  18.973  0.00  0.00    +0.000 C 
ATOM     11  C   UNL     1       4.834   5.224  17.740  0.00  0.00    +0.000 C 
ENDBRANCH   1  11
BRANCH   3  12
ATOM     12  C   UNL     1       1.809   5.015  17.910  0.00  0.00    +0.000 C 
BRANCH  12  13
ATOM     13  C   UNL     1       2.081   4.237  19.176  0.00  0.00    +0.000 A 
ATOM     14  C   UNL     1       1.943   4.797  20.463  0.00  0.00    +0.000 A 
ATOM     15 CL   UNL     1       1.478   6.443  20.736  0.00  0.00    +0.000 Cl
ATOM     16  C   UNL     1       2.137   4.024  21.616  0.00  0.00    +0.000 A 
ATOM     17  C   UNL     1       2.441   2.671  21.520  0.00  0.00    +0.000 A 
ATOM     18  C   UNL     1       2.555   2.088  20.263  0.00  0.00    +0.000 A 
ATOM     19  C   UNL     1       2.378   2.859  19.105  0.00  0.00    +0.000 A 
ATOM     20 CL   UNL     1       2.517   2.008  17.603  0.00  0.00    +0.000 Cl
ENDBRANCH  12  13
ENDBRANCH   3  12
TORSDOF 3
ENDMDL
MODEL 6
REMARK VINA RESULT:      -6.6      2.945      5.957
REMARK  Name = 
REMARK  4 active torsions:
REMARK  status: ('A' for Active; 'I' for Inactive)
REMARK    1  A    between atoms: C_1  and  N_2
REMARK    2  A    between atoms: C_7  and  C_8
REMARK    3  A    between atoms: N_10  and  C_11
REMARK    4  A    between atoms: C_11  and  C_12
REMARK                            x       y       z     vdW  Elec       q    Type
REMARK                         _______ _______ _______ _____ _____    ______ ____
ROOT
ATOM      1  C   UNL     1       6.319   4.347  18.022  0.00  0.00    +0.000 C 
ATOM      2  O   UNL     1       7.368   4.676  18.572  0.00  0.00    +0.000 OA
ATOM      3  N   UNL     1       5.458   3.537  18.705  0.00  0.00    +0.000 N 
ATOM      4  H   UNL     1       5.793   3.302  19.634  0.00  0.00    +0.000 HD
ENDROOT
BRANCH   1  11
ATOM      5  C   UNL     1       7.450   6.772  16.438  0.00  0.00    +0.000 C 
ATOM      6  N   UNL     1       6.994   5.502  15.913  0.00  0.00    +0.000 N 
ATOM      7  C   UNL     1       7.184   5.095  14.609  0.00  0.00    +0.000 C 
ATOM      8  O   UNL     1       7.871   5.651  13.766  0.00  0.00    +0.000 OA
ATOM      9  C   UNL     1       6.327   3.886  14.353  0.00  0.00    +0.000 C 
ATOM     10  C   UNL     1       5.770   3.509  15.718  0.00  0.00    +0.000 C 
ATOM     11  C   UNL     1       5.962   4.747  16.582  0.00  0.00    +0.000 C 
ENDBRANCH   1  11
BRANCH   3  12
ATOM     12  C   UNL     1       4.157   3.032  18.320  0.00  0.00    +0.000 C 
BRANCH  12  13
ATOM     13  C   UNL     1       3.098   3.142  19.391  0.00  0.00    +0.000 A 
ATOM     14  C   UNL     1       1.848   3.759  19.172  0.00  0.00    +0.000 A 
ATOM     15 CL   UNL     1       1.401   4.486  17.665  0.00  0.00    +0.000 Cl
ATOM     16  C   UNL     1       0.864   3.780  20.170  0.00  0.00    +0.000 A 
ATOM     17  C   UNL     1       1.084   3.163  21.396  0.00  0.00    +0.000 A 
ATOM     18  C   UNL     1       2.296   2.522  21.627  0.00  0.00    +0.000 A 
ATOM     19  C   UNL     1       3.291   2.511  20.639  0.00  0.00    +0.000 A 
ATOM     20 CL   UNL     1       4.743   1.656  21.040  0.00  0.00    +0.000 Cl
ENDBRANCH  12  13
ENDBRANCH   3  12
TORSDOF 3
ENDMDL
MODEL 7
REMARK VINA RESULT:      -6.5      2.682      5.618
REMARK  Name = 
REMARK  4 active torsions:
REMARK  status: ('A' for Active; 'I' for Inactive)
REMARK    1  A    between atoms: C_1  and  N_2
REMARK    2  A    between atoms: C_7  and  C_8
REMARK    3  A    between atoms: N_10  and  C_11
REMARK    4  A    between atoms: C_11  and  C_12
REMARK                            x       y       z     vdW  Elec       q    Type
REMARK                         _______ _______ _______ _____ _____    ______ ____
ROOT
ATOM      1  C   UNL     1       6.602   5.381  19.105  0.00  0.00    +0.000 C 
ATOM      2  O   UNL     1       7.480   5.612  19.933  0.00  0.00    +0.000 OA
ATOM      3  N   UNL     1       5.705   4.388  19.374  0.00  0.00    +0.000 N 
ATOM      4  H   UNL     1       5.866   3.947  20.274  0.00  0.00    +0.000 HD
ENDROOT
BRANCH   1  11
ATOM      5  C   UNL     1       7.545   4.295  16.348  0.00  0.00    +0.000 C 
ATOM      6  N   UNL     1       6.463   5.220  16.616  0.00  0.00    +0.000 N 
ATOM      7  C   UNL     1       5.536   5.614  15.675  0.00  0.00    +0.000 C 
ATOM      8  O   UNL     1       5.394   5.151  14.554  0.00  0.00    +0.000 OA
ATOM      9  C   UNL     1       4.768   6.789  16.218  0.00  0.00    +0.000 C 
ATOM     10  C   UNL     1       5.214   6.906  17.668  0.00  0.00    +0.000 C 
ATOM     11  C   UNL     1       6.507   6.107  17.753  0.00  0.00    +0.000 C 
ENDBRANCH   1  11
BRANCH   3  12
ATOM     12  C   UNL     1       4.565   3.934  18.606  0.00  0.00    +0.000 C 
BRANCH  12  13
ATOM     13  C   UNL     1       3.350   3.583  19.432  0.00  0.00    +0.000 A 
ATOM     14  C   UNL     1       3.378   2.625  20.467  0.00  0.00    +0.000 A 
ATOM     15 CL   UNL     1       4.796   1.722  20.884  0.00  0.00    +0.000 Cl
ATOM     16  C   UNL     1       2.248   2.377  21.258  0.00  0.00    +0.000 A 
ATOM     17  C   UNL     1       1.074   3.096  21.062  0.00  0.00    +0.000 A 
ATOM     18  C   UNL     1       1.029   4.066  20.068  0.00  0.00    +0.000 A 
ATOM     19  C   UNL     1       2.150   4.308  19.262  0.00  0.00    +0.000 A 
ATOM     20 CL   UNL     1       1.975   5.563  18.080  0.00  0.00    +0.000 Cl
ENDBRANCH  12  13
ENDBRANCH   3  12
TORSDOF 3
ENDMDL
MODEL 8
REMARK VINA RESULT:      -6.5      2.977      5.772
REMARK  Name = 
REMARK  4 active torsions:
REMARK  status: ('A' for Active; 'I' for Inactive)
REMARK    1  A    between atoms: C_1  and  N_2
REMARK    2  A    between atoms: C_7  and  C_8
REMARK    3  A    between atoms: N_10  and  C_11
REMARK    4  A    between atoms: C_11  and  C_12
REMARK                            x       y       z     vdW  Elec       q    Type
REMARK                         _______ _______ _______ _____ _____    ______ ____
ROOT
ATOM      1  C   UNL     1       3.850   6.457  17.699  0.00  0.00    +0.000 C 
ATOM      2  O   UNL     1       4.281   7.606  17.642  0.00  0.00    +0.000 OA
ATOM      3  N   UNL     1       2.504   6.278  17.838  0.00  0.00    +0.000 N 
ATOM      4  H   UNL     1       1.991   7.154  17.864  0.00  0.00    +0.000 HD
ENDROOT
BRANCH   1  11
ATOM      5  C   UNL     1       5.297   5.235  15.233  0.00  0.00    +0.000 C 
ATOM      6  N   UNL     1       5.720   5.204  16.617  0.00  0.00    +0.000 N 
ATOM      7  C   UNL     1       6.966   4.783  17.032  0.00  0.00    +0.000 C 
ATOM      8  O   UNL     1       7.923   4.527  16.318  0.00  0.00    +0.000 OA
ATOM      9  C   UNL     1       6.940   4.600  18.526  0.00  0.00    +0.000 C 
ATOM     10  C   UNL     1       5.593   5.159  18.961  0.00  0.00    +0.000 C 
ATOM     11  C   UNL     1       4.756   5.215  17.691  0.00  0.00    +0.000 C 
ENDBRANCH   1  11
BRANCH   3  12
ATOM     12  C   UNL     1       1.730   5.055  17.895  0.00  0.00    +0.000 C 
BRANCH  12  13
ATOM     13  C   UNL     1       1.967   4.219  19.130  0.00  0.00    +0.000 A 
ATOM     14  C   UNL     1       2.379   2.870  19.074  0.00  0.00    +0.000 A 
ATOM     15 CL   UNL     1       2.626   2.015  17.589  0.00  0.00    +0.000 Cl
ATOM     16  C   UNL     1       2.656   2.148  20.242  0.00  0.00    +0.000 A 
ATOM     17  C   UNL     1       2.564   2.753  21.490  0.00  0.00    +0.000 A 
ATOM     18  C   UNL     1       2.189   4.089  21.571  0.00  0.00    +0.000 A 
ATOM     19  C   UNL     1       1.894   4.814  20.408  0.00  0.00    +0.000 A 
ATOM     20 CL   UNL     1       1.468   6.477  20.642  0.00  0.00    +0.000 Cl
ENDBRANCH  12  13
ENDBRANCH   3  12
TORSDOF 3
ENDMDL
MODEL 9
REMARK VINA RESULT:      -6.5      2.745      5.368
REMARK  Name = 
REMARK  4 active torsions:
REMARK  status: ('A' for Active; 'I' for Inactive)
REMARK    1  A    between atoms: C_1  and  N_2
REMARK    2  A    between atoms: C_7  and  C_8
REMARK    3  A    between atoms: N_10  and  C_11
REMARK    4  A    between atoms: C_11  and  C_12
REMARK                            x       y       z     vdW  Elec       q    Type
REMARK                         _______ _______ _______ _____ _____    ______ ____
ROOT
ATOM      1  C   UNL     1       6.546   5.432  19.043  0.00  0.00    +0.000 C 
ATOM      2  O   UNL     1       7.406   5.606  19.904  0.00  0.00    +0.000 OA
ATOM      3  N   UNL     1       5.569   4.510  19.284  0.00  0.00    +0.000 N 
ATOM      4  H   UNL     1       5.662   4.066  20.192  0.00  0.00    +0.000 HD
ENDROOT
BRANCH   1  11
ATOM      5  C   UNL     1       7.556   4.269  16.341  0.00  0.00    +0.000 C 
ATOM      6  N   UNL     1       6.517   5.255  16.552  0.00  0.00    +0.000 N 
ATOM      7  C   UNL     1       5.660   5.693  15.564  0.00  0.00    +0.000 C 
ATOM      8  O   UNL     1       5.545   5.228  14.441  0.00  0.00    +0.000 OA
ATOM      9  C   UNL     1       4.935   6.914  16.062  0.00  0.00    +0.000 C 
ATOM     10  C   UNL     1       5.317   7.019  17.531  0.00  0.00    +0.000 C 
ATOM     11  C   UNL     1       6.556   6.150  17.684  0.00  0.00    +0.000 C 
ENDBRANCH   1  11
BRANCH   3  12
ATOM     12  C   UNL     1       4.429   4.131  18.474  0.00  0.00    +0.000 C 
BRANCH  12  13
ATOM     13  C   UNL     1       3.183   3.798  19.259  0.00  0.00    +0.000 A 
ATOM     14  C   UNL     1       2.363   4.783  19.848  0.00  0.00    +0.000 A 
ATOM     15 CL   UNL     1       2.709   6.477  19.766  0.00  0.00    +0.000 Cl
ATOM     16  C   UNL     1       1.177   4.438  20.510  0.00  0.00    +0.000 A 
ATOM     17  C   UNL     1       0.760   3.114  20.576  0.00  0.00    +0.000 A 
ATOM     18  C   UNL     1       1.535   2.127  19.978  0.00  0.00    +0.000 A 
ATOM     19  C   UNL     1       2.731   2.462  19.328  0.00  0.00    +0.000 A 
ATOM     20 CL   UNL     1       3.589   1.146  18.599  0.00  0.00    +0.000 Cl
ENDBRANCH  12  13
ENDBRANCH   3  12
TORSDOF 3
ENDMDL
