MODEL 1
REMARK VINA RESULT:      -8.7      0.000      0.000
REMARK  Name = 
REMARK  6 active torsions:
REMARK  status: ('A' for Active; 'I' for Inactive)
REMARK    1  A    between atoms: C_2  and  C_24
REMARK    2  A    between atoms: N_3  and  C_4
REMARK    3  A    between atoms: C_4  and  C_5
REMARK    4  A    between atoms: C_4  and  C_15
REMARK    5  A    between atoms: C_5  and  C_6
REMARK    6  A    between atoms: N_17  and  C_18
REMARK                            x       y       z     vdW  Elec       q    Type
REMARK                         _______ _______ _______ _____ _____    ______ ____
ROOT
ATOM      1  C   UNL     1       1.137  10.510  19.216  0.00  0.00    +0.000 C 
ENDROOT
BRANCH   1   4
ATOM      2  O   UNL     1       1.639   8.330  21.031  0.00  0.00    +0.000 OA
ATOM      3  C   UNL     1       1.815   8.161  19.830  0.00  0.00    +0.000 C 
ATOM      4  N   UNL     1       1.615   9.154  18.908  0.00  0.00    +0.000 N 
ATOM      5  H   UNL     1       1.598   8.905  17.919  0.00  0.00    +0.000 HD
BRANCH   3   6
ATOM      6  C   UNL     1       2.374   6.876  19.312  0.00  0.00    +0.000 A 
ATOM      7  C   UNL     1       3.251   6.935  18.224  0.00  0.00    +0.000 A 
ATOM      8  C   UNL     1       3.632   5.763  17.560  0.00  0.00    +0.000 A 
ATOM      9  C   UNL     1       3.163   4.509  17.984  0.00  0.00    +0.000 A 
ATOM     10  C   UNL     1       3.460   3.336  17.271  0.00  0.00    +0.000 A 
ATOM     11  C   UNL     1       3.002   2.094  17.714  0.00  0.00    +0.000 A 
ATOM     12  C   UNL     1       2.272   2.005  18.895  0.00  0.00    +0.000 A 
ATOM     13  C   UNL     1       1.953   3.164  19.606  0.00  0.00    +0.000 A 
ATOM     14  C   UNL     1       2.363   4.430  19.146  0.00  0.00    +0.000 A 
ATOM     15  C   UNL     1       1.975   5.622  19.787  0.00  0.00    +0.000 A 
ATOM     16  F   UNL     1       1.164   5.538  20.857  0.00  0.00    +0.000 F 
ENDBRANCH   3   6
ENDBRANCH   1   4
BRANCH   1  17
ATOM     17  C   UNL     1      -0.390  10.458  18.912  0.00  0.00    +0.000 C 
ATOM     18  O   UNL     1      -1.150  10.003  19.776  0.00  0.00    +0.000 OA
ATOM     19  N   UNL     1      -0.838  10.991  17.715  0.00  0.00    +0.000 N 
ATOM     20  H   UNL     1      -0.167  11.057  16.960  0.00  0.00    +0.000 HD
BRANCH  19  21
ATOM     21  C   UNL     1      -2.209  11.109  17.358  0.00  0.00    +0.000 A 
ATOM     22  C   UNL     1      -3.189  11.599  18.228  0.00  0.00    +0.000 A 
ATOM     23  C   UNL     1      -4.498  11.651  17.799  0.00  0.00    +0.000 A 
ATOM     24  N   UNL     1      -4.904  11.269  16.573  0.00  0.00    +0.000 NA
ATOM     25  C   UNL     1      -3.946  10.821  15.738  0.00  0.00    +0.000 A 
ATOM     26  C   UNL     1      -2.600  10.737  16.072  0.00  0.00    +0.000 A 
ENDBRANCH  19  21
ENDBRANCH   1  17
BRANCH   1  27
ATOM     27  C   UNL     1       1.991  11.616  18.557  0.00  0.00    +0.000 C 
BRANCH  27  28
ATOM     28  C   UNL     1       1.728  13.023  19.016  0.00  0.00    +0.000 A 
ATOM     29  C   UNL     1       0.860  13.390  20.031  0.00  0.00    +0.000 A 
ATOM     30  N   UNL     1       0.772  14.756  20.047  0.00  0.00    +0.000 N 
ATOM     31  C   UNL     1       1.576  15.292  19.072  0.00  0.00    +0.000 A 
ATOM     32  C   UNL     1       1.716  16.616  18.644  0.00  0.00    +0.000 A 
ATOM     33  C   UNL     1       2.705  16.887  17.695  0.00  0.00    +0.000 A 
ATOM     34  C   UNL     1       3.558  15.883  17.245  0.00  0.00    +0.000 A 
ATOM     35  C   UNL     1       3.374  14.557  17.657  0.00  0.00    +0.000 A 
ATOM     36  C   UNL     1       2.317  14.239  18.535  0.00  0.00    +0.000 A 
ATOM     37  H   UNL     1       0.204  15.302  20.680  0.00  0.00    +0.000 HD
ENDBRANCH  27  28
ENDBRANCH   1  27
TORSDOF 6
ENDMDL
MODEL 2
REMARK VINA RESULT:      -8.7      2.431      8.694
REMARK  Name = 
REMARK  6 active torsions:
REMARK  status: ('A' for Active; 'I' for Inactive)
REMARK    1  A    between atoms: C_2  and  C_24
REMARK    2  A    between atoms: N_3  and  C_4
REMARK    3  A    between atoms: C_4  and  C_5
REMARK    4  A    between atoms: C_4  and  C_15
REMARK    5  A    between atoms: C_5  and  C_6
REMARK    6  A    between atoms: N_17  and  C_18
REMARK                            x       y       z     vdW  Elec       q    Type
REMARK                         _______ _______ _______ _____ _____    ______ ____
ROOT
ATOM      1  C   UNL     1       0.969  10.087  19.666  0.00  0.00    +0.000 C 
ENDROOT
BRANCH   1   4
ATOM      2  O   UNL     1       1.736  12.551  20.947  0.00  0.00    +0.000 OA
ATOM      3  C   UNL     1       1.568  12.534  19.733  0.00  0.00    +0.000 C 
ATOM      4  N   UNL     1       1.186  11.407  19.056  0.00  0.00    +0.000 N 
ATOM      5  H   UNL     1       1.242  11.408  18.038  0.00  0.00    +0.000 HD
BRANCH   3   6
ATOM      6  C   UNL     1       1.664  13.791  18.931  0.00  0.00    +0.000 A 
ATOM      7  C   UNL     1       2.899  14.108  18.355  0.00  0.00    +0.000 A 
ATOM      8  C   UNL     1       3.110  15.367  17.783  0.00  0.00    +0.000 A 
ATOM      9  C   UNL     1       2.084  16.326  17.754  0.00  0.00    +0.000 A 
ATOM     10  C   UNL     1       2.309  17.626  17.270  0.00  0.00    +0.000 A 
ATOM     11  C   UNL     1       1.276  18.564  17.231  0.00  0.00    +0.000 A 
ATOM     12  C   UNL     1      -0.004  18.203  17.641  0.00  0.00    +0.000 A 
ATOM     13  C   UNL     1      -0.239  16.922  18.142  0.00  0.00    +0.000 A 
ATOM     14  C   UNL     1       0.803  15.979  18.236  0.00  0.00    +0.000 A 
ATOM     15  C   UNL     1       0.618  14.714  18.826  0.00  0.00    +0.000 A 
ATOM     16  F   UNL     1      -0.590  14.417  19.336  0.00  0.00    +0.000 F 
ENDBRANCH   3   6
ENDBRANCH   1   4
BRANCH   1  17
ATOM     17  C   UNL     1       1.632   9.089  18.671  0.00  0.00    +0.000 C 
ATOM     18  O   UNL     1       1.729   9.416  17.481  0.00  0.00    +0.000 OA
ATOM     19  N   UNL     1       2.149   7.908  19.175  0.00  0.00    +0.000 N 
ATOM     20  H   UNL     1       1.775   7.580  20.057  0.00  0.00    +0.000 HD
BRANCH  19  21
ATOM     21  C   UNL     1       2.875   6.961  18.403  0.00  0.00    +0.000 A 
ATOM     22  C   UNL     1       4.024   7.285  17.673  0.00  0.00    +0.000 A 
ATOM     23  C   UNL     1       4.644   6.302  16.931  0.00  0.00    +0.000 A 
ATOM     24  N   UNL     1       4.221   5.025  16.871  0.00  0.00    +0.000 NA
ATOM     25  C   UNL     1       3.127   4.722  17.597  0.00  0.00    +0.000 A 
ATOM     26  C   UNL     1       2.436   5.637  18.381  0.00  0.00    +0.000 A 
ENDBRANCH  19  21
ENDBRANCH   1  17
BRANCH   1  27
ATOM     27  C   UNL     1      -0.497   9.852  20.092  0.00  0.00    +0.000 C 
BRANCH  27  28
ATOM     28  C   UNL     1      -1.527  10.744  19.456  0.00  0.00    +0.000 A 
ATOM     29  C   UNL     1      -2.106  11.854  20.047  0.00  0.00    +0.000 A 
ATOM     30  N   UNL     1      -3.103  12.307  19.225  0.00  0.00    +0.000 N 
ATOM     31  C   UNL     1      -3.179  11.523  18.101  0.00  0.00    +0.000 A 
ATOM     32  C   UNL     1      -4.108  11.532  17.055  0.00  0.00    +0.000 A 
ATOM     33  C   UNL     1      -3.870  10.682  15.972  0.00  0.00    +0.000 A 
ATOM     34  C   UNL     1      -2.716   9.905  15.915  0.00  0.00    +0.000 A 
ATOM     35  C   UNL     1      -1.821   9.881  16.991  0.00  0.00    +0.000 A 
ATOM     36  C   UNL     1      -2.090  10.652  18.140  0.00  0.00    +0.000 A 
ATOM     37  H   UNL     1      -3.700  13.102  19.407  0.00  0.00    +0.000 HD
ENDBRANCH  27  28
ENDBRANCH   1  27
TORSDOF 6
ENDMDL
MODEL 3
REMARK VINA RESULT:      -8.6      4.575      9.703
REMARK  Name = 
REMARK  6 active torsions:
REMARK  status: ('A' for Active; 'I' for Inactive)
REMARK    1  A    between atoms: C_2  and  C_24
REMARK    2  A    between atoms: N_3  and  C_4
REMARK    3  A    between atoms: C_4  and  C_5
REMARK    4  A    between atoms: C_4  and  C_15
REMARK    5  A    between atoms: C_5  and  C_6
REMARK    6  A    between atoms: N_17  and  C_18
REMARK                            x       y       z     vdW  Elec       q    Type
REMARK                         _______ _______ _______ _____ _____    ______ ____
ROOT
ATOM      1  C   UNL     1       5.910   5.387  18.386  0.00  0.00    +0.000 C 
ENDROOT
BRANCH   1   4
ATOM      2  O   UNL     1       3.342   5.603  17.098  0.00  0.00    +0.000 OA
ATOM      3  C   UNL     1       3.595   6.327  18.055  0.00  0.00    +0.000 C 
ATOM      4  N   UNL     1       4.799   6.295  18.706  0.00  0.00    +0.000 N 
ATOM      5  H   UNL     1       4.883   6.782  19.599  0.00  0.00    +0.000 HD
BRANCH   3   6
ATOM      6  C   UNL     1       2.628   7.377  18.495  0.00  0.00    +0.000 A 
ATOM      7  C   UNL     1       2.395   8.455  17.633  0.00  0.00    +0.000 A 
ATOM      8  C   UNL     1       1.677   9.571  18.076  0.00  0.00    +0.000 A 
ATOM      9  C   UNL     1       1.156   9.622  19.380  0.00  0.00    +0.000 A 
ATOM     10  C   UNL     1       0.515  10.773  19.869  0.00  0.00    +0.000 A 
ATOM     11  C   UNL     1      -0.012  10.803  21.161  0.00  0.00    +0.000 A 
ATOM     12  C   UNL     1       0.061   9.672  21.967  0.00  0.00    +0.000 A 
ATOM     13  C   UNL     1       0.710   8.527  21.502  0.00  0.00    +0.000 A 
ATOM     14  C   UNL     1       1.293   8.496  20.221  0.00  0.00    +0.000 A 
ATOM     15  C   UNL     1       2.038   7.391  19.762  0.00  0.00    +0.000 A 
ATOM     16  F   UNL     1       2.213   6.349  20.594  0.00  0.00    +0.000 F 
ENDBRANCH   3   6
ENDBRANCH   1   4
BRANCH   1  17
ATOM     17  C   UNL     1       6.111   5.551  16.850  0.00  0.00    +0.000 C 
ATOM     18  O   UNL     1       6.140   6.693  16.375  0.00  0.00    +0.000 OA
ATOM     19  N   UNL     1       6.320   4.412  16.092  0.00  0.00    +0.000 N 
ATOM     20  H   UNL     1       5.988   3.536  16.475  0.00  0.00    +0.000 HD
BRANCH  19  21
ATOM     21  C   UNL     1       6.625   4.422  14.704  0.00  0.00    +0.000 A 
ATOM     22  C   UNL     1       7.655   5.190  14.150  0.00  0.00    +0.000 A 
ATOM     23  C   UNL     1       7.857   5.154  12.787  0.00  0.00    +0.000 A 
ATOM     24  N   UNL     1       7.127   4.407  11.937  0.00  0.00    +0.000 NA
ATOM     25  C   UNL     1       6.154   3.654  12.487  0.00  0.00    +0.000 A 
ATOM     26  C   UNL     1       5.876   3.615  13.847  0.00  0.00    +0.000 A 
ENDBRANCH  19  21
ENDBRANCH   1  17
BRANCH   1  27
ATOM     27  C   UNL     1       5.717   3.969  18.966  0.00  0.00    +0.000 C 
BRANCH  27  28
ATOM     28  C   UNL     1       4.384   3.322  18.714  0.00  0.00    +0.000 A 
ATOM     29  C   UNL     1       3.976   2.759  17.516  0.00  0.00    +0.000 A 
ATOM     30  N   UNL     1       2.655   2.419  17.630  0.00  0.00    +0.000 N 
ATOM     31  C   UNL     1       2.194   2.733  18.884  0.00  0.00    +0.000 A 
ATOM     32  C   UNL     1       0.899   2.677  19.411  0.00  0.00    +0.000 A 
ATOM     33  C   UNL     1       0.742   2.956  20.771  0.00  0.00    +0.000 A 
ATOM     34  C   UNL     1       1.846   3.218  21.578  0.00  0.00    +0.000 A 
ATOM     35  C   UNL     1       3.127   3.309  21.022  0.00  0.00    +0.000 A 
ATOM     36  C   UNL     1       3.300   3.133  19.634  0.00  0.00    +0.000 A 
ATOM     37  H   UNL     1       2.091   1.994  16.906  0.00  0.00    +0.000 HD
ENDBRANCH  27  28
ENDBRANCH   1  27
TORSDOF 6
ENDMDL
MODEL 4
REMARK VINA RESULT:      -8.5      3.480      9.787
REMARK  Name = 
REMARK  6 active torsions:
REMARK  status: ('A' for Active; 'I' for Inactive)
REMARK    1  A    between atoms: C_2  and  C_24
REMARK    2  A    between atoms: N_3  and  C_4
REMARK    3  A    between atoms: C_4  and  C_5
REMARK    4  A    between atoms: C_4  and  C_15
REMARK    5  A    between atoms: C_5  and  C_6
REMARK    6  A    between atoms: N_17  and  C_18
REMARK                            x       y       z     vdW  Elec       q    Type
REMARK                         _______ _______ _______ _____ _____    ______ ____
ROOT
ATOM      1  C   UNL     1       2.155   6.942  20.189  0.00  0.00    +0.000 C 
ENDROOT
BRANCH   1   4
ATOM      2  O   UNL     1       1.445   8.760  22.308  0.00  0.00    +0.000 OA
ATOM      3  C   UNL     1       1.161   9.049  21.150  0.00  0.00    +0.000 C 
ATOM      4  N   UNL     1       1.449   8.228  20.093  0.00  0.00    +0.000 N 
ATOM      5  H   UNL     1       1.357   8.601  19.148  0.00  0.00    +0.000 HD
BRANCH   3   6
ATOM      6  C   UNL     1       0.372  10.280  20.842  0.00  0.00    +0.000 A 
ATOM      7  C   UNL     1       0.713  11.005  19.694  0.00  0.00    +0.000 A 
ATOM      8  C   UNL     1       0.163  12.272  19.471  0.00  0.00    +0.000 A 
ATOM      9  C   UNL     1      -0.754  12.830  20.376  0.00  0.00    +0.000 A 
ATOM     10  C   UNL     1      -1.241  14.138  20.215  0.00  0.00    +0.000 A 
ATOM     11  C   UNL     1      -2.165  14.673  21.113  0.00  0.00    +0.000 A 
ATOM     12  C   UNL     1      -2.643  13.895  22.163  0.00  0.00    +0.000 A 
ATOM     13  C   UNL     1      -2.156  12.600  22.347  0.00  0.00    +0.000 A 
ATOM     14  C   UNL     1      -1.185  12.062  21.481  0.00  0.00    +0.000 A 
ATOM     15  C   UNL     1      -0.604  10.798  21.698  0.00  0.00    +0.000 A 
ATOM     16  F   UNL     1      -0.978  10.101  22.786  0.00  0.00    +0.000 F 
ENDBRANCH   3   6
ENDBRANCH   1   4
BRANCH   1  17
ATOM     17  C   UNL     1       3.031   6.887  18.902  0.00  0.00    +0.000 C 
ATOM     18  O   UNL     1       2.737   7.624  17.953  0.00  0.00    +0.000 OA
ATOM     19  N   UNL     1       4.146   6.066  18.903  0.00  0.00    +0.000 N 
ATOM     20  H   UNL     1       4.150   5.295  19.559  0.00  0.00    +0.000 HD
BRANCH  19  21
ATOM     21  C   UNL     1       5.091   6.002  17.843  0.00  0.00    +0.000 A 
ATOM     22  C   UNL     1       4.791   5.487  16.577  0.00  0.00    +0.000 A 
ATOM     23  C   UNL     1       5.783   5.442  15.622  0.00  0.00    +0.000 A 
ATOM     24  N   UNL     1       7.041   5.880  15.821  0.00  0.00    +0.000 NA
ATOM     25  C   UNL     1       7.310   6.394  17.037  0.00  0.00    +0.000 A 
ATOM     26  C   UNL     1       6.379   6.491  18.064  0.00  0.00    +0.000 A 
ENDBRANCH  19  21
ENDBRANCH   1  17
BRANCH   1  27
ATOM     27  C   UNL     1       1.214   5.758  20.501  0.00  0.00    +0.000 C 
BRANCH  27  28
ATOM     28  C   UNL     1       1.850   4.397  20.555  0.00  0.00    +0.000 A 
ATOM     29  C   UNL     1       2.223   3.727  21.708  0.00  0.00    +0.000 A 
ATOM     30  N   UNL     1       2.907   2.598  21.347  0.00  0.00    +0.000 N 
ATOM     31  C   UNL     1       2.977   2.508  19.979  0.00  0.00    +0.000 A 
ATOM     32  C   UNL     1       3.670   1.601  19.168  0.00  0.00    +0.000 A 
ATOM     33  C   UNL     1       3.466   1.682  17.789  0.00  0.00    +0.000 A 
ATOM     34  C   UNL     1       2.558   2.592  17.253  0.00  0.00    +0.000 A 
ATOM     35  C   UNL     1       1.907   3.516  18.079  0.00  0.00    +0.000 A 
ATOM     36  C   UNL     1       2.173   3.523  19.463  0.00  0.00    +0.000 A 
ATOM     37  H   UNL     1       3.304   1.921  21.984  0.00  0.00    +0.000 HD
ENDBRANCH  27  28
ENDBRANCH   1  27
TORSDOF 6
ENDMDL
MODEL 5
REMARK VINA RESULT:      -8.5      1.523      2.378
REMARK  Name = 
REMARK  6 active torsions:
REMARK  status: ('A' for Active; 'I' for Inactive)
REMARK    1  A    between atoms: C_2  and  C_24
REMARK    2  A    between atoms: N_3  and  C_4
REMARK    3  A    between atoms: C_4  and  C_5
REMARK    4  A    between atoms: C_4  and  C_15
REMARK    5  A    between atoms: C_5  and  C_6
REMARK    6  A    between atoms: N_17  and  C_18
REMARK                            x       y       z     vdW  Elec       q    Type
REMARK                         _______ _______ _______ _____ _____    ______ ____
ROOT
ATOM      1  C   UNL     1       0.076  10.843  20.538  0.00  0.00    +0.000 C 
ENDROOT
BRANCH   1   4
ATOM      2  O   UNL     1       1.560   8.857  22.005  0.00  0.00    +0.000 OA
ATOM      3  C   UNL     1       1.264   8.641  20.834  0.00  0.00    +0.000 C 
ATOM      4  N   UNL     1       0.577   9.543  20.068  0.00  0.00    +0.000 N 
ATOM      5  H   UNL     1       0.203   9.236  19.171  0.00  0.00    +0.000 HD
BRANCH   3   6
ATOM      6  C   UNL     1       1.745   7.408  20.140  0.00  0.00    +0.000 A 
ATOM      7  C   UNL     1       1.487   6.173  20.746  0.00  0.00    +0.000 A 
ATOM      8  C   UNL     1       2.096   5.010  20.263  0.00  0.00    +0.000 A 
ATOM      9  C   UNL     1       2.955   5.052  19.153  0.00  0.00    +0.000 A 
ATOM     10  C   UNL     1       3.647   3.910  18.716  0.00  0.00    +0.000 A 
ATOM     11  C   UNL     1       4.484   3.964  17.601  0.00  0.00    +0.000 A 
ATOM     12  C   UNL     1       4.612   5.150  16.885  0.00  0.00    +0.000 A 
ATOM     13  C   UNL     1       3.945   6.298  17.317  0.00  0.00    +0.000 A 
ATOM     14  C   UNL     1       3.137   6.275  18.470  0.00  0.00    +0.000 A 
ATOM     15  C   UNL     1       2.531   7.438  18.984  0.00  0.00    +0.000 A 
ATOM     16  F   UNL     1       2.760   8.608  18.361  0.00  0.00    +0.000 F 
ENDBRANCH   3   6
ENDBRANCH   1   4
BRANCH   1  17
ATOM     17  C   UNL     1      -1.087  11.184  19.559  0.00  0.00    +0.000 C 
ATOM     18  O   UNL     1      -1.581  12.318  19.598  0.00  0.00    +0.000 OA
ATOM     19  N   UNL     1      -1.469  10.224  18.638  0.00  0.00    +0.000 N 
ATOM     20  H   UNL     1      -1.250   9.261  18.857  0.00  0.00    +0.000 HD
BRANCH  19  21
ATOM     21  C   UNL     1      -2.436  10.438  17.618  0.00  0.00    +0.000 A 
ATOM     22  C   UNL     1      -2.229  10.090  16.278  0.00  0.00    +0.000 A 
ATOM     23  C   UNL     1      -3.217  10.363  15.357  0.00  0.00    +0.000 A 
ATOM     24  N   UNL     1      -4.395  10.938  15.663  0.00  0.00    +0.000 NA
ATOM     25  C   UNL     1      -4.591  11.246  16.960  0.00  0.00    +0.000 A 
ATOM     26  C   UNL     1      -3.662  11.007  17.965  0.00  0.00    +0.000 A 
ENDBRANCH  19  21
ENDBRANCH   1  17
BRANCH   1  27
ATOM     27  C   UNL     1       1.199  11.882  20.751  0.00  0.00    +0.000 C 
BRANCH  27  28
ATOM     28  C   UNL     1       1.739  12.543  19.514  0.00  0.00    +0.000 A 
ATOM     29  C   UNL     1       2.184  11.886  18.379  0.00  0.00    +0.000 A 
ATOM     30  N   UNL     1       2.744  12.811  17.540  0.00  0.00    +0.000 N 
ATOM     31  C   UNL     1       2.661  14.063  18.096  0.00  0.00    +0.000 A 
ATOM     32  C   UNL     1       3.197  15.281  17.663  0.00  0.00    +0.000 A 
ATOM     33  C   UNL     1       2.853  16.430  18.380  0.00  0.00    +0.000 A 
ATOM     34  C   UNL     1       1.960  16.365  19.446  0.00  0.00    +0.000 A 
ATOM     35  C   UNL     1       1.468  15.131  19.887  0.00  0.00    +0.000 A 
ATOM     36  C   UNL     1       1.880  13.945  19.245  0.00  0.00    +0.000 A 
ATOM     37  H   UNL     1       3.158  12.615  16.638  0.00  0.00    +0.000 HD
ENDBRANCH  27  28
ENDBRANCH   1  27
TORSDOF 6
ENDMDL
MODEL 6
REMARK VINA RESULT:      -8.4      2.144      3.426
REMARK  Name = 
REMARK  6 active torsions:
REMARK  status: ('A' for Active; 'I' for Inactive)
REMARK    1  A    between atoms: C_2  and  C_24
REMARK    2  A    between atoms: N_3  and  C_4
REMARK    3  A    between atoms: C_4  and  C_5
REMARK    4  A    between atoms: C_4  and  C_15
REMARK    5  A    between atoms: C_5  and  C_6
REMARK    6  A    between atoms: N_17  and  C_18
REMARK                            x       y       z     vdW  Elec       q    Type
REMARK                         _______ _______ _______ _____ _____    ______ ____
ROOT
ATOM      1  C   UNL     1       0.184  10.433  20.246  0.00  0.00    +0.000 C 
ENDROOT
BRANCH   1   4
ATOM      2  O   UNL     1       1.316   8.184  21.647  0.00  0.00    +0.000 OA
ATOM      3  C   UNL     1       1.436   8.253  20.429  0.00  0.00    +0.000 C 
ATOM      4  N   UNL     1       0.942   9.298  19.696  0.00  0.00    +0.000 N 
ATOM      5  H   UNL     1       0.910   9.210  18.681  0.00  0.00    +0.000 HD
BRANCH   3   6
ATOM      6  C   UNL     1       2.240   7.238  19.682  0.00  0.00    +0.000 A 
ATOM      7  C   UNL     1       2.925   7.660  18.538  0.00  0.00    +0.000 A 
ATOM      8  C   UNL     1       3.510   6.722  17.680  0.00  0.00    +0.000 A 
ATOM      9  C   UNL     1       3.442   5.348  17.960  0.00  0.00    +0.000 A 
ATOM     10  C   UNL     1       3.942   4.390  17.061  0.00  0.00    +0.000 A 
ATOM     11  C   UNL     1       3.883   3.028  17.360  0.00  0.00    +0.000 A 
ATOM     12  C   UNL     1       3.359   2.608  18.578  0.00  0.00    +0.000 A 
ATOM     13  C   UNL     1       2.842   3.545  19.474  0.00  0.00    +0.000 A 
ATOM     14  C   UNL     1       2.846   4.919  19.166  0.00  0.00    +0.000 A 
ATOM     15  C   UNL     1       2.246   5.878  20.006  0.00  0.00    +0.000 A 
ATOM     16  F   UNL     1       1.628   5.452  21.122  0.00  0.00    +0.000 F 
ENDBRANCH   3   6
ENDBRANCH   1   4
BRANCH   1  17
ATOM     17  C   UNL     1      -0.693  10.922  19.056  0.00  0.00    +0.000 C 
ATOM     18  O   UNL     1      -0.357  11.951  18.455  0.00  0.00    +0.000 OA
ATOM     19  N   UNL     1      -1.773  10.143  18.675  0.00  0.00    +0.000 N 
ATOM     20  H   UNL     1      -2.156   9.515  19.370  0.00  0.00    +0.000 HD
BRANCH  19  21
ATOM     21  C   UNL     1      -2.589  10.411  17.543  0.00  0.00    +0.000 A 
ATOM     22  C   UNL     1      -2.304   9.930  16.260  0.00  0.00    +0.000 A 
ATOM     23  C   UNL     1      -3.143  10.266  15.219  0.00  0.00    +0.000 A 
ATOM     24  N   UNL     1      -4.245  11.028  15.355  0.00  0.00    +0.000 NA
ATOM     25  C   UNL     1      -4.521  11.464  16.600  0.00  0.00    +0.000 A 
ATOM     26  C   UNL     1      -3.744  11.175  17.715  0.00  0.00    +0.000 A 
ENDBRANCH  19  21
ENDBRANCH   1  17
BRANCH   1  27
ATOM     27  C   UNL     1       1.077  11.455  20.983  0.00  0.00    +0.000 C 
BRANCH  27  28
ATOM     28  C   UNL     1       0.384  12.671  21.531  0.00  0.00    +0.000 A 
ATOM     29  C   UNL     1       0.838  13.975  21.419  0.00  0.00    +0.000 A 
ATOM     30  N   UNL     1       0.026  14.778  22.175  0.00  0.00    +0.000 N 
ATOM     31  C   UNL     1      -0.958  14.028  22.768  0.00  0.00    +0.000 A 
ATOM     32  C   UNL     1      -1.929  14.392  23.707  0.00  0.00    +0.000 A 
ATOM     33  C   UNL     1      -2.884  13.434  24.054  0.00  0.00    +0.000 A 
ATOM     34  C   UNL     1      -2.901  12.186  23.437  0.00  0.00    +0.000 A 
ATOM     35  C   UNL     1      -1.897  11.829  22.530  0.00  0.00    +0.000 A 
ATOM     36  C   UNL     1      -0.862  12.741  22.239  0.00  0.00    +0.000 A 
ATOM     37  H   UNL     1       0.125  15.778  22.285  0.00  0.00    +0.000 HD
ENDBRANCH  27  28
ENDBRANCH   1  27
TORSDOF 6
ENDMDL
MODEL 7
REMARK VINA RESULT:      -8.3      3.936      9.144
REMARK  Name = 
REMARK  6 active torsions:
REMARK  status: ('A' for Active; 'I' for Inactive)
REMARK    1  A    between atoms: C_2  and  C_24
REMARK    2  A    between atoms: N_3  and  C_4
REMARK    3  A    between atoms: C_4  and  C_5
REMARK    4  A    between atoms: C_4  and  C_15
REMARK    5  A    between atoms: C_5  and  C_6
REMARK    6  A    between atoms: N_17  and  C_18
REMARK                            x       y       z     vdW  Elec       q    Type
REMARK                         _______ _______ _______ _____ _____    ______ ____
ROOT
ATOM      1  C   UNL     1       2.508   7.378  17.818  0.00  0.00    +0.000 C 
ENDROOT
BRANCH   1   4
ATOM      2  O   UNL     1       1.508  10.067  17.557  0.00  0.00    +0.000 OA
ATOM      3  C   UNL     1       1.321   9.458  18.605  0.00  0.00    +0.000 C 
ATOM      4  N   UNL     1       1.782   8.184  18.810  0.00  0.00    +0.000 N 
ATOM      5  H   UNL     1       1.440   7.667  19.620  0.00  0.00    +0.000 HD
BRANCH   3   6
ATOM      6  C   UNL     1       0.668  10.125  19.771  0.00  0.00    +0.000 A 
ATOM      7  C   UNL     1       0.976   9.653  21.052  0.00  0.00    +0.000 A 
ATOM      8  C   UNL     1       0.238  10.085  22.159  0.00  0.00    +0.000 A 
ATOM      9  C   UNL     1      -0.805  11.014  22.013  0.00  0.00    +0.000 A 
ATOM     10  C   UNL     1      -1.615  11.384  23.100  0.00  0.00    +0.000 A 
ATOM     11  C   UNL     1      -2.637  12.321  22.944  0.00  0.00    +0.000 A 
ATOM     12  C   UNL     1      -2.839  12.928  21.708  0.00  0.00    +0.000 A 
ATOM     13  C   UNL     1      -2.055  12.558  20.615  0.00  0.00    +0.000 A 
ATOM     14  C   UNL     1      -1.053  11.576  20.742  0.00  0.00    +0.000 A 
ATOM     15  C   UNL     1      -0.313  11.112  19.637  0.00  0.00    +0.000 A 
ATOM     16  F   UNL     1      -0.599  11.612  18.421  0.00  0.00    +0.000 F 
ENDBRANCH   3   6
ENDBRANCH   1   4
BRANCH   1  17
ATOM     17  C   UNL     1       2.455   5.929  18.387  0.00  0.00    +0.000 C 
ATOM     18  O   UNL     1       1.903   5.048  17.714  0.00  0.00    +0.000 OA
ATOM     19  N   UNL     1       3.090   5.674  19.590  0.00  0.00    +0.000 N 
ATOM     20  H   UNL     1       3.242   6.461  20.208  0.00  0.00    +0.000 HD
BRANCH  19  21
ATOM     21  C   UNL     1       3.215   4.381  20.168  0.00  0.00    +0.000 A 
ATOM     22  C   UNL     1       2.327   3.880  21.126  0.00  0.00    +0.000 A 
ATOM     23  C   UNL     1       2.547   2.624  21.649  0.00  0.00    +0.000 A 
ATOM     24  N   UNL     1       3.568   1.825  21.285  0.00  0.00    +0.000 NA
ATOM     25  C   UNL     1       4.401   2.310  20.344  0.00  0.00    +0.000 A 
ATOM     26  C   UNL     1       4.262   3.559  19.752  0.00  0.00    +0.000 A 
ENDBRANCH  19  21
ENDBRANCH   1  17
BRANCH   1  27
ATOM     27  C   UNL     1       3.879   7.979  17.438  0.00  0.00    +0.000 C 
BRANCH  27  28
ATOM     28  C   UNL     1       4.835   7.062  16.728  0.00  0.00    +0.000 A 
ATOM     29  C   UNL     1       4.791   6.738  15.383  0.00  0.00    +0.000 A 
ATOM     30  N   UNL     1       5.720   5.761  15.146  0.00  0.00    +0.000 N 
ATOM     31  C   UNL     1       6.382   5.449  16.307  0.00  0.00    +0.000 A 
ATOM     32  C   UNL     1       7.318   4.443  16.570  0.00  0.00    +0.000 A 
ATOM     33  C   UNL     1       7.916   4.432  17.832  0.00  0.00    +0.000 A 
ATOM     34  C   UNL     1       7.634   5.426  18.766  0.00  0.00    +0.000 A 
ATOM     35  C   UNL     1       6.665   6.399  18.495  0.00  0.00    +0.000 A 
ATOM     36  C   UNL     1       5.971   6.372  17.268  0.00  0.00    +0.000 A 
ATOM     37  H   UNL     1       5.903   5.326  14.251  0.00  0.00    +0.000 HD
ENDBRANCH  27  28
ENDBRANCH   1  27
TORSDOF 6
ENDMDL
MODEL 8
REMARK VINA RESULT:      -8.3      3.817      9.224
REMARK  Name = 
REMARK  6 active torsions:
REMARK  status: ('A' for Active; 'I' for Inactive)
REMARK    1  A    between atoms: C_2  and  C_24
REMARK    2  A    between atoms: N_3  and  C_4
REMARK    3  A    between atoms: C_4  and  C_5
REMARK    4  A    between atoms: C_4  and  C_15
REMARK    5  A    between atoms: C_5  and  C_6
REMARK    6  A    between atoms: N_17  and  C_18
REMARK                            x       y       z     vdW  Elec       q    Type
REMARK                         _______ _______ _______ _____ _____    ______ ____
ROOT
ATOM      1  C   UNL     1       2.584   7.592  17.955  0.00  0.00    +0.000 C 
ENDROOT
BRANCH   1   4
ATOM      2  O   UNL     1       0.561   9.631  17.731  0.00  0.00    +0.000 OA
ATOM      3  C   UNL     1       1.009   9.352  18.837  0.00  0.00    +0.000 C 
ATOM      4  N   UNL     1       1.984   8.408  19.021  0.00  0.00    +0.000 N 
ATOM      5  H   UNL     1       2.182   8.090  19.970  0.00  0.00    +0.000 HD
BRANCH   3   6
ATOM      6  C   UNL     1       0.588  10.118  20.048  0.00  0.00    +0.000 A 
ATOM      7  C   UNL     1      -0.142   9.441  21.031  0.00  0.00    +0.000 A 
ATOM      8  C   UNL     1      -0.748  10.149  22.074  0.00  0.00    +0.000 A 
ATOM      9  C   UNL     1      -0.618  11.544  22.170  0.00  0.00    +0.000 A 
ATOM     10  C   UNL     1      -1.298  12.278  23.156  0.00  0.00    +0.000 A 
ATOM     11  C   UNL     1      -1.146  13.662  23.250  0.00  0.00    +0.000 A 
ATOM     12  C   UNL     1      -0.283  14.325  22.383  0.00  0.00    +0.000 A 
ATOM     13  C   UNL     1       0.386  13.613  21.387  0.00  0.00    +0.000 A 
ATOM     14  C   UNL     1       0.204  12.224  21.245  0.00  0.00    +0.000 A 
ATOM     15  C   UNL     1       0.789  11.495  20.191  0.00  0.00    +0.000 A 
ATOM     16  F   UNL     1       1.521  12.162  19.281  0.00  0.00    +0.000 F 
ENDBRANCH   3   6
ENDBRANCH   1   4
BRANCH   1  17
ATOM     17  C   UNL     1       2.489   6.132  18.488  0.00  0.00    +0.000 C 
ATOM     18  O   UNL     1       1.915   5.283  17.793  0.00  0.00    +0.000 OA
ATOM     19  N   UNL     1       3.115   5.830  19.685  0.00  0.00    +0.000 N 
ATOM     20  H   UNL     1       3.287   6.597  20.322  0.00  0.00    +0.000 HD
BRANCH  19  21
ATOM     21  C   UNL     1       3.202   4.520  20.232  0.00  0.00    +0.000 A 
ATOM     22  C   UNL     1       2.318   4.032  21.200  0.00  0.00    +0.000 A 
ATOM     23  C   UNL     1       2.501   2.756  21.689  0.00  0.00    +0.000 A 
ATOM     24  N   UNL     1       3.481   1.927  21.283  0.00  0.00    +0.000 NA
ATOM     25  C   UNL     1       4.311   2.402  20.333  0.00  0.00    +0.000 A 
ATOM     26  C   UNL     1       4.207   3.669  19.772  0.00  0.00    +0.000 A 
ENDBRANCH  19  21
ENDBRANCH   1  17
BRANCH   1  27
ATOM     27  C   UNL     1       3.955   8.126  17.484  0.00  0.00    +0.000 C 
BRANCH  27  28
ATOM     28  C   UNL     1       4.830   7.154  16.744  0.00  0.00    +0.000 A 
ATOM     29  C   UNL     1       4.700   6.809  15.409  0.00  0.00    +0.000 A 
ATOM     30  N   UNL     1       5.571   5.787  15.143  0.00  0.00    +0.000 N 
ATOM     31  C   UNL     1       6.279   5.466  16.274  0.00  0.00    +0.000 A 
ATOM     32  C   UNL     1       7.181   4.422  16.509  0.00  0.00    +0.000 A 
ATOM     33  C   UNL     1       7.845   4.406  17.738  0.00  0.00    +0.000 A 
ATOM     34  C   UNL     1       7.657   5.428  18.665  0.00  0.00    +0.000 A 
ATOM     35  C   UNL     1       6.719   6.440  18.426  0.00  0.00    +0.000 A 
ATOM     36  C   UNL     1       5.961   6.423  17.237  0.00  0.00    +0.000 A 
ATOM     37  H   UNL     1       5.687   5.329  14.249  0.00  0.00    +0.000 HD
ENDBRANCH  27  28
ENDBRANCH   1  27
TORSDOF 6
ENDMDL
MODEL 9
REMARK VINA RESULT:      -8.3      2.082      5.367
REMARK  Name = 
REMARK  6 active torsions:
REMARK  status: ('A' for Active; 'I' for Inactive)
REMARK    1  A    between atoms: C_2  and  C_24
REMARK    2  A    between atoms: N_3  and  C_4
REMARK    3  A    between atoms: C_4  and  C_5
REMARK    4  A    between atoms: C_4  and  C_15
REMARK    5  A    between atoms: C_5  and  C_6
REMARK    6  A    between atoms: N_17  and  C_18
REMARK                            x       y       z     vdW  Elec       q    Type
REMARK                         _______ _______ _______ _____ _____    ______ ____
ROOT
ATOM      1  C   UNL     1       0.310  10.465  19.558  0.00  0.00    +0.000 C 
ENDROOT
BRANCH   1   4
ATOM      2  O   UNL     1       1.721   9.209  17.383  0.00  0.00    +0.000 OA
ATOM      3  C   UNL     1       1.814   8.735  18.510  0.00  0.00    +0.000 C 
ATOM      4  N   UNL     1       1.159   9.265  19.590  0.00  0.00    +0.000 N 
ATOM      5  H   UNL     1       1.418   8.944  20.523  0.00  0.00    +0.000 HD
BRANCH   3   6
ATOM      6  C   UNL     1       2.568   7.467  18.747  0.00  0.00    +0.000 A 
ATOM      7  C   UNL     1       3.580   7.129  17.841  0.00  0.00    +0.000 A 
ATOM      8  C   UNL     1       4.168   5.860  17.881  0.00  0.00    +0.000 A 
ATOM      9  C   UNL     1       3.775   4.913  18.841  0.00  0.00    +0.000 A 
ATOM     10  C   UNL     1       4.288   3.605  18.834  0.00  0.00    +0.000 A 
ATOM     11  C   UNL     1       3.901   2.679  19.804  0.00  0.00    +0.000 A 
ATOM     12  C   UNL     1       3.025   3.060  20.816  0.00  0.00    +0.000 A 
ATOM     13  C   UNL     1       2.493   4.350  20.826  0.00  0.00    +0.000 A 
ATOM     14  C   UNL     1       2.832   5.281  19.826  0.00  0.00    +0.000 A 
ATOM     15  C   UNL     1       2.237   6.556  19.755  0.00  0.00    +0.000 A 
ATOM     16  F   UNL     1       1.296   6.874  20.662  0.00  0.00    +0.000 F 
ENDBRANCH   3   6
ENDBRANCH   1   4
BRANCH   1  17
ATOM     17  C   UNL     1       1.026  11.468  20.511  0.00  0.00    +0.000 C 
ATOM     18  O   UNL     1       1.492  11.044  21.576  0.00  0.00    +0.000 OA
ATOM     19  N   UNL     1       1.174  12.779  20.091  0.00  0.00    +0.000 N 
ATOM     20  H   UNL     1       0.527  13.113  19.387  0.00  0.00    +0.000 HD
BRANCH  19  21
ATOM     21  C   UNL     1       1.899  13.769  20.807  0.00  0.00    +0.000 A 
ATOM     22  C   UNL     1       1.295  14.691  21.669  0.00  0.00    +0.000 A 
ATOM     23  C   UNL     1       2.081  15.632  22.299  0.00  0.00    +0.000 A 
ATOM     24  N   UNL     1       3.416  15.719  22.149  0.00  0.00    +0.000 NA
ATOM     25  C   UNL     1       3.988  14.811  21.335  0.00  0.00    +0.000 A 
ATOM     26  C   UNL     1       3.286  13.820  20.661  0.00  0.00    +0.000 A 
ENDBRANCH  19  21
ENDBRANCH   1  17
BRANCH   1  27
ATOM     27  C   UNL     1      -1.185  10.154  19.790  0.00  0.00    +0.000 C 
BRANCH  27  28
ATOM     28  C   UNL     1      -2.164  10.921  18.945  0.00  0.00    +0.000 A 
ATOM     29  C   UNL     1      -2.907  12.012  19.363  0.00  0.00    +0.000 A 
ATOM     30  N   UNL     1      -3.793  12.334  18.370  0.00  0.00    +0.000 N 
ATOM     31  C   UNL     1      -3.635  11.484  17.305  0.00  0.00    +0.000 A 
ATOM     32  C   UNL     1      -4.386  11.357  16.131  0.00  0.00    +0.000 A 
ATOM     33  C   UNL     1      -3.921  10.469  15.158  0.00  0.00    +0.000 A 
ATOM     34  C   UNL     1      -2.719   9.787  15.331  0.00  0.00    +0.000 A 
ATOM     35  C   UNL     1      -2.005   9.898  16.529  0.00  0.00    +0.000 A 
ATOM     36  C   UNL     1      -2.506  10.708  17.568  0.00  0.00    +0.000 A 
ATOM     37  H   UNL     1      -4.467  13.086  18.404  0.00  0.00    +0.000 HD
ENDBRANCH  27  28
ENDBRANCH   1  27
TORSDOF 6
ENDMDL
