MODEL 1
REMARK VINA RESULT:      -8.8      0.000      0.000
REMARK  Name = 
REMARK  10 active torsions:
REMARK  status: ('A' for Active; 'I' for Inactive)
REMARK    1  A    between atoms: C_1  and  C_2
REMARK    2  A    between atoms: C_2  and  C_3
REMARK    3  A    between atoms: C_6  and  C_7
REMARK    4  A    between atoms: C_6  and  C_8
REMARK    5  A    between atoms: C_11  and  C_12
REMARK    6  A    between atoms: C_12  and  O_13
REMARK    7  A    between atoms: C_12  and  C_14
REMARK    8  A    between atoms: C_17  and  C_18
REMARK    9  A    between atoms: C_19  and  C_20
REMARK   10  A    between atoms: C_20  and  O_22
REMARK                            x       y       z     vdW  Elec       q    Type
REMARK                         _______ _______ _______ _____ _____    ______ ____
ROOT
ATOM      1  C   UNL     1       3.202   5.765  19.353  0.00  0.00    +0.000 C 
ENDROOT
BRANCH   1  12
ATOM      2  C   UNL     1      -0.604  10.964  18.044  0.00  0.00    +0.000 C 
ATOM      3  C   UNL     1       0.593  11.046  19.017  0.00  0.00    +0.000 C 
ATOM      4  C   UNL     1       1.630  12.045  18.445  0.00  0.00    +0.000 C 
ATOM      5  C   UNL     1       0.150  11.639  20.374  0.00  0.00    +0.000 C 
ATOM      6  C   UNL     1      -0.467  10.638  21.332  0.00  0.00    +0.000 C 
ATOM      7  C   UNL     1       0.378   9.363  21.574  0.00  0.00    +0.000 C 
ATOM      8  C   UNL     1       1.363   9.594  22.742  0.00  0.00    +0.000 C 
ATOM      9  C   UNL     1      -0.634   8.268  22.001  0.00  0.00    +0.000 C 
ATOM     10  C   UNL     1       1.149   8.900  20.332  0.00  0.00    +0.000 A 
ATOM     11  C   UNL     1       1.830   7.656  20.369  0.00  0.00    +0.000 A 
ATOM     12  C   UNL     1       2.463   7.092  19.246  0.00  0.00    +0.000 A 
ATOM     13  C   UNL     1       2.450   7.829  18.064  0.00  0.00    +0.000 A 
ATOM     14  C   UNL     1       1.835   9.078  18.019  0.00  0.00    +0.000 A 
ATOM     15  C   UNL     1       1.205   9.651  19.146  0.00  0.00    +0.000 A 
ENDBRANCH   1  12
BRANCH   1  16
ATOM     16  C   UNL     1       4.053   5.381  18.155  0.00  0.00    +0.000 A 
ATOM     17  C   UNL     1       3.788   4.206  17.434  0.00  0.00    +0.000 A 
ATOM     18  C   UNL     1       4.528   3.889  16.289  0.00  0.00    +0.000 A 
ATOM     19  C   UNL     1       5.538   4.744  15.832  0.00  0.00    +0.000 A 
ATOM     20  C   UNL     1       5.842   5.885  16.584  0.00  0.00    +0.000 A 
ATOM     21  C   UNL     1       5.105   6.203  17.726  0.00  0.00    +0.000 A 
BRANCH  19  22
ATOM     22  C   UNL     1       6.259   4.405  14.597  0.00  0.00    +0.000 C 
ATOM     23  C   UNL     1       5.672   3.856  13.520  0.00  0.00    +0.000 C 
BRANCH  23  24
ATOM     24  C   UNL     1       6.486   3.527  12.338  0.00  0.00    +0.000 C 
ATOM     25  O   UNL     1       7.270   4.283  11.798  0.00  0.00    +0.000 OA
BRANCH  24  26
ATOM     26  O   UNL     1       6.259   2.264  11.901  0.00  0.00    +0.000 OA
ATOM     27  H   UNL     1       6.473   1.557  12.536  0.00  0.00    +0.000 HD
ENDBRANCH  24  26
ENDBRANCH  23  24
ENDBRANCH  19  22
ENDBRANCH   1  16
BRANCH   1  28
ATOM     28  O   UNL     1       2.288   4.681  19.546  0.00  0.00    +0.000 OA
ATOM     29  H   UNL     1       2.724   4.058  20.150  0.00  0.00    +0.000 HD
ENDBRANCH   1  28
TORSDOF 6
ENDMDL
MODEL 2
REMARK VINA RESULT:      -8.4      0.350      1.148
REMARK  Name = 
REMARK  10 active torsions:
REMARK  status: ('A' for Active; 'I' for Inactive)
REMARK    1  A    between atoms: C_1  and  C_2
REMARK    2  A    between atoms: C_2  and  C_3
REMARK    3  A    between atoms: C_6  and  C_7
REMARK    4  A    between atoms: C_6  and  C_8
REMARK    5  A    between atoms: C_11  and  C_12
REMARK    6  A    between atoms: C_12  and  O_13
REMARK    7  A    between atoms: C_12  and  C_14
REMARK    8  A    between atoms: C_17  and  C_18
REMARK    9  A    between atoms: C_19  and  C_20
REMARK   10  A    between atoms: C_20  and  O_22
REMARK                            x       y       z     vdW  Elec       q    Type
REMARK                         _______ _______ _______ _____ _____    ______ ____
ROOT
ATOM      1  C   UNL     1       3.220   6.071  19.142  0.00  0.00    +0.000 C 
ENDROOT
BRANCH   1  12
ATOM      2  C   UNL     1      -0.816  11.162  18.134  0.00  0.00    +0.000 C 
ATOM      3  C   UNL     1       0.399  11.252  19.083  0.00  0.00    +0.000 C 
ATOM      4  C   UNL     1       1.383  12.315  18.530  0.00  0.00    +0.000 C 
ATOM      5  C   UNL     1      -0.034  11.771  20.473  0.00  0.00    +0.000 C 
ATOM      6  C   UNL     1      -0.589  10.708  21.402  0.00  0.00    +0.000 C 
ATOM      7  C   UNL     1       0.312   9.459  21.571  0.00  0.00    +0.000 C 
ATOM      8  C   UNL     1       1.314   9.682  22.727  0.00  0.00    +0.000 C 
ATOM      9  C   UNL     1      -0.647   8.309  21.975  0.00  0.00    +0.000 C 
ATOM     10  C   UNL     1       1.070   9.078  20.295  0.00  0.00    +0.000 A 
ATOM     11  C   UNL     1       1.800   7.863  20.266  0.00  0.00    +0.000 A 
ATOM     12  C   UNL     1       2.428   7.371  19.106  0.00  0.00    +0.000 A 
ATOM     13  C   UNL     1       2.358   8.153  17.956  0.00  0.00    +0.000 A 
ATOM     14  C   UNL     1       1.694   9.378  17.977  0.00  0.00    +0.000 A 
ATOM     15  C   UNL     1       1.069   9.879  19.140  0.00  0.00    +0.000 A 
ENDBRANCH   1  12
BRANCH   1  16
ATOM     16  C   UNL     1       3.922   5.686  17.851  0.00  0.00    +0.000 A 
ATOM     17  C   UNL     1       4.701   6.620  17.151  0.00  0.00    +0.000 A 
ATOM     18  C   UNL     1       5.404   6.244  16.000  0.00  0.00    +0.000 A 
ATOM     19  C   UNL     1       5.354   4.926  15.532  0.00  0.00    +0.000 A 
ATOM     20  C   UNL     1       4.531   4.009  16.195  0.00  0.00    +0.000 A 
ATOM     21  C   UNL     1       3.829   4.381  17.343  0.00  0.00    +0.000 A 
BRANCH  19  22
ATOM     22  C   UNL     1       6.146   4.555  14.350  0.00  0.00    +0.000 C 
ATOM     23  C   UNL     1       5.684   3.773  13.359  0.00  0.00    +0.000 C 
BRANCH  23  24
ATOM     24  C   UNL     1       6.565   3.437  12.229  0.00  0.00    +0.000 C 
ATOM     25  O   UNL     1       6.574   2.371  11.645  0.00  0.00    +0.000 OA
BRANCH  24  26
ATOM     26  O   UNL     1       7.391   4.462  11.907  0.00  0.00    +0.000 OA
ATOM     27  H   UNL     1       8.306   4.209  11.689  0.00  0.00    +0.000 HD
ENDBRANCH  24  26
ENDBRANCH  23  24
ENDBRANCH  19  22
ENDBRANCH   1  16
BRANCH   1  28
ATOM     28  O   UNL     1       2.377   4.962  19.473  0.00  0.00    +0.000 OA
ATOM     29  H   UNL     1       2.156   4.526  18.635  0.00  0.00    +0.000 HD
ENDBRANCH   1  28
TORSDOF 6
ENDMDL
MODEL 3
REMARK VINA RESULT:      -8.1      4.094      6.464
REMARK  Name = 
REMARK  10 active torsions:
REMARK  status: ('A' for Active; 'I' for Inactive)
REMARK    1  A    between atoms: C_1  and  C_2
REMARK    2  A    between atoms: C_2  and  C_3
REMARK    3  A    between atoms: C_6  and  C_7
REMARK    4  A    between atoms: C_6  and  C_8
REMARK    5  A    between atoms: C_11  and  C_12
REMARK    6  A    between atoms: C_12  and  O_13
REMARK    7  A    between atoms: C_12  and  C_14
REMARK    8  A    between atoms: C_17  and  C_18
REMARK    9  A    between atoms: C_19  and  C_20
REMARK   10  A    between atoms: C_20  and  O_22
REMARK                            x       y       z     vdW  Elec       q    Type
REMARK                         _______ _______ _______ _____ _____    ______ ____
ROOT
ATOM      1  C   UNL     1       0.729  11.082  18.851  0.00  0.00    +0.000 C 
ENDROOT
BRANCH   1  12
ATOM      2  C   UNL     1      -5.819  10.490  18.783  0.00  0.00    +0.000 C 
ATOM      3  C   UNL     1      -5.112  11.832  18.493  0.00  0.00    +0.000 C 
ATOM      4  C   UNL     1      -5.440  12.262  17.040  0.00  0.00    +0.000 C 
ATOM      5  C   UNL     1      -5.679  12.952  19.395  0.00  0.00    +0.000 C 
ATOM      6  C   UNL     1      -5.072  13.016  20.783  0.00  0.00    +0.000 C 
ATOM      7  C   UNL     1      -3.524  13.059  20.814  0.00  0.00    +0.000 C 
ATOM      8  C   UNL     1      -3.033  14.522  20.733  0.00  0.00    +0.000 C 
ATOM      9  C   UNL     1      -3.120  12.487  22.198  0.00  0.00    +0.000 C 
ATOM     10  C   UNL     1      -2.870  12.232  19.701  0.00  0.00    +0.000 A 
ATOM     11  C   UNL     1      -1.464  12.052  19.713  0.00  0.00    +0.000 A 
ATOM     12  C   UNL     1      -0.787  11.215  18.806  0.00  0.00    +0.000 A 
ATOM     13  C   UNL     1      -1.548  10.580  17.828  0.00  0.00    +0.000 A 
ATOM     14  C   UNL     1      -2.925  10.786  17.762  0.00  0.00    +0.000 A 
ATOM     15  C   UNL     1      -3.606  11.632  18.665  0.00  0.00    +0.000 A 
ENDBRANCH   1  12
BRANCH   1  16
ATOM     16  C   UNL     1       1.264   9.691  19.149  0.00  0.00    +0.000 A 
ATOM     17  C   UNL     1       1.065   9.099  20.406  0.00  0.00    +0.000 A 
ATOM     18  C   UNL     1       1.498   7.792  20.655  0.00  0.00    +0.000 A 
ATOM     19  C   UNL     1       2.125   7.043  19.652  0.00  0.00    +0.000 A 
ATOM     20  C   UNL     1       2.376   7.654  18.418  0.00  0.00    +0.000 A 
ATOM     21  C   UNL     1       1.946   8.957  18.166  0.00  0.00    +0.000 A 
BRANCH  19  22
ATOM     22  C   UNL     1       2.518   5.656  19.934  0.00  0.00    +0.000 C 
ATOM     23  C   UNL     1       1.804   4.823  20.711  0.00  0.00    +0.000 C 
BRANCH  23  24
ATOM     24  C   UNL     1       2.297   3.457  20.956  0.00  0.00    +0.000 C 
ATOM     25  O   UNL     1       2.783   2.729  20.113  0.00  0.00    +0.000 OA
BRANCH  24  26
ATOM     26  O   UNL     1       2.140   3.086  22.250  0.00  0.00    +0.000 OA
ATOM     27  H   UNL     1       1.639   3.709  22.806  0.00  0.00    +0.000 HD
ENDBRANCH  24  26
ENDBRANCH  23  24
ENDBRANCH  19  22
ENDBRANCH   1  16
BRANCH   1  28
ATOM     28  O   UNL     1       1.292  11.938  19.851  0.00  0.00    +0.000 OA
ATOM     29  H   UNL     1       1.283  11.435  20.680  0.00  0.00    +0.000 HD
ENDBRANCH   1  28
TORSDOF 6
ENDMDL
MODEL 4
REMARK VINA RESULT:      -8.1      3.840      9.895
REMARK  Name = 
REMARK  10 active torsions:
REMARK  status: ('A' for Active; 'I' for Inactive)
REMARK    1  A    between atoms: C_1  and  C_2
REMARK    2  A    between atoms: C_2  and  C_3
REMARK    3  A    between atoms: C_6  and  C_7
REMARK    4  A    between atoms: C_6  and  C_8
REMARK    5  A    between atoms: C_11  and  C_12
REMARK    6  A    between atoms: C_12  and  O_13
REMARK    7  A    between atoms: C_12  and  C_14
REMARK    8  A    between atoms: C_17  and  C_18
REMARK    9  A    between atoms: C_19  and  C_20
REMARK   10  A    between atoms: C_20  and  O_22
REMARK                            x       y       z     vdW  Elec       q    Type
REMARK                         _______ _______ _______ _____ _____    ______ ____
ROOT
ATOM      1  C   UNL     1       1.954   8.775  19.574  0.00  0.00    +0.000 C 
ENDROOT
BRANCH   1  12
ATOM      2  C   UNL     1       1.346   2.228  19.561  0.00  0.00    +0.000 C 
ATOM      3  C   UNL     1       2.524   2.943  20.259  0.00  0.00    +0.000 C 
ATOM      4  C   UNL     1       2.457   2.641  21.778  0.00  0.00    +0.000 C 
ATOM      5  C   UNL     1       3.874   2.362  19.780  0.00  0.00    +0.000 C 
ATOM      6  C   UNL     1       4.387   2.944  18.477  0.00  0.00    +0.000 C 
ATOM      7  C   UNL     1       4.444   4.491  18.435  0.00  0.00    +0.000 C 
ATOM      8  C   UNL     1       5.804   4.987  18.978  0.00  0.00    +0.000 C 
ATOM      9  C   UNL     1       4.354   4.869  16.933  0.00  0.00    +0.000 C 
ATOM     10  C   UNL     1       3.303   5.163  19.207  0.00  0.00    +0.000 A 
ATOM     11  C   UNL     1       3.143   6.569  19.113  0.00  0.00    +0.000 A 
ATOM     12  C   UNL     1       2.059   7.260  19.687  0.00  0.00    +0.000 A 
ATOM     13  C   UNL     1       1.138   6.516  20.419  0.00  0.00    +0.000 A 
ATOM     14  C   UNL     1       1.306   5.141  20.572  0.00  0.00    +0.000 A 
ATOM     15  C   UNL     1       2.396   4.445  20.004  0.00  0.00    +0.000 A 
ENDBRANCH   1  12
BRANCH   1  16
ATOM     16  C   UNL     1       1.045   9.454  20.585  0.00  0.00    +0.000 A 
ATOM     17  C   UNL     1       0.097  10.403  20.172  0.00  0.00    +0.000 A 
ATOM     18  C   UNL     1      -0.787  10.976  21.095  0.00  0.00    +0.000 A 
ATOM     19  C   UNL     1      -0.752  10.603  22.443  0.00  0.00    +0.000 A 
ATOM     20  C   UNL     1       0.232   9.702  22.865  0.00  0.00    +0.000 A 
ATOM     21  C   UNL     1       1.114   9.129  21.948  0.00  0.00    +0.000 A 
BRANCH  19  22
ATOM     22  C   UNL     1      -1.729  11.187  23.373  0.00  0.00    +0.000 C 
ATOM     23  C   UNL     1      -2.695  12.044  22.997  0.00  0.00    +0.000 C 
BRANCH  23  24
ATOM     24  C   UNL     1      -3.610  12.595  24.009  0.00  0.00    +0.000 C 
ATOM     25  O   UNL     1      -4.553  12.002  24.496  0.00  0.00    +0.000 OA
BRANCH  24  26
ATOM     26  O   UNL     1      -3.289  13.869  24.344  0.00  0.00    +0.000 OA
ATOM     27  H   UNL     1      -3.026  14.442  23.601  0.00  0.00    +0.000 HD
ENDBRANCH  24  26
ENDBRANCH  23  24
ENDBRANCH  19  22
ENDBRANCH   1  16
BRANCH   1  28
ATOM     28  O   UNL     1       1.464   9.163  18.286  0.00  0.00    +0.000 OA
ATOM     29  H   UNL     1       1.309   8.342  17.793  0.00  0.00    +0.000 HD
ENDBRANCH   1  28
TORSDOF 6
ENDMDL
MODEL 5
REMARK VINA RESULT:      -7.9      3.279      5.852
REMARK  Name = 
REMARK  10 active torsions:
REMARK  status: ('A' for Active; 'I' for Inactive)
REMARK    1  A    between atoms: C_1  and  C_2
REMARK    2  A    between atoms: C_2  and  C_3
REMARK    3  A    between atoms: C_6  and  C_7
REMARK    4  A    between atoms: C_6  and  C_8
REMARK    5  A    between atoms: C_11  and  C_12
REMARK    6  A    between atoms: C_12  and  O_13
REMARK    7  A    between atoms: C_12  and  C_14
REMARK    8  A    between atoms: C_17  and  C_18
REMARK    9  A    between atoms: C_19  and  C_20
REMARK   10  A    between atoms: C_20  and  O_22
REMARK                            x       y       z     vdW  Elec       q    Type
REMARK                         _______ _______ _______ _____ _____    ______ ____
ROOT
ATOM      1  C   UNL     1       0.667  11.112  19.047  0.00  0.00    +0.000 C 
ENDROOT
BRANCH   1  12
ATOM      2  C   UNL     1      -5.871  10.498  18.725  0.00  0.00    +0.000 C 
ATOM      3  C   UNL     1      -5.158  11.844  18.469  0.00  0.00    +0.000 C 
ATOM      4  C   UNL     1      -5.432  12.280  17.007  0.00  0.00    +0.000 C 
ATOM      5  C   UNL     1      -5.763  12.957  19.354  0.00  0.00    +0.000 C 
ATOM      6  C   UNL     1      -5.210  13.016  20.765  0.00  0.00    +0.000 C 
ATOM      7  C   UNL     1      -3.664  13.064  20.855  0.00  0.00    +0.000 C 
ATOM      8  C   UNL     1      -3.176  14.529  20.801  0.00  0.00    +0.000 C 
ATOM      9  C   UNL     1      -3.312  12.486  22.251  0.00  0.00    +0.000 C 
ATOM     10  C   UNL     1      -2.966  12.245  19.764  0.00  0.00    +0.000 A 
ATOM     11  C   UNL     1      -1.560  12.070  19.829  0.00  0.00    +0.000 A 
ATOM     12  C   UNL     1      -0.846  11.240  18.945  0.00  0.00    +0.000 A 
ATOM     13  C   UNL     1      -1.567  10.608  17.935  0.00  0.00    +0.000 A 
ATOM     14  C   UNL     1      -2.940  10.809  17.817  0.00  0.00    +0.000 A 
ATOM     15  C   UNL     1      -3.659  11.647  18.698  0.00  0.00    +0.000 A 
ENDBRANCH   1  12
BRANCH   1  16
ATOM     16  C   UNL     1       1.210   9.695  19.127  0.00  0.00    +0.000 A 
ATOM     17  C   UNL     1       1.832   9.101  18.017  0.00  0.00    +0.000 A 
ATOM     18  C   UNL     1       2.393   7.823  18.114  0.00  0.00    +0.000 A 
ATOM     19  C   UNL     1       2.358   7.116  19.321  0.00  0.00    +0.000 A 
ATOM     20  C   UNL     1       1.687   7.683  20.411  0.00  0.00    +0.000 A 
ATOM     21  C   UNL     1       1.127   8.958  20.318  0.00  0.00    +0.000 A 
BRANCH  19  22
ATOM     22  C   UNL     1       3.004   5.798  19.399  0.00  0.00    +0.000 C 
ATOM     23  C   UNL     1       3.862   5.334  18.474  0.00  0.00    +0.000 C 
BRANCH  23  24
ATOM     24  C   UNL     1       4.436   3.987  18.628  0.00  0.00    +0.000 C 
ATOM     25  O   UNL     1       4.400   3.325  19.646  0.00  0.00    +0.000 OA
BRANCH  24  26
ATOM     26  O   UNL     1       5.031   3.557  17.489  0.00  0.00    +0.000 OA
ATOM     27  H   UNL     1       4.797   4.050  16.683  0.00  0.00    +0.000 HD
ENDBRANCH  24  26
ENDBRANCH  23  24
ENDBRANCH  19  22
ENDBRANCH   1  16
BRANCH   1  28
ATOM     28  O   UNL     1       1.164  11.785  20.209  0.00  0.00    +0.000 OA
ATOM     29  H   UNL     1       2.063  12.080  19.992  0.00  0.00    +0.000 HD
ENDBRANCH   1  28
TORSDOF 6
ENDMDL
MODEL 6
REMARK VINA RESULT:      -7.8      3.266      5.678
REMARK  Name = 
REMARK  10 active torsions:
REMARK  status: ('A' for Active; 'I' for Inactive)
REMARK    1  A    between atoms: C_1  and  C_2
REMARK    2  A    between atoms: C_2  and  C_3
REMARK    3  A    between atoms: C_6  and  C_7
REMARK    4  A    between atoms: C_6  and  C_8
REMARK    5  A    between atoms: C_11  and  C_12
REMARK    6  A    between atoms: C_12  and  O_13
REMARK    7  A    between atoms: C_12  and  C_14
REMARK    8  A    between atoms: C_17  and  C_18
REMARK    9  A    between atoms: C_19  and  C_20
REMARK   10  A    between atoms: C_20  and  O_22
REMARK                            x       y       z     vdW  Elec       q    Type
REMARK                         _______ _______ _______ _____ _____    ______ ____
ROOT
ATOM      1  C   UNL     1       0.714  11.057  19.770  0.00  0.00    +0.000 C 
ENDROOT
BRANCH   1  12
ATOM      2  C   UNL     1      -5.730  10.410  18.642  0.00  0.00    +0.000 C 
ATOM      3  C   UNL     1      -4.982  11.739  18.397  0.00  0.00    +0.000 C 
ATOM      4  C   UNL     1      -5.062  12.082  16.887  0.00  0.00    +0.000 C 
ATOM      5  C   UNL     1      -5.691  12.904  19.126  0.00  0.00    +0.000 C 
ATOM      6  C   UNL     1      -5.324  13.052  20.590  0.00  0.00    +0.000 C 
ATOM      7  C   UNL     1      -3.803  13.109  20.876  0.00  0.00    +0.000 C 
ATOM      8  C   UNL     1      -3.303  14.569  20.795  0.00  0.00    +0.000 C 
ATOM      9  C   UNL     1      -3.638  12.620  22.339  0.00  0.00    +0.000 C 
ATOM     10  C   UNL     1      -2.974  12.225  19.938  0.00  0.00    +0.000 A 
ATOM     11  C   UNL     1      -1.589  12.058  20.196  0.00  0.00    +0.000 A 
ATOM     12  C   UNL     1      -0.772  11.176  19.464  0.00  0.00    +0.000 A 
ATOM     13  C   UNL     1      -1.360  10.480  18.411  0.00  0.00    +0.000 A 
ATOM     14  C   UNL     1      -2.706  10.671  18.104  0.00  0.00    +0.000 A 
ATOM     15  C   UNL     1      -3.527  11.561  18.831  0.00  0.00    +0.000 A 
ENDBRANCH   1  12
BRANCH   1  16
ATOM     16  C   UNL     1       1.367   9.738  19.392  0.00  0.00    +0.000 A 
ATOM     17  C   UNL     1       1.427   8.678  20.311  0.00  0.00    +0.000 A 
ATOM     18  C   UNL     1       1.966   7.442  19.938  0.00  0.00    +0.000 A 
ATOM     19  C   UNL     1       2.442   7.232  18.639  0.00  0.00    +0.000 A 
ATOM     20  C   UNL     1       2.436   8.305  17.741  0.00  0.00    +0.000 A 
ATOM     21  C   UNL     1       1.899   9.540  18.110  0.00  0.00    +0.000 A 
BRANCH  19  22
ATOM     22  C   UNL     1       2.952   5.904  18.269  0.00  0.00    +0.000 C 
ATOM     23  C   UNL     1       4.148   5.431  18.658  0.00  0.00    +0.000 C 
BRANCH  23  24
ATOM     24  C   UNL     1       4.582   4.097  18.211  0.00  0.00    +0.000 C 
ATOM     25  O   UNL     1       4.041   3.442  17.342  0.00  0.00    +0.000 OA
BRANCH  24  26
ATOM     26  O   UNL     1       5.669   3.662  18.894  0.00  0.00    +0.000 OA
ATOM     27  H   UNL     1       5.726   2.698  19.019  0.00  0.00    +0.000 HD
ENDBRANCH  24  26
ENDBRANCH  23  24
ENDBRANCH  19  22
ENDBRANCH   1  16
BRANCH   1  28
ATOM     28  O   UNL     1       0.969  11.232  21.168  0.00  0.00    +0.000 OA
ATOM     29  H   UNL     1       1.887  10.956  21.316  0.00  0.00    +0.000 HD
ENDBRANCH   1  28
TORSDOF 6
ENDMDL
MODEL 7
REMARK VINA RESULT:      -7.7      3.780      8.922
REMARK  Name = 
REMARK  10 active torsions:
REMARK  status: ('A' for Active; 'I' for Inactive)
REMARK    1  A    between atoms: C_1  and  C_2
REMARK    2  A    between atoms: C_2  and  C_3
REMARK    3  A    between atoms: C_6  and  C_7
REMARK    4  A    between atoms: C_6  and  C_8
REMARK    5  A    between atoms: C_11  and  C_12
REMARK    6  A    between atoms: C_12  and  O_13
REMARK    7  A    between atoms: C_12  and  C_14
REMARK    8  A    between atoms: C_17  and  C_18
REMARK    9  A    between atoms: C_19  and  C_20
REMARK   10  A    between atoms: C_20  and  O_22
REMARK                            x       y       z     vdW  Elec       q    Type
REMARK                         _______ _______ _______ _____ _____    ______ ____
ROOT
ATOM      1  C   UNL     1       2.204   8.970  18.842  0.00  0.00    +0.000 C 
ENDROOT
BRANCH   1  12
ATOM      2  C   UNL     1       1.042   2.586  19.901  0.00  0.00    +0.000 C 
ATOM      3  C   UNL     1       2.316   3.287  20.422  0.00  0.00    +0.000 C 
ATOM      4  C   UNL     1       2.315   3.232  21.972  0.00  0.00    +0.000 C 
ATOM      5  C   UNL     1       3.581   2.515  19.981  0.00  0.00    +0.000 C 
ATOM      6  C   UNL     1       4.063   2.839  18.580  0.00  0.00    +0.000 C 
ATOM      7  C   UNL     1       4.249   4.349  18.289  0.00  0.00    +0.000 C 
ATOM      8  C   UNL     1       5.676   4.793  18.683  0.00  0.00    +0.000 C 
ATOM      9  C   UNL     1       4.102   4.496  16.752  0.00  0.00    +0.000 C 
ATOM     10  C   UNL     1       3.217   5.235  18.995  0.00  0.00    +0.000 A 
ATOM     11  C   UNL     1       3.171   6.619  18.685  0.00  0.00    +0.000 A 
ATOM     12  C   UNL     1       2.187   7.488  19.190  0.00  0.00    +0.000 A 
ATOM     13  C   UNL     1       1.251   6.955  20.073  0.00  0.00    +0.000 A 
ATOM     14  C   UNL     1       1.310   5.611  20.436  0.00  0.00    +0.000 A 
ATOM     15  C   UNL     1       2.302   4.737  19.937  0.00  0.00    +0.000 A 
ENDBRANCH   1  12
BRANCH   1  16
ATOM     16  C   UNL     1       0.846   9.641  18.729  0.00  0.00    +0.000 A 
ATOM     17  C   UNL     1       0.025   9.416  17.613  0.00  0.00    +0.000 A 
ATOM     18  C   UNL     1      -1.255   9.980  17.543  0.00  0.00    +0.000 A 
ATOM     19  C   UNL     1      -1.747  10.767  18.591  0.00  0.00    +0.000 A 
ATOM     20  C   UNL     1      -0.907  11.039  19.677  0.00  0.00    +0.000 A 
ATOM     21  C   UNL     1       0.369  10.479  19.749  0.00  0.00    +0.000 A 
BRANCH  19  22
ATOM     22  C   UNL     1      -3.114  11.298  18.506  0.00  0.00    +0.000 C 
ATOM     23  C   UNL     1      -4.050  10.816  17.669  0.00  0.00    +0.000 C 
BRANCH  23  24
ATOM     24  C   UNL     1      -5.385  11.435  17.639  0.00  0.00    +0.000 C 
ATOM     25  O   UNL     1      -6.391  10.949  18.118  0.00  0.00    +0.000 OA
BRANCH  24  26
ATOM     26  O   UNL     1      -5.376  12.629  16.999  0.00  0.00    +0.000 OA
ATOM     27  H   UNL     1      -5.333  13.413  17.576  0.00  0.00    +0.000 HD
ENDBRANCH  24  26
ENDBRANCH  23  24
ENDBRANCH  19  22
ENDBRANCH   1  16
BRANCH   1  28
ATOM     28  O   UNL     1       2.857   9.198  17.589  0.00  0.00    +0.000 OA
ATOM     29  H   UNL     1       3.729   8.777  17.654  0.00  0.00    +0.000 HD
ENDBRANCH   1  28
TORSDOF 6
ENDMDL
MODEL 8
REMARK VINA RESULT:      -7.7      3.816      9.188
REMARK  Name = 
REMARK  10 active torsions:
REMARK  status: ('A' for Active; 'I' for Inactive)
REMARK    1  A    between atoms: C_1  and  C_2
REMARK    2  A    between atoms: C_2  and  C_3
REMARK    3  A    between atoms: C_6  and  C_7
REMARK    4  A    between atoms: C_6  and  C_8
REMARK    5  A    between atoms: C_11  and  C_12
REMARK    6  A    between atoms: C_12  and  O_13
REMARK    7  A    between atoms: C_12  and  C_14
REMARK    8  A    between atoms: C_17  and  C_18
REMARK    9  A    between atoms: C_19  and  C_20
REMARK   10  A    between atoms: C_20  and  O_22
REMARK                            x       y       z     vdW  Elec       q    Type
REMARK                         _______ _______ _______ _____ _____    ______ ____
ROOT
ATOM      1  C   UNL     1       2.027   9.749  18.420  0.00  0.00    +0.000 C 
ENDROOT
BRANCH   1  12
ATOM      2  C   UNL     1       2.455   3.257  17.472  0.00  0.00    +0.000 C 
ATOM      3  C   UNL     1       3.510   4.040  18.284  0.00  0.00    +0.000 C 
ATOM      4  C   UNL     1       3.499   3.519  19.744  0.00  0.00    +0.000 C 
ATOM      5  C   UNL     1       4.931   3.751  17.750  0.00  0.00    +0.000 C 
ATOM      6  C   UNL     1       5.340   4.586  16.552  0.00  0.00    +0.000 C 
ATOM      7  C   UNL     1       5.153   6.113  16.730  0.00  0.00    +0.000 C 
ATOM      8  C   UNL     1       6.421   6.732  17.360  0.00  0.00    +0.000 C 
ATOM      9  C   UNL     1       4.996   6.681  15.295  0.00  0.00    +0.000 C 
ATOM     10  C   UNL     1       3.925   6.481  17.570  0.00  0.00    +0.000 A 
ATOM     11  C   UNL     1       3.545   7.844  17.672  0.00  0.00    +0.000 A 
ATOM     12  C   UNL     1       2.370   8.269  18.319  0.00  0.00    +0.000 A 
ATOM     13  C   UNL     1       1.581   7.293  18.923  0.00  0.00    +0.000 A 
ATOM     14  C   UNL     1       1.963   5.954  18.884  0.00  0.00    +0.000 A 
ATOM     15  C   UNL     1       3.146   5.525  18.242  0.00  0.00    +0.000 A 
ENDBRANCH   1  12
BRANCH   1  16
ATOM     16  C   UNL     1       0.547  10.085  18.476  0.00  0.00    +0.000 A 
ATOM     17  C   UNL     1       0.016  10.805  19.559  0.00  0.00    +0.000 A 
ATOM     18  C   UNL     1      -1.334  11.175  19.575  0.00  0.00    +0.000 A 
ATOM     19  C   UNL     1      -2.178  10.847  18.507  0.00  0.00    +0.000 A 
ATOM     20  C   UNL     1      -1.662  10.080  17.456  0.00  0.00    +0.000 A 
ATOM     21  C   UNL     1      -0.317   9.709  17.437  0.00  0.00    +0.000 A 
BRANCH  19  22
ATOM     22  C   UNL     1      -3.576  11.298  18.535  0.00  0.00    +0.000 C 
ATOM     23  C   UNL     1      -4.378  11.305  17.456  0.00  0.00    +0.000 C 
BRANCH  23  24
ATOM     24  C   UNL     1      -5.758  11.802  17.581  0.00  0.00    +0.000 C 
ATOM     25  O   UNL     1      -6.701  11.150  17.985  0.00  0.00    +0.000 OA
BRANCH  24  26
ATOM     26  O   UNL     1      -5.871  13.092  17.180  0.00  0.00    +0.000 OA
ATOM     27  H   UNL     1      -5.262  13.718  17.611  0.00  0.00    +0.000 HD
ENDBRANCH  24  26
ENDBRANCH  23  24
ENDBRANCH  19  22
ENDBRANCH   1  16
BRANCH   1  28
ATOM     28  O   UNL     1       2.550  10.475  17.302  0.00  0.00    +0.000 OA
ATOM     29  H   UNL     1       2.616  11.402  17.584  0.00  0.00    +0.000 HD
ENDBRANCH   1  28
TORSDOF 6
ENDMDL
MODEL 9
REMARK VINA RESULT:      -7.7      3.838      9.113
REMARK  Name = 
REMARK  10 active torsions:
REMARK  status: ('A' for Active; 'I' for Inactive)
REMARK    1  A    between atoms: C_1  and  C_2
REMARK    2  A    between atoms: C_2  and  C_3
REMARK    3  A    between atoms: C_6  and  C_7
REMARK    4  A    between atoms: C_6  and  C_8
REMARK    5  A    between atoms: C_11  and  C_12
REMARK    6  A    between atoms: C_12  and  O_13
REMARK    7  A    between atoms: C_12  and  C_14
REMARK    8  A    between atoms: C_17  and  C_18
REMARK    9  A    between atoms: C_19  and  C_20
REMARK   10  A    between atoms: C_20  and  O_22
REMARK                            x       y       z     vdW  Elec       q    Type
REMARK                         _______ _______ _______ _____ _____    ______ ____
ROOT
ATOM      1  C   UNL     1       2.166   8.926  18.891  0.00  0.00    +0.000 C 
ENDROOT
BRANCH   1  12
ATOM      2  C   UNL     1       1.115   2.503  19.821  0.00  0.00    +0.000 C 
ATOM      3  C   UNL     1       2.374   3.216  20.361  0.00  0.00    +0.000 C 
ATOM      4  C   UNL     1       2.367   3.131  21.909  0.00  0.00    +0.000 C 
ATOM      5  C   UNL     1       3.654   2.476  19.911  0.00  0.00    +0.000 C 
ATOM      6  C   UNL     1       4.136   2.835  18.519  0.00  0.00    +0.000 C 
ATOM      7  C   UNL     1       4.296   4.353  18.257  0.00  0.00    +0.000 C 
ATOM      8  C   UNL     1       5.713   4.815  18.667  0.00  0.00    +0.000 C 
ATOM      9  C   UNL     1       4.152   4.528  16.723  0.00  0.00    +0.000 C 
ATOM     10  C   UNL     1       3.245   5.207  18.976  0.00  0.00    +0.000 A 
ATOM     11  C   UNL     1       3.176   6.595  18.692  0.00  0.00    +0.000 A 
ATOM     12  C   UNL     1       2.174   7.437  19.210  0.00  0.00    +0.000 A 
ATOM     13  C   UNL     1       1.244   6.870  20.078  0.00  0.00    +0.000 A 
ATOM     14  C   UNL     1       1.326   5.521  20.415  0.00  0.00    +0.000 A 
ATOM     15  C   UNL     1       2.335   4.675  19.904  0.00  0.00    +0.000 A 
ENDBRANCH   1  12
BRANCH   1  16
ATOM     16  C   UNL     1       0.803   9.596  18.883  0.00  0.00    +0.000 A 
ATOM     17  C   UNL     1       0.368  10.351  19.984  0.00  0.00    +0.000 A 
ATOM     18  C   UNL     1      -0.858  11.025  19.946  0.00  0.00    +0.000 A 
ATOM     19  C   UNL     1      -1.669  10.971  18.806  0.00  0.00    +0.000 A 
ATOM     20  C   UNL     1      -1.263  10.172  17.732  0.00  0.00    +0.000 A 
ATOM     21  C   UNL     1      -0.041   9.498  17.766  0.00  0.00    +0.000 A 
BRANCH  19  22
ATOM     22  C   UNL     1      -2.924  11.735  18.784  0.00  0.00    +0.000 C 
ATOM     23  C   UNL     1      -4.035  11.323  18.149  0.00  0.00    +0.000 C 
BRANCH  23  24
ATOM     24  C   UNL     1      -5.237  12.173  18.162  0.00  0.00    +0.000 C 
ATOM     25  O   UNL     1      -6.207  12.022  17.446  0.00  0.00    +0.000 OA
BRANCH  24  26
ATOM     26  O   UNL     1      -5.141  13.171  19.073  0.00  0.00    +0.000 OA
ATOM     27  H   UNL     1      -5.414  12.938  19.979  0.00  0.00    +0.000 HD
ENDBRANCH  24  26
ENDBRANCH  23  24
ENDBRANCH  19  22
ENDBRANCH   1  16
BRANCH   1  28
ATOM     28  O   UNL     1       2.732   9.179  17.601  0.00  0.00    +0.000 OA
ATOM     29  H   UNL     1       2.336  10.007  17.285  0.00  0.00    +0.000 HD
ENDBRANCH   1  28
TORSDOF 6
ENDMDL
