MODEL 1
REMARK VINA RESULT:      -7.4      0.000      0.000
REMARK  Name = 
REMARK  5 active torsions:
REMARK  status: ('A' for Active; 'I' for Inactive)
REMARK    1  A    between atoms: C_6  and  C_7
REMARK    2  A    between atoms: C_15  and  C_16
REMARK    3  A    between atoms: N_19  and  C_20
REMARK    4  A    between atoms: C_20  and  C_21
REMARK    5  A    between atoms: C_25  and  C_26
REMARK                            x       y       z     vdW  Elec       q    Type
REMARK                         _______ _______ _______ _____ _____    ______ ____
ROOT
ATOM      1  O   UNL     1      -1.636  10.358  17.251  0.00  0.00    +0.000 OA
ATOM      2  C   UNL     1      -1.425  11.165  18.153  0.00  0.00    +0.000 C 
ATOM      3  C   UNL     1      -2.458  11.835  18.907  0.00  0.00    +0.000 A 
ATOM      4  N   UNL     1      -3.755  11.763  18.698  0.00  0.00    +0.000 NA
ATOM      5  N   UNL     1      -4.379  12.339  19.782  0.00  0.00    +0.000 NA
ATOM      6  C   UNL     1      -3.459  12.735  20.652  0.00  0.00    +0.000 A 
ATOM      7  N   UNL     1      -2.238  12.535  20.060  0.00  0.00    +0.000 N 
ATOM      8  C   UNL     1      -0.902  12.791  20.553  0.00  0.00    +0.000 C 
ATOM      9  C   UNL     1       0.143  12.630  19.425  0.00  0.00    +0.000 C 
ATOM     10  N   UNL     1      -0.131  11.427  18.624  0.00  0.00    +0.000 N 
ENDROOT
BRANCH   6  11
ATOM     11  C   UNL     1      -3.691  13.213  22.014  0.00  0.00    +0.000 A 
ATOM     12  N   UNL     1      -3.853  12.281  22.967  0.00  0.00    +0.000 NA
ATOM     13  C   UNL     1      -3.954  12.728  24.230  0.00  0.00    +0.000 A 
ATOM     14  C   UNL     1      -3.898  14.059  24.567  0.00  0.00    +0.000 A 
ATOM     15  C   UNL     1      -3.738  14.932  23.517  0.00  0.00    +0.000 A 
ATOM     16  N   UNL     1      -3.624  14.543  22.232  0.00  0.00    +0.000 NA
ENDBRANCH   6  11
BRANCH   9  17
ATOM     17  C   UNL     1       0.220  13.900  18.579  0.00  0.00    +0.000 C 
ATOM     18  C   UNL     1      -0.058  15.272  19.156  0.00  0.00    +0.000 C 
ATOM     19  C   UNL     1       1.323  14.936  18.667  0.00  0.00    +0.000 C 
ENDBRANCH   9  17
BRANCH  10  20
ATOM     20  C   UNL     1       0.945  10.494  18.316  0.00  0.00    +0.000 C 
BRANCH  20  21
ATOM     21  C   UNL     1       1.167   9.436  19.394  0.00  0.00    +0.000 A 
ATOM     22  C   UNL     1       0.472   9.548  20.617  0.00  0.00    +0.000 A 
ATOM     23  C   UNL     1       0.507   8.537  21.574  0.00  0.00    +0.000 A 
ATOM     24  C   UNL     1       1.195   7.361  21.312  0.00  0.00    +0.000 A 
ATOM     25  C   UNL     1       1.891   7.198  20.101  0.00  0.00    +0.000 A 
ATOM     26  C   UNL     1       1.915   8.259  19.171  0.00  0.00    +0.000 A 
ATOM     27 CL   UNL     1       2.887   8.112  17.742  0.00  0.00    +0.000 Cl
BRANCH  25  28
ATOM     28  C   UNL     1       2.528   5.864  19.798  0.00  0.00    +0.000 C 
ATOM     29  F   UNL     1       2.276   4.920  20.753  0.00  0.00    +0.000 F 
ATOM     30  F   UNL     1       2.074   5.319  18.635  0.00  0.00    +0.000 F 
ATOM     31  F   UNL     1       3.884   5.920  19.697  0.00  0.00    +0.000 F 
ENDBRANCH  25  28
ENDBRANCH  20  21
ENDBRANCH  10  20
TORSDOF 5
ENDMDL
MODEL 2
REMARK VINA RESULT:      -7.3      0.422      1.147
REMARK  Name = 
REMARK  5 active torsions:
REMARK  status: ('A' for Active; 'I' for Inactive)
REMARK    1  A    between atoms: C_6  and  C_7
REMARK    2  A    between atoms: C_15  and  C_16
REMARK    3  A    between atoms: N_19  and  C_20
REMARK    4  A    between atoms: C_20  and  C_21
REMARK    5  A    between atoms: C_25  and  C_26
REMARK                            x       y       z     vdW  Elec       q    Type
REMARK                         _______ _______ _______ _____ _____    ______ ____
ROOT
ATOM      1  O   UNL     1      -1.487  10.373  17.231  0.00  0.00    +0.000 OA
ATOM      2  C   UNL     1      -1.388  11.213  18.122  0.00  0.00    +0.000 C 
ATOM      3  C   UNL     1      -2.510  11.830  18.789  0.00  0.00    +0.000 A 
ATOM      4  N   UNL     1      -3.783  11.667  18.498  0.00  0.00    +0.000 NA
ATOM      5  N   UNL     1      -4.513  12.225  19.523  0.00  0.00    +0.000 NA
ATOM      6  C   UNL     1      -3.681  12.701  20.440  0.00  0.00    +0.000 A 
ATOM      7  N   UNL     1      -2.413  12.570  19.934  0.00  0.00    +0.000 N 
ATOM      8  C   UNL     1      -1.131  12.925  20.506  0.00  0.00    +0.000 C 
ATOM      9  C   UNL     1      -0.006  12.808  19.452  0.00  0.00    +0.000 C 
ATOM     10  N   UNL     1      -0.149  11.571  18.667  0.00  0.00    +0.000 N 
ENDROOT
BRANCH   6  11
ATOM     11  C   UNL     1      -4.032  13.194  21.771  0.00  0.00    +0.000 A 
ATOM     12  N   UNL     1      -4.517  14.443  21.849  0.00  0.00    +0.000 NA
ATOM     13  C   UNL     1      -4.941  14.846  23.059  0.00  0.00    +0.000 A 
ATOM     14  C   UNL     1      -4.896  14.050  24.178  0.00  0.00    +0.000 A 
ATOM     15  C   UNL     1      -4.374  12.792  23.993  0.00  0.00    +0.000 A 
ATOM     16  N   UNL     1      -3.940  12.330  22.804  0.00  0.00    +0.000 NA
ENDBRANCH   6  11
BRANCH   9  17
ATOM     17  C   UNL     1       0.044  14.060  18.578  0.00  0.00    +0.000 C 
ATOM     18  C   UNL     1      -0.325  15.429  19.108  0.00  0.00    +0.000 C 
ATOM     19  C   UNL     1       1.090  15.152  18.686  0.00  0.00    +0.000 C 
ENDBRANCH   9  17
BRANCH  10  20
ATOM     20  C   UNL     1       1.005  10.704  18.456  0.00  0.00    +0.000 C 
BRANCH  20  21
ATOM     21  C   UNL     1       1.153   9.613  19.512  0.00  0.00    +0.000 A 
ATOM     22  C   UNL     1       0.434   9.726  20.721  0.00  0.00    +0.000 A 
ATOM     23  C   UNL     1       0.401   8.691  21.653  0.00  0.00    +0.000 A 
ATOM     24  C   UNL     1       1.045   7.493  21.377  0.00  0.00    +0.000 A 
ATOM     25  C   UNL     1       1.763   7.329  20.180  0.00  0.00    +0.000 A 
ATOM     26  C   UNL     1       1.856   8.409  19.277  0.00  0.00    +0.000 A 
ATOM     27 CL   UNL     1       2.856   8.254  17.869  0.00  0.00    +0.000 Cl
BRANCH  25  28
ATOM     28  C   UNL     1       2.349   5.976  19.859  0.00  0.00    +0.000 C 
ATOM     29  F   UNL     1       1.921   5.476  18.662  0.00  0.00    +0.000 F 
ATOM     30  F   UNL     1       3.707   6.002  19.767  0.00  0.00    +0.000 F 
ATOM     31  F   UNL     1       2.041   5.020  20.778  0.00  0.00    +0.000 F 
ENDBRANCH  25  28
ENDBRANCH  20  21
ENDBRANCH  10  20
TORSDOF 5
ENDMDL
MODEL 3
REMARK VINA RESULT:      -7.0      4.611      7.495
REMARK  Name = 
REMARK  5 active torsions:
REMARK  status: ('A' for Active; 'I' for Inactive)
REMARK    1  A    between atoms: C_6  and  C_7
REMARK    2  A    between atoms: C_15  and  C_16
REMARK    3  A    between atoms: N_19  and  C_20
REMARK    4  A    between atoms: C_20  and  C_21
REMARK    5  A    between atoms: C_25  and  C_26
REMARK                            x       y       z     vdW  Elec       q    Type
REMARK                         _______ _______ _______ _____ _____    ______ ____
ROOT
ATOM      1  O   UNL     1      -1.456  11.788  21.958  0.00  0.00    +0.000 OA
ATOM      2  C   UNL     1      -0.660  11.401  21.106  0.00  0.00    +0.000 C 
ATOM      3  C   UNL     1       0.241  10.287  21.277  0.00  0.00    +0.000 A 
ATOM      4  N   UNL     1       0.418   9.581  22.373  0.00  0.00    +0.000 NA
ATOM      5  N   UNL     1       1.163   8.474  22.034  0.00  0.00    +0.000 NA
ATOM      6  C   UNL     1       1.414   8.502  20.732  0.00  0.00    +0.000 A 
ATOM      7  N   UNL     1       0.945   9.702  20.262  0.00  0.00    +0.000 N 
ATOM      8  C   UNL     1       0.955  10.256  18.925  0.00  0.00    +0.000 C 
ATOM      9  C   UNL     1       0.530  11.742  18.940  0.00  0.00    +0.000 C 
ATOM     10  N   UNL     1      -0.635  11.945  19.815  0.00  0.00    +0.000 N 
ENDROOT
BRANCH   6  11
ATOM     11  C   UNL     1       2.001   7.430  19.929  0.00  0.00    +0.000 A 
ATOM     12  N   UNL     1       1.864   6.178  20.394  0.00  0.00    +0.000 NA
ATOM     13  C   UNL     1       2.308   5.192  19.596  0.00  0.00    +0.000 A 
ATOM     14  C   UNL     1       2.876   5.415  18.364  0.00  0.00    +0.000 A 
ATOM     15  C   UNL     1       2.978   6.733  17.986  0.00  0.00    +0.000 A 
ATOM     16  N   UNL     1       2.545   7.762  18.740  0.00  0.00    +0.000 NA
ENDBRANCH   6  11
BRANCH   9  17
ATOM     17  C   UNL     1       1.712  12.635  19.313  0.00  0.00    +0.000 C 
ATOM     18  C   UNL     1       2.728  13.099  18.291  0.00  0.00    +0.000 C 
ATOM     19  C   UNL     1       1.835  14.105  18.961  0.00  0.00    +0.000 C 
ENDBRANCH   9  17
BRANCH  10  20
ATOM     20  C   UNL     1      -1.779  12.715  19.340  0.00  0.00    +0.000 C 
BRANCH  20  21
ATOM     21  C   UNL     1      -2.838  11.869  18.638  0.00  0.00    +0.000 A 
ATOM     22  C   UNL     1      -2.426  10.868  17.732  0.00  0.00    +0.000 A 
ATOM     23  C   UNL     1      -3.329   9.960  17.184  0.00  0.00    +0.000 A 
ATOM     24  C   UNL     1      -4.662   9.995  17.566  0.00  0.00    +0.000 A 
ATOM     25  C   UNL     1      -5.117  10.966  18.476  0.00  0.00    +0.000 A 
ATOM     26  C   UNL     1      -4.211  11.930  18.967  0.00  0.00    +0.000 A 
ATOM     27 CL   UNL     1      -4.800  13.210  19.978  0.00  0.00    +0.000 Cl
BRANCH  25  28
ATOM     28  C   UNL     1      -6.544  10.901  18.961  0.00  0.00    +0.000 C 
ATOM     29  F   UNL     1      -7.308  11.946  18.525  0.00  0.00    +0.000 F 
ATOM     30  F   UNL     1      -7.193   9.784  18.529  0.00  0.00    +0.000 F 
ATOM     31  F   UNL     1      -6.658  10.915  20.317  0.00  0.00    +0.000 F 
ENDBRANCH  25  28
ENDBRANCH  20  21
ENDBRANCH  10  20
TORSDOF 5
ENDMDL
MODEL 4
REMARK VINA RESULT:      -7.0      4.664      7.762
REMARK  Name = 
REMARK  5 active torsions:
REMARK  status: ('A' for Active; 'I' for Inactive)
REMARK    1  A    between atoms: C_6  and  C_7
REMARK    2  A    between atoms: C_15  and  C_16
REMARK    3  A    between atoms: N_19  and  C_20
REMARK    4  A    between atoms: C_20  and  C_21
REMARK    5  A    between atoms: C_25  and  C_26
REMARK                            x       y       z     vdW  Elec       q    Type
REMARK                         _______ _______ _______ _____ _____    ______ ____
ROOT
ATOM      1  O   UNL     1       0.346  14.351  18.799  0.00  0.00    +0.000 OA
ATOM      2  C   UNL     1      -0.032  13.182  18.783  0.00  0.00    +0.000 C 
ATOM      3  C   UNL     1       0.806  12.059  18.436  0.00  0.00    +0.000 A 
ATOM      4  N   UNL     1       2.048  12.110  18.005  0.00  0.00    +0.000 NA
ATOM      5  N   UNL     1       2.548  10.827  18.038  0.00  0.00    +0.000 NA
ATOM      6  C   UNL     1       1.615  10.010  18.511  0.00  0.00    +0.000 A 
ATOM      7  N   UNL     1       0.470  10.752  18.651  0.00  0.00    +0.000 N 
ATOM      8  C   UNL     1      -0.845  10.371  19.122  0.00  0.00    +0.000 C 
ATOM      9  C   UNL     1      -1.871  11.498  18.866  0.00  0.00    +0.000 C 
ATOM     10  N   UNL     1      -1.309  12.810  19.223  0.00  0.00    +0.000 N 
ENDROOT
BRANCH   6  11
ATOM     11  C   UNL     1       1.789   8.610  18.893  0.00  0.00    +0.000 A 
ATOM     12  N   UNL     1       2.246   7.773  17.947  0.00  0.00    +0.000 NA
ATOM     13  C   UNL     1       2.508   6.514  18.338  0.00  0.00    +0.000 A 
ATOM     14  C   UNL     1       2.330   6.071  19.627  0.00  0.00    +0.000 A 
ATOM     15  C   UNL     1       1.849   7.003  20.515  0.00  0.00    +0.000 A 
ATOM     16  N   UNL     1       1.576   8.280  20.184  0.00  0.00    +0.000 NA
ENDBRANCH   6  11
BRANCH   9  17
ATOM     17  C   UNL     1      -2.379  11.445  17.426  0.00  0.00    +0.000 C 
ATOM     18  C   UNL     1      -2.718  10.140  16.738  0.00  0.00    +0.000 C 
ATOM     19  C   UNL     1      -3.807  11.137  17.021  0.00  0.00    +0.000 C 
ENDBRANCH   9  17
BRANCH  10  20
ATOM     20  C   UNL     1      -2.079  13.735  20.046  0.00  0.00    +0.000 C 
BRANCH  20  21
ATOM     21  C   UNL     1      -2.662  13.096  21.304  0.00  0.00    +0.000 A 
ATOM     22  C   UNL     1      -1.785  12.555  22.268  0.00  0.00    +0.000 A 
ATOM     23  C   UNL     1      -2.242  12.105  23.504  0.00  0.00    +0.000 A 
ATOM     24  C   UNL     1      -3.585  12.231  23.831  0.00  0.00    +0.000 A 
ATOM     25  C   UNL     1      -4.495  12.777  22.908  0.00  0.00    +0.000 A 
ATOM     26  C   UNL     1      -4.036  13.158  21.630  0.00  0.00    +0.000 A 
ATOM     27 CL   UNL     1      -5.180  13.699  20.444  0.00  0.00    +0.000 Cl
BRANCH  25  28
ATOM     28  C   UNL     1      -5.922  13.010  23.340  0.00  0.00    +0.000 C 
ATOM     29  F   UNL     1      -6.834  12.373  22.547  0.00  0.00    +0.000 F 
ATOM     30  F   UNL     1      -6.168  12.554  24.600  0.00  0.00    +0.000 F 
ATOM     31  F   UNL     1      -6.286  14.321  23.324  0.00  0.00    +0.000 F 
ENDBRANCH  25  28
ENDBRANCH  20  21
ENDBRANCH  10  20
TORSDOF 5
ENDMDL
MODEL 5
REMARK VINA RESULT:      -6.9      4.591      7.569
REMARK  Name = 
REMARK  5 active torsions:
REMARK  status: ('A' for Active; 'I' for Inactive)
REMARK    1  A    between atoms: C_6  and  C_7
REMARK    2  A    between atoms: C_15  and  C_16
REMARK    3  A    between atoms: N_19  and  C_20
REMARK    4  A    between atoms: C_20  and  C_21
REMARK    5  A    between atoms: C_25  and  C_26
REMARK                            x       y       z     vdW  Elec       q    Type
REMARK                         _______ _______ _______ _____ _____    ______ ____
ROOT
ATOM      1  O   UNL     1      -1.508  11.559  21.836  0.00  0.00    +0.000 OA
ATOM      2  C   UNL     1      -0.665  11.242  21.001  0.00  0.00    +0.000 C 
ATOM      3  C   UNL     1       0.239  10.125  21.137  0.00  0.00    +0.000 A 
ATOM      4  N   UNL     1       0.367   9.342  22.186  0.00  0.00    +0.000 NA
ATOM      5  N   UNL     1       1.142   8.269  21.806  0.00  0.00    +0.000 NA
ATOM      6  C   UNL     1       1.459   8.395  20.524  0.00  0.00    +0.000 A 
ATOM      7  N   UNL     1       1.000   9.621  20.119  0.00  0.00    +0.000 N 
ATOM      8  C   UNL     1       1.072  10.272  18.828  0.00  0.00    +0.000 C 
ATOM      9  C   UNL     1       0.630  11.750  18.930  0.00  0.00    +0.000 C 
ATOM     10  N   UNL     1      -0.581  11.879  19.756  0.00  0.00    +0.000 N 
ENDROOT
BRANCH   6  11
ATOM     11  C   UNL     1       2.098   7.388  19.677  0.00  0.00    +0.000 A 
ATOM     12  N   UNL     1       2.636   7.816  18.525  0.00  0.00    +0.000 NA
ATOM     13  C   UNL     1       3.317   6.906  17.808  0.00  0.00    +0.000 A 
ATOM     14  C   UNL     1       3.475   5.599  18.203  0.00  0.00    +0.000 A 
ATOM     15  C   UNL     1       2.877   5.260  19.393  0.00  0.00    +0.000 A 
ATOM     16  N   UNL     1       2.188   6.130  20.158  0.00  0.00    +0.000 NA
ENDBRANCH   6  11
BRANCH   9  17
ATOM     17  C   UNL     1       1.781  12.623  19.427  0.00  0.00    +0.000 C 
ATOM     18  C   UNL     1       2.791  13.241  18.484  0.00  0.00    +0.000 C 
ATOM     19  C   UNL     1       1.862  14.128  19.264  0.00  0.00    +0.000 C 
ENDBRANCH   9  17
BRANCH  10  20
ATOM     20  C   UNL     1      -1.708  12.672  19.280  0.00  0.00    +0.000 C 
BRANCH  20  21
ATOM     21  C   UNL     1      -2.782  11.849  18.574  0.00  0.00    +0.000 A 
ATOM     22  C   UNL     1      -2.392  10.896  17.608  0.00  0.00    +0.000 A 
ATOM     23  C   UNL     1      -3.304  10.006  17.048  0.00  0.00    +0.000 A 
ATOM     24  C   UNL     1      -4.625  10.009  17.476  0.00  0.00    +0.000 A 
ATOM     25  C   UNL     1      -5.057  10.931  18.445  0.00  0.00    +0.000 A 
ATOM     26  C   UNL     1      -4.144  11.881  18.950  0.00  0.00    +0.000 A 
ATOM     27 CL   UNL     1      -4.710  13.105  20.040  0.00  0.00    +0.000 Cl
BRANCH  25  28
ATOM     28  C   UNL     1      -6.467  10.828  18.974  0.00  0.00    +0.000 C 
ATOM     29  F   UNL     1      -6.528  10.816  20.338  0.00  0.00    +0.000 F 
ATOM     30  F   UNL     1      -7.247  11.878  18.593  0.00  0.00    +0.000 F 
ATOM     31  F   UNL     1      -7.114   9.699  18.575  0.00  0.00    +0.000 F 
ENDBRANCH  25  28
ENDBRANCH  20  21
ENDBRANCH  10  20
TORSDOF 5
ENDMDL
MODEL 6
REMARK VINA RESULT:      -6.9      4.334      6.672
REMARK  Name = 
REMARK  5 active torsions:
REMARK  status: ('A' for Active; 'I' for Inactive)
REMARK    1  A    between atoms: C_6  and  C_7
REMARK    2  A    between atoms: C_15  and  C_16
REMARK    3  A    between atoms: N_19  and  C_20
REMARK    4  A    between atoms: C_20  and  C_21
REMARK    5  A    between atoms: C_25  and  C_26
REMARK                            x       y       z     vdW  Elec       q    Type
REMARK                         _______ _______ _______ _____ _____    ______ ____
ROOT
ATOM      1  O   UNL     1      -0.771  13.916  23.922  0.00  0.00    +0.000 OA
ATOM      2  C   UNL     1      -1.260  13.449  22.896  0.00  0.00    +0.000 C 
ATOM      3  C   UNL     1      -2.624  12.992  22.777  0.00  0.00    +0.000 A 
ATOM      4  N   UNL     1      -3.514  12.918  23.743  0.00  0.00    +0.000 NA
ATOM      5  N   UNL     1      -4.737  12.678  23.157  0.00  0.00    +0.000 NA
ATOM      6  C   UNL     1      -4.586  12.632  21.840  0.00  0.00    +0.000 A 
ATOM      7  N   UNL     1      -3.239  12.706  21.591  0.00  0.00    +0.000 N 
ATOM      8  C   UNL     1      -2.514  12.698  20.338  0.00  0.00    +0.000 C 
ATOM      9  C   UNL     1      -0.994  12.556  20.582  0.00  0.00    +0.000 C 
ATOM     10  N   UNL     1      -0.556  13.425  21.685  0.00  0.00    +0.000 N 
ENDROOT
BRANCH   6  11
ATOM     11  C   UNL     1      -5.649  12.596  20.837  0.00  0.00    +0.000 A 
ATOM     12  N   UNL     1      -5.747  13.654  20.016  0.00  0.00    +0.000 NA
ATOM     13  C   UNL     1      -6.654  13.563  19.028  0.00  0.00    +0.000 A 
ATOM     14  C   UNL     1      -7.455  12.461  18.838  0.00  0.00    +0.000 A 
ATOM     15  C   UNL     1      -7.282  11.437  19.738  0.00  0.00    +0.000 A 
ATOM     16  N   UNL     1      -6.385  11.469  20.743  0.00  0.00    +0.000 NA
ENDBRANCH   6  11
BRANCH   9  17
ATOM     17  C   UNL     1      -0.620  11.090  20.800  0.00  0.00    +0.000 C 
ATOM     18  C   UNL     1      -0.428  10.126  19.649  0.00  0.00    +0.000 C 
ATOM     19  C   UNL     1       0.743  10.491  20.517  0.00  0.00    +0.000 C 
ENDBRANCH   9  17
BRANCH  10  20
ATOM     20  C   UNL     1       0.618  14.275  21.522  0.00  0.00    +0.000 C 
BRANCH  20  21
ATOM     21  C   UNL     1       0.582  15.134  20.261  0.00  0.00    +0.000 A 
ATOM     22  C   UNL     1      -0.538  15.959  20.024  0.00  0.00    +0.000 A 
ATOM     23  C   UNL     1      -0.560  16.881  18.980  0.00  0.00    +0.000 A 
ATOM     24  C   UNL     1       0.559  17.040  18.174  0.00  0.00    +0.000 A 
ATOM     25  C   UNL     1       1.703  16.249  18.381  0.00  0.00    +0.000 A 
ATOM     26  C   UNL     1       1.688  15.264  19.390  0.00  0.00    +0.000 A 
ATOM     27 CL   UNL     1       3.045  14.197  19.553  0.00  0.00    +0.000 Cl
BRANCH  25  28
ATOM     28  C   UNL     1       2.941  16.531  17.566  0.00  0.00    +0.000 C 
ATOM     29  F   UNL     1       2.751  17.493  16.615  0.00  0.00    +0.000 F 
ATOM     30  F   UNL     1       3.976  16.985  18.327  0.00  0.00    +0.000 F 
ATOM     31  F   UNL     1       3.405  15.446  16.889  0.00  0.00    +0.000 F 
ENDBRANCH  25  28
ENDBRANCH  20  21
ENDBRANCH  10  20
TORSDOF 5
ENDMDL
MODEL 7
REMARK VINA RESULT:      -6.9      3.295      5.155
REMARK  Name = 
REMARK  5 active torsions:
REMARK  status: ('A' for Active; 'I' for Inactive)
REMARK    1  A    between atoms: C_6  and  C_7
REMARK    2  A    between atoms: C_15  and  C_16
REMARK    3  A    between atoms: N_19  and  C_20
REMARK    4  A    between atoms: C_20  and  C_21
REMARK    5  A    between atoms: C_25  and  C_26
REMARK                            x       y       z     vdW  Elec       q    Type
REMARK                         _______ _______ _______ _____ _____    ______ ____
ROOT
ATOM      1  O   UNL     1       0.451  10.109  22.681  0.00  0.00    +0.000 OA
ATOM      2  C   UNL     1       0.556  10.537  21.535  0.00  0.00    +0.000 C 
ATOM      3  C   UNL     1       0.656  11.936  21.192  0.00  0.00    +0.000 A 
ATOM      4  N   UNL     1       0.563  12.955  22.018  0.00  0.00    +0.000 NA
ATOM      5  N   UNL     1       0.965  14.079  21.331  0.00  0.00    +0.000 NA
ATOM      6  C   UNL     1       1.323  13.731  20.102  0.00  0.00    +0.000 A 
ATOM      7  N   UNL     1       1.017  12.402  19.959  0.00  0.00    +0.000 N 
ATOM      8  C   UNL     1       1.192  11.514  18.829  0.00  0.00    +0.000 C 
ATOM      9  C   UNL     1       0.470  10.168  19.069  0.00  0.00    +0.000 C 
ATOM     10  N   UNL     1       0.710   9.681  20.436  0.00  0.00    +0.000 N 
ENDROOT
BRANCH   6  11
ATOM     11  C   UNL     1       1.992  14.575  19.112  0.00  0.00    +0.000 A 
ATOM     12  N   UNL     1       1.388  15.729  18.788  0.00  0.00    +0.000 NA
ATOM     13  C   UNL     1       2.064  16.547  17.963  0.00  0.00    +0.000 A 
ATOM     14  C   UNL     1       3.309  16.252  17.461  0.00  0.00    +0.000 A 
ATOM     15  C   UNL     1       3.835  15.043  17.847  0.00  0.00    +0.000 A 
ATOM     16  N   UNL     1       3.208  14.185  18.676  0.00  0.00    +0.000 NA
ENDBRANCH   6  11
BRANCH   9  17
ATOM     17  C   UNL     1      -1.016  10.289  18.735  0.00  0.00    +0.000 C 
ATOM     18  C   UNL     1      -1.553  11.369  17.822  0.00  0.00    +0.000 C 
ATOM     19  C   UNL     1      -1.637   9.929  17.400  0.00  0.00    +0.000 C 
ENDBRANCH   9  17
BRANCH  10  20
ATOM     20  C   UNL     1       1.115   8.298  20.658  0.00  0.00    +0.000 C 
BRANCH  20  21
ATOM     21  C   UNL     1       1.911   7.699  19.502  0.00  0.00    +0.000 A 
ATOM     22  C   UNL     1       2.396   8.554  18.489  0.00  0.00    +0.000 A 
ATOM     23  C   UNL     1       3.260   8.096  17.497  0.00  0.00    +0.000 A 
ATOM     24  C   UNL     1       3.705   6.781  17.520  0.00  0.00    +0.000 A 
ATOM     25  C   UNL     1       3.258   5.896  18.518  0.00  0.00    +0.000 A 
ATOM     26  C   UNL     1       2.323   6.348  19.472  0.00  0.00    +0.000 A 
ATOM     27 CL   UNL     1       1.667   5.221  20.616  0.00  0.00    +0.000 Cl
BRANCH  25  28
ATOM     28  C   UNL     1       3.853   4.511  18.584  0.00  0.00    +0.000 C 
ATOM     29  F   UNL     1       2.928   3.521  18.412  0.00  0.00    +0.000 F 
ATOM     30  F   UNL     1       4.787   4.296  17.616  0.00  0.00    +0.000 F 
ATOM     31  F   UNL     1       4.457   4.236  19.773  0.00  0.00    +0.000 F 
ENDBRANCH  25  28
ENDBRANCH  20  21
ENDBRANCH  10  20
TORSDOF 5
ENDMDL
MODEL 8
REMARK VINA RESULT:      -6.7      2.238      3.488
REMARK  Name = 
REMARK  5 active torsions:
REMARK  status: ('A' for Active; 'I' for Inactive)
REMARK    1  A    between atoms: C_6  and  C_7
REMARK    2  A    between atoms: C_15  and  C_16
REMARK    3  A    between atoms: N_19  and  C_20
REMARK    4  A    between atoms: C_20  and  C_21
REMARK    5  A    between atoms: C_25  and  C_26
REMARK                            x       y       z     vdW  Elec       q    Type
REMARK                         _______ _______ _______ _____ _____    ______ ____
ROOT
ATOM      1  O   UNL     1      -0.596  10.579  23.180  0.00  0.00    +0.000 OA
ATOM      2  C   UNL     1      -1.099  11.235  22.271  0.00  0.00    +0.000 C 
ATOM      3  C   UNL     1      -2.316  12.003  22.396  0.00  0.00    +0.000 A 
ATOM      4  N   UNL     1      -3.110  12.051  23.444  0.00  0.00    +0.000 NA
ATOM      5  N   UNL     1      -3.999  13.082  23.239  0.00  0.00    +0.000 NA
ATOM      6  C   UNL     1      -3.725  13.667  22.081  0.00  0.00    +0.000 A 
ATOM      7  N   UNL     1      -2.744  12.921  21.479  0.00  0.00    +0.000 N 
ATOM      8  C   UNL     1      -2.074  13.100  20.209  0.00  0.00    +0.000 C 
ATOM      9  C   UNL     1      -1.216  11.862  19.859  0.00  0.00    +0.000 C 
ATOM     10  N   UNL     1      -0.462  11.398  21.035  0.00  0.00    +0.000 N 
ENDROOT
BRANCH   6  11
ATOM     11  C   UNL     1      -4.294  14.915  21.574  0.00  0.00    +0.000 A 
ATOM     12  N   UNL     1      -3.619  16.045  21.842  0.00  0.00    +0.000 NA
ATOM     13  C   UNL     1      -4.089  17.171  21.279  0.00  0.00    +0.000 A 
ATOM     14  C   UNL     1      -5.198  17.203  20.467  0.00  0.00    +0.000 A 
ATOM     15  C   UNL     1      -5.822  15.995  20.264  0.00  0.00    +0.000 A 
ATOM     16  N   UNL     1      -5.393  14.833  20.795  0.00  0.00    +0.000 NA
ENDBRANCH   6  11
BRANCH   9  17
ATOM     17  C   UNL     1      -2.081  10.766  19.241  0.00  0.00    +0.000 C 
ATOM     18  C   UNL     1      -3.096  11.054  18.156  0.00  0.00    +0.000 C 
ATOM     19  C   UNL     1      -1.899  10.200  17.847  0.00  0.00    +0.000 C 
ENDBRANCH   9  17
BRANCH  10  20
ATOM     20  C   UNL     1       0.963  11.107  20.920  0.00  0.00    +0.000 C 
BRANCH  20  21
ATOM     21  C   UNL     1       1.290  10.055  19.864  0.00  0.00    +0.000 A 
ATOM     22  C   UNL     1       1.634  10.474  18.561  0.00  0.00    +0.000 A 
ATOM     23  C   UNL     1       2.097   9.577  17.602  0.00  0.00    +0.000 A 
ATOM     24  C   UNL     1       2.278   8.241  17.935  0.00  0.00    +0.000 A 
ATOM     25  C   UNL     1       1.962   7.780  19.225  0.00  0.00    +0.000 A 
ATOM     26  C   UNL     1       1.420   8.680  20.166  0.00  0.00    +0.000 A 
ATOM     27 CL   UNL     1       0.900   8.083  21.709  0.00  0.00    +0.000 Cl
BRANCH  25  28
ATOM     28  C   UNL     1       2.284   6.351  19.588  0.00  0.00    +0.000 C 
ATOM     29  F   UNL     1       2.141   5.486  18.541  0.00  0.00    +0.000 F 
ATOM     30  F   UNL     1       3.571   6.195  20.005  0.00  0.00    +0.000 F 
ATOM     31  F   UNL     1       1.493   5.851  20.576  0.00  0.00    +0.000 F 
ENDBRANCH  25  28
ENDBRANCH  20  21
ENDBRANCH  10  20
TORSDOF 5
ENDMDL
MODEL 9
REMARK VINA RESULT:      -6.7      4.058      7.212
REMARK  Name = 
REMARK  5 active torsions:
REMARK  status: ('A' for Active; 'I' for Inactive)
REMARK    1  A    between atoms: C_6  and  C_7
REMARK    2  A    between atoms: C_15  and  C_16
REMARK    3  A    between atoms: N_19  and  C_20
REMARK    4  A    between atoms: C_20  and  C_21
REMARK    5  A    between atoms: C_25  and  C_26
REMARK                            x       y       z     vdW  Elec       q    Type
REMARK                         _______ _______ _______ _____ _____    ______ ____
ROOT
ATOM      1  O   UNL     1      -1.340  12.377  23.086  0.00  0.00    +0.000 OA
ATOM      2  C   UNL     1      -0.630  12.049  22.138  0.00  0.00    +0.000 C 
ATOM      3  C   UNL     1       0.175  10.852  22.098  0.00  0.00    +0.000 A 
ATOM      4  N   UNL     1       0.348   9.988  23.075  0.00  0.00    +0.000 NA
ATOM      5  N   UNL     1       0.971   8.882  22.541  0.00  0.00    +0.000 NA
ATOM      6  C   UNL     1       1.151   9.071  21.241  0.00  0.00    +0.000 A 
ATOM      7  N   UNL     1       0.766  10.358  20.968  0.00  0.00    +0.000 N 
ATOM      8  C   UNL     1       0.752  11.091  19.719  0.00  0.00    +0.000 C 
ATOM      9  C   UNL     1       0.464  12.590  19.962  0.00  0.00    +0.000 C 
ATOM     10  N   UNL     1      -0.628  12.764  20.933  0.00  0.00    +0.000 N 
ENDROOT
BRANCH   6  11
ATOM     11  C   UNL     1       1.594   8.077  20.264  0.00  0.00    +0.000 A 
ATOM     12  N   UNL     1       1.901   8.524  19.036  0.00  0.00    +0.000 NA
ATOM     13  C   UNL     1       2.412   7.622  18.181  0.00  0.00    +0.000 A 
ATOM     14  C   UNL     1       2.622   6.304  18.511  0.00  0.00    +0.000 A 
ATOM     15  C   UNL     1       2.266   5.946  19.789  0.00  0.00    +0.000 A 
ATOM     16  N   UNL     1       1.756   6.807  20.692  0.00  0.00    +0.000 NA
ENDBRANCH   6  11
BRANCH   9  17
ATOM     17  C   UNL     1       1.741  13.323  20.371  0.00  0.00    +0.000 C 
ATOM     18  C   UNL     1       2.782  13.754  19.361  0.00  0.00    +0.000 C 
ATOM     19  C   UNL     1       2.013  14.794  20.126  0.00  0.00    +0.000 C 
ENDBRANCH   9  17
BRANCH  10  20
ATOM     20  C   UNL     1      -1.723  13.682  20.643  0.00  0.00    +0.000 C 
BRANCH  20  21
ATOM     21  C   UNL     1      -3.073  12.992  20.474  0.00  0.00    +0.000 A 
ATOM     22  C   UNL     1      -4.059  13.158  21.471  0.00  0.00    +0.000 A 
ATOM     23  C   UNL     1      -5.359  12.690  21.301  0.00  0.00    +0.000 A 
ATOM     24  C   UNL     1      -5.725  12.086  20.106  0.00  0.00    +0.000 A 
ATOM     25  C   UNL     1      -4.781  11.910  19.078  0.00  0.00    +0.000 A 
ATOM     26  C   UNL     1      -3.447  12.317  19.290  0.00  0.00    +0.000 A 
ATOM     27 CL   UNL     1      -2.254  11.974  18.079  0.00  0.00    +0.000 Cl
BRANCH  25  28
ATOM     28  C   UNL     1      -5.241  11.360  17.751  0.00  0.00    +0.000 C 
ATOM     29  F   UNL     1      -4.557  10.242  17.366  0.00  0.00    +0.000 F 
ATOM     30  F   UNL     1      -6.551  10.986  17.765  0.00  0.00    +0.000 F 
ATOM     31  F   UNL     1      -5.100  12.239  16.721  0.00  0.00    +0.000 F 
ENDBRANCH  25  28
ENDBRANCH  20  21
ENDBRANCH  10  20
TORSDOF 5
ENDMDL
