MODEL 1
REMARK VINA RESULT:      -8.2      0.000      0.000
REMARK  Name = 
REMARK  4 active torsions:
REMARK  status: ('A' for Active; 'I' for Inactive)
REMARK    1  A    between atoms: C_2  and  C_3
REMARK    2  A    between atoms: N_5  and  S_6
REMARK    3  A    between atoms: S_6  and  C_9
REMARK    4  A    between atoms: N_22  and  C_23
REMARK                            x       y       z     vdW  Elec       q    Type
REMARK                         _______ _______ _______ _____ _____    ______ ____
ROOT
ATOM      1  C   UNL     1       1.948   8.295  18.339  0.00  0.00    +0.000 C 
ATOM      2  C   UNL     1       3.452   7.955  18.216  0.00  0.00    +0.000 C 
ATOM      3  N   UNL     1       3.249   6.837  19.222  0.00  0.00    +0.000 NA
ATOM      4  C   UNL     1       2.112   7.695  19.753  0.00  0.00    +0.000 C 
ENDROOT
BRANCH   1   6
ATOM      5  O   UNL     1       2.061  10.505  17.359  0.00  0.00    +0.000 OA
ATOM      6  C   UNL     1       1.511   9.748  18.168  0.00  0.00    +0.000 C 
ATOM      7  N   UNL     1       0.431  10.178  18.933  0.00  0.00    +0.000 N 
ATOM      8  C   UNL     1      -0.240   9.395  19.981  0.00  0.00    +0.000 C 
ATOM      9  C   UNL     1      -0.299  10.191  21.295  0.00  0.00    +0.000 C 
ATOM     10  N   UNL     1      -0.923  11.503  21.061  0.00  0.00    +0.000 N 
ATOM     11  C   UNL     1      -0.283  12.318  20.009  0.00  0.00    +0.000 C 
ATOM     12  C   UNL     1      -0.160  11.504  18.702  0.00  0.00    +0.000 C 
BRANCH  10  13
ATOM     13  C   UNL     1      -2.049  11.920  21.740  0.00  0.00    +0.000 A 
ATOM     14  C   UNL     1      -3.137  12.502  21.082  0.00  0.00    +0.000 A 
ATOM     15  C   UNL     1      -4.247  12.916  21.808  0.00  0.00    +0.000 A 
ATOM     16  N   UNL     1      -4.364  12.789  23.143  0.00  0.00    +0.000 NA
ATOM     17  C   UNL     1      -3.316  12.226  23.774  0.00  0.00    +0.000 A 
ATOM     18  C   UNL     1      -2.169  11.788  23.132  0.00  0.00    +0.000 A 
ENDBRANCH  10  13
ENDBRANCH   1   6
BRANCH   3  19
ATOM     19  S   UNL     1       2.929   5.222  18.716  0.00  0.00    +0.000 S 
ATOM     20  O   UNL     1       2.865   4.421  19.923  0.00  0.00    +0.000 OA
ATOM     21  O   UNL     1       1.809   5.235  17.799  0.00  0.00    +0.000 OA
BRANCH  19  22
ATOM     22  C   UNL     1       4.347   4.722  17.827  0.00  0.00    +0.000 A 
ATOM     23  C   UNL     1       4.249   4.344  16.467  0.00  0.00    +0.000 A 
ATOM     24  C   UNL     1       5.379   4.050  15.662  0.00  0.00    +0.000 A 
ATOM     25  C   UNL     1       6.697   4.107  16.147  0.00  0.00    +0.000 A 
ATOM     26  C   UNL     1       6.812   4.476  17.500  0.00  0.00    +0.000 A 
ATOM     27  N   UNL     1       7.920   4.620  18.236  0.00  0.00    +0.000 NA
ATOM     28  O   UNL     1       7.492   5.010  19.489  0.00  0.00    +0.000 OA
ATOM     29  N   UNL     1       6.116   5.113  19.552  0.00  0.00    +0.000 NA
ATOM     30  C   UNL     1       5.654   4.784  18.338  0.00  0.00    +0.000 A 
ENDBRANCH  19  22
ENDBRANCH   3  19
TORSDOF 4
ENDMDL
MODEL 2
REMARK VINA RESULT:      -8.0      1.010      1.143
REMARK  Name = 
REMARK  4 active torsions:
REMARK  status: ('A' for Active; 'I' for Inactive)
REMARK    1  A    between atoms: C_2  and  C_3
REMARK    2  A    between atoms: N_5  and  S_6
REMARK    3  A    between atoms: S_6  and  C_9
REMARK    4  A    between atoms: N_22  and  C_23
REMARK                            x       y       z     vdW  Elec       q    Type
REMARK                         _______ _______ _______ _____ _____    ______ ____
ROOT
ATOM      1  C   UNL     1       2.285   7.851  18.343  0.00  0.00    +0.000 C 
ATOM      2  C   UNL     1       3.784   7.478  18.411  0.00  0.00    +0.000 C 
ATOM      3  N   UNL     1       3.431   6.368  19.384  0.00  0.00    +0.000 NA
ATOM      4  C   UNL     1       2.256   7.252  19.767  0.00  0.00    +0.000 C 
ENDROOT
BRANCH   1   6
ATOM      5  O   UNL     1       2.305   9.948  17.135  0.00  0.00    +0.000 OA
ATOM      6  C   UNL     1       1.905   9.312  18.118  0.00  0.00    +0.000 C 
ATOM      7  N   UNL     1       1.046   9.893  19.046  0.00  0.00    +0.000 N 
ATOM      8  C   UNL     1       0.579   9.263  20.290  0.00  0.00    +0.000 C 
ATOM      9  C   UNL     1       0.856  10.177  21.495  0.00  0.00    +0.000 C 
ATOM     10  N   UNL     1       0.272  11.508  21.262  0.00  0.00    +0.000 N 
ATOM     11  C   UNL     1       0.711  12.172  20.018  0.00  0.00    +0.000 C 
ATOM     12  C   UNL     1       0.496  11.236  18.809  0.00  0.00    +0.000 C 
BRANCH  10  13
ATOM     13  C   UNL     1      -0.651  12.071  22.119  0.00  0.00    +0.000 A 
ATOM     14  C   UNL     1      -0.587  13.417  22.493  0.00  0.00    +0.000 A 
ATOM     15  C   UNL     1      -1.532  13.940  23.367  0.00  0.00    +0.000 A 
ATOM     16  N   UNL     1      -2.545  13.228  23.895  0.00  0.00    +0.000 NA
ATOM     17  C   UNL     1      -2.605  11.933  23.532  0.00  0.00    +0.000 A 
ATOM     18  C   UNL     1      -1.705  11.327  22.670  0.00  0.00    +0.000 A 
ENDBRANCH  10  13
ENDBRANCH   1   6
BRANCH   3  19
ATOM     19  S   UNL     1       3.142   4.759  18.842  0.00  0.00    +0.000 S 
ATOM     20  O   UNL     1       3.352   3.898  19.989  0.00  0.00    +0.000 OA
ATOM     21  O   UNL     1       1.879   4.725  18.136  0.00  0.00    +0.000 OA
BRANCH  19  22
ATOM     22  C   UNL     1       4.412   4.419  17.690  0.00  0.00    +0.000 A 
ATOM     23  C   UNL     1       4.104   4.166  16.332  0.00  0.00    +0.000 A 
ATOM     24  C   UNL     1       5.096   4.008  15.331  0.00  0.00    +0.000 A 
ATOM     25  C   UNL     1       6.473   4.088  15.601  0.00  0.00    +0.000 A 
ATOM     26  C   UNL     1       6.796   4.334  16.949  0.00  0.00    +0.000 A 
ATOM     27  N   UNL     1       8.005   4.466  17.508  0.00  0.00    +0.000 NA
ATOM     28  O   UNL     1       7.775   4.713  18.846  0.00  0.00    +0.000 OA
ATOM     29  N   UNL     1       6.426   4.738  19.139  0.00  0.00    +0.000 NA
ATOM     30  C   UNL     1       5.782   4.501  17.988  0.00  0.00    +0.000 A 
ENDBRANCH  19  22
ENDBRANCH   3  19
TORSDOF 4
ENDMDL
MODEL 3
REMARK VINA RESULT:      -7.9      2.337      3.061
REMARK  Name = 
REMARK  4 active torsions:
REMARK  status: ('A' for Active; 'I' for Inactive)
REMARK    1  A    between atoms: C_2  and  C_3
REMARK    2  A    between atoms: N_5  and  S_6
REMARK    3  A    between atoms: S_6  and  C_9
REMARK    4  A    between atoms: N_22  and  C_23
REMARK                            x       y       z     vdW  Elec       q    Type
REMARK                         _______ _______ _______ _____ _____    ______ ____
ROOT
ATOM      1  C   UNL     1       2.175   8.277  18.037  0.00  0.00    +0.000 C 
ATOM      2  C   UNL     1       3.494   7.660  17.517  0.00  0.00    +0.000 C 
ATOM      3  N   UNL     1       3.300   6.508  18.487  0.00  0.00    +0.000 NA
ATOM      4  C   UNL     1       2.539   7.516  19.332  0.00  0.00    +0.000 C 
ENDROOT
BRANCH   1   6
ATOM      5  O   UNL     1       2.663  10.520  17.270  0.00  0.00    +0.000 OA
ATOM      6  C   UNL     1       2.036   9.797  18.054  0.00  0.00    +0.000 C 
ATOM      7  N   UNL     1       1.135  10.340  18.964  0.00  0.00    +0.000 N 
ATOM      8  C   UNL     1       0.404   9.589  19.996  0.00  0.00    +0.000 C 
ATOM      9  C   UNL     1       0.619  10.224  21.380  0.00  0.00    +0.000 C 
ATOM     10  N   UNL     1       0.264  11.652  21.339  0.00  0.00    +0.000 N 
ATOM     11  C   UNL     1       0.971  12.440  20.311  0.00  0.00    +0.000 C 
ATOM     12  C   UNL     1       0.816  11.775  18.926  0.00  0.00    +0.000 C 
BRANCH  10  13
ATOM     13  C   UNL     1      -0.692  12.200  22.169  0.00  0.00    +0.000 A 
ATOM     14  C   UNL     1      -1.748  11.442  22.683  0.00  0.00    +0.000 A 
ATOM     15  C   UNL     1      -2.695  12.038  23.508  0.00  0.00    +0.000 A 
ATOM     16  N   UNL     1      -2.668  13.334  23.869  0.00  0.00    +0.000 NA
ATOM     17  C   UNL     1      -1.649  14.061  23.375  0.00  0.00    +0.000 A 
ATOM     18  C   UNL     1      -0.664  13.551  22.544  0.00  0.00    +0.000 A 
ENDBRANCH  10  13
ENDBRANCH   1   6
BRANCH   3  19
ATOM     19  S   UNL     1       2.525   5.049  18.002  0.00  0.00    +0.000 S 
ATOM     20  O   UNL     1       1.182   5.415  17.597  0.00  0.00    +0.000 OA
ATOM     21  O   UNL     1       3.391   4.346  17.079  0.00  0.00    +0.000 OA
BRANCH  19  22
ATOM     22  C   UNL     1       2.393   4.086  19.455  0.00  0.00    +0.000 A 
ATOM     23  C   UNL     1       1.156   3.974  20.134  0.00  0.00    +0.000 A 
ATOM     24  C   UNL     1       0.958   3.110  21.242  0.00  0.00    +0.000 A 
ATOM     25  C   UNL     1       1.975   2.291  21.762  0.00  0.00    +0.000 A 
ATOM     26  C   UNL     1       3.213   2.395  21.100  0.00  0.00    +0.000 A 
ATOM     27  N   UNL     1       4.355   1.746  21.357  0.00  0.00    +0.000 NA
ATOM     28  O   UNL     1       5.260   2.191  20.414  0.00  0.00    +0.000 OA
ATOM     29  N   UNL     1       4.697   3.119  19.561  0.00  0.00    +0.000 NA
ATOM     30  C   UNL     1       3.427   3.279  19.956  0.00  0.00    +0.000 A 
ENDBRANCH  19  22
ENDBRANCH   3  19
TORSDOF 4
ENDMDL
MODEL 4
REMARK VINA RESULT:      -7.8      3.159      9.974
REMARK  Name = 
REMARK  4 active torsions:
REMARK  status: ('A' for Active; 'I' for Inactive)
REMARK    1  A    between atoms: C_2  and  C_3
REMARK    2  A    between atoms: N_5  and  S_6
REMARK    3  A    between atoms: S_6  and  C_9
REMARK    4  A    between atoms: N_22  and  C_23
REMARK                            x       y       z     vdW  Elec       q    Type
REMARK                         _______ _______ _______ _____ _____    ______ ____
ROOT
ATOM      1  C   UNL     1       0.835   9.542  20.020  0.00  0.00    +0.000 C 
ATOM      2  C   UNL     1      -0.645   9.826  20.366  0.00  0.00    +0.000 C 
ATOM      3  N   UNL     1      -0.294  11.294  20.520  0.00  0.00    +0.000 NA
ATOM      4  C   UNL     1       1.091  10.792  20.892  0.00  0.00    +0.000 C 
ENDROOT
BRANCH   1   6
ATOM      5  O   UNL     1       1.331   7.748  21.568  0.00  0.00    +0.000 OA
ATOM      6  C   UNL     1       1.432   8.194  20.419  0.00  0.00    +0.000 C 
ATOM      7  N   UNL     1       2.061   7.460  19.418  0.00  0.00    +0.000 N 
ATOM      8  C   UNL     1       2.313   7.925  18.046  0.00  0.00    +0.000 C 
ATOM      9  C   UNL     1       3.800   7.766  17.687  0.00  0.00    +0.000 C 
ATOM     10  N   UNL     1       4.228   6.377  17.917  0.00  0.00    +0.000 N 
ATOM     11  C   UNL     1       3.985   5.869  19.282  0.00  0.00    +0.000 C 
ATOM     12  C   UNL     1       2.507   6.083  19.677  0.00  0.00    +0.000 C 
BRANCH  10  13
ATOM     13  C   UNL     1       4.772   5.596  16.919  0.00  0.00    +0.000 A 
ATOM     14  C   UNL     1       5.284   6.150  15.742  0.00  0.00    +0.000 A 
ATOM     15  C   UNL     1       5.814   5.324  14.758  0.00  0.00    +0.000 A 
ATOM     16  N   UNL     1       5.882   3.984  14.857  0.00  0.00    +0.000 NA
ATOM     17  C   UNL     1       5.390   3.452  15.992  0.00  0.00    +0.000 A 
ATOM     18  C   UNL     1       4.840   4.198  17.022  0.00  0.00    +0.000 A 
ENDBRANCH  10  13
ENDBRANCH   1   6
BRANCH   3  19
ATOM     19  S   UNL     1      -0.473  12.402  19.214  0.00  0.00    +0.000 S 
ATOM     20  O   UNL     1      -0.665  13.710  19.811  0.00  0.00    +0.000 OA
ATOM     21  O   UNL     1       0.605  12.190  18.272  0.00  0.00    +0.000 OA
BRANCH  19  22
ATOM     22  C   UNL     1      -1.970  11.959  18.428  0.00  0.00    +0.000 A 
ATOM     23  C   UNL     1      -1.958  11.309  17.170  0.00  0.00    +0.000 A 
ATOM     24  C   UNL     1      -3.131  10.815  16.544  0.00  0.00    +0.000 A 
ATOM     25  C   UNL     1      -4.408  10.929  17.118  0.00  0.00    +0.000 A 
ATOM     26  C   UNL     1      -4.438  11.578  18.367  0.00  0.00    +0.000 A 
ATOM     27  N   UNL     1      -5.491  11.829  19.154  0.00  0.00    +0.000 NA
ATOM     28  O   UNL     1      -4.985  12.468  20.268  0.00  0.00    +0.000 OA
ATOM     29  N   UNL     1      -3.614  12.623  20.191  0.00  0.00    +0.000 NA
ATOM     30  C   UNL     1      -3.235  12.088  19.023  0.00  0.00    +0.000 A 
ENDBRANCH  19  22
ENDBRANCH   3  19
TORSDOF 4
ENDMDL
MODEL 5
REMARK VINA RESULT:      -7.7      3.504     10.233
REMARK  Name = 
REMARK  4 active torsions:
REMARK  status: ('A' for Active; 'I' for Inactive)
REMARK    1  A    between atoms: C_2  and  C_3
REMARK    2  A    between atoms: N_5  and  S_6
REMARK    3  A    between atoms: S_6  and  C_9
REMARK    4  A    between atoms: N_22  and  C_23
REMARK                            x       y       z     vdW  Elec       q    Type
REMARK                         _______ _______ _______ _____ _____    ______ ____
ROOT
ATOM      1  C   UNL     1       1.020  10.287  19.672  0.00  0.00    +0.000 C 
ATOM      2  C   UNL     1       0.558  11.692  19.221  0.00  0.00    +0.000 C 
ATOM      3  N   UNL     1      -0.526  11.641  20.282  0.00  0.00    +0.000 NA
ATOM      4  C   UNL     1      -0.458  10.134  20.096  0.00  0.00    +0.000 C 
ENDROOT
BRANCH   1   6
ATOM      5  O   UNL     1       1.687   9.652  17.434  0.00  0.00    +0.000 OA
ATOM      6  C   UNL     1       1.620   9.346  18.631  0.00  0.00    +0.000 C 
ATOM      7  N   UNL     1       2.135   8.138  19.091  0.00  0.00    +0.000 N 
ATOM      8  C   UNL     1       2.034   7.635  20.469  0.00  0.00    +0.000 C 
ATOM      9  C   UNL     1       1.436   6.218  20.484  0.00  0.00    +0.000 C 
ATOM     10  N   UNL     1       2.212   5.335  19.599  0.00  0.00    +0.000 N 
ATOM     11  C   UNL     1       2.344   5.809  18.206  0.00  0.00    +0.000 C 
ATOM     12  C   UNL     1       2.882   7.256  18.182  0.00  0.00    +0.000 C 
BRANCH  10  13
ATOM     13  C   UNL     1       2.810   4.176  20.048  0.00  0.00    +0.000 A 
ATOM     14  C   UNL     1       2.327   3.478  21.159  0.00  0.00    +0.000 A 
ATOM     15  C   UNL     1       2.966   2.320  21.584  0.00  0.00    +0.000 A 
ATOM     16  N   UNL     1       4.050   1.795  20.983  0.00  0.00    +0.000 NA
ATOM     17  C   UNL     1       4.512   2.467  19.912  0.00  0.00    +0.000 A 
ATOM     18  C   UNL     1       3.941   3.631  19.422  0.00  0.00    +0.000 A 
ENDBRANCH  10  13
ENDBRANCH   1   6
BRANCH   3  19
ATOM     19  S   UNL     1      -0.283  12.316  21.847  0.00  0.00    +0.000 S 
ATOM     20  O   UNL     1      -0.044  11.199  22.741  0.00  0.00    +0.000 OA
ATOM     21  O   UNL     1       0.692  13.381  21.749  0.00  0.00    +0.000 OA
BRANCH  19  22
ATOM     22  C   UNL     1      -1.815  13.027  22.293  0.00  0.00    +0.000 A 
ATOM     23  C   UNL     1      -3.007  12.642  21.634  0.00  0.00    +0.000 A 
ATOM     24  C   UNL     1      -4.292  13.090  22.035  0.00  0.00    +0.000 A 
ATOM     25  C   UNL     1      -4.493  13.958  23.122  0.00  0.00    +0.000 A 
ATOM     26  C   UNL     1      -3.316  14.354  23.786  0.00  0.00    +0.000 A 
ATOM     27  N   UNL     1      -3.186  15.160  24.846  0.00  0.00    +0.000 NA
ATOM     28  O   UNL     1      -1.833  15.212  25.115  0.00  0.00    +0.000 OA
ATOM     29  N   UNL     1      -1.104  14.442  24.229  0.00  0.00    +0.000 NA
ATOM     30  C   UNL     1      -1.987  13.896  23.383  0.00  0.00    +0.000 A 
ENDBRANCH  19  22
ENDBRANCH   3  19
TORSDOF 4
ENDMDL
MODEL 6
REMARK VINA RESULT:      -7.6      3.333     10.354
REMARK  Name = 
REMARK  4 active torsions:
REMARK  status: ('A' for Active; 'I' for Inactive)
REMARK    1  A    between atoms: C_2  and  C_3
REMARK    2  A    between atoms: N_5  and  S_6
REMARK    3  A    between atoms: S_6  and  C_9
REMARK    4  A    between atoms: N_22  and  C_23
REMARK                            x       y       z     vdW  Elec       q    Type
REMARK                         _______ _______ _______ _____ _____    ______ ____
ROOT
ATOM      1  C   UNL     1       0.747  10.392  19.862  0.00  0.00    +0.000 C 
ATOM      2  C   UNL     1       0.357  11.853  19.539  0.00  0.00    +0.000 C 
ATOM      3  N   UNL     1      -0.804  11.723  20.508  0.00  0.00    +0.000 NA
ATOM      4  C   UNL     1      -0.762  10.244  20.161  0.00  0.00    +0.000 C 
ENDROOT
BRANCH   1   6
ATOM      5  O   UNL     1       1.464   9.941  17.595  0.00  0.00    +0.000 OA
ATOM      6  C   UNL     1       1.397   9.550  18.766  0.00  0.00    +0.000 C 
ATOM      7  N   UNL     1       1.957   8.335  19.149  0.00  0.00    +0.000 N 
ATOM      8  C   UNL     1       1.862   7.734  20.488  0.00  0.00    +0.000 C 
ATOM      9  C   UNL     1       1.324   6.297  20.397  0.00  0.00    +0.000 C 
ATOM     10  N   UNL     1       2.146   5.510  19.464  0.00  0.00    +0.000 N 
ATOM     11  C   UNL     1       2.273   6.084  18.110  0.00  0.00    +0.000 C 
ATOM     12  C   UNL     1       2.751   7.550  18.193  0.00  0.00    +0.000 C 
BRANCH  10  13
ATOM     13  C   UNL     1       2.787   4.348  19.842  0.00  0.00    +0.000 A 
ATOM     14  C   UNL     1       3.919   3.877  19.170  0.00  0.00    +0.000 A 
ATOM     15  C   UNL     1       4.527   2.696  19.577  0.00  0.00    +0.000 A 
ATOM     16  N   UNL     1       4.100   1.947  20.611  0.00  0.00    +0.000 NA
ATOM     17  C   UNL     1       3.011   2.404  21.257  0.00  0.00    +0.000 A 
ATOM     18  C   UNL     1       2.339   3.567  20.917  0.00  0.00    +0.000 A 
ENDBRANCH  10  13
ENDBRANCH   1   6
BRANCH   3  19
ATOM     19  S   UNL     1      -0.660  12.213  22.153  0.00  0.00    +0.000 S 
ATOM     20  O   UNL     1      -0.300  11.025  22.903  0.00  0.00    +0.000 OA
ATOM     21  O   UNL     1       0.183  13.388  22.216  0.00  0.00    +0.000 OA
BRANCH  19  22
ATOM     22  C   UNL     1      -2.270  12.679  22.645  0.00  0.00    +0.000 A 
ATOM     23  C   UNL     1      -2.906  12.035  23.734  0.00  0.00    +0.000 A 
ATOM     24  C   UNL     1      -4.156  12.452  24.257  0.00  0.00    +0.000 A 
ATOM     25  C   UNL     1      -4.875  13.542  23.737  0.00  0.00    +0.000 A 
ATOM     26  C   UNL     1      -4.260  14.191  22.649  0.00  0.00    +0.000 A 
ATOM     27  N   UNL     1      -4.691  15.249  21.954  0.00  0.00    +0.000 NA
ATOM     28  O   UNL     1      -3.717  15.500  21.008  0.00  0.00    +0.000 OA
ATOM     29  N   UNL     1      -2.669  14.605  21.101  0.00  0.00    +0.000 NA
ATOM     30  C   UNL     1      -2.969  13.770  22.105  0.00  0.00    +0.000 A 
ENDBRANCH  19  22
ENDBRANCH   3  19
TORSDOF 4
ENDMDL
MODEL 7
REMARK VINA RESULT:      -7.6      3.283     10.246
REMARK  Name = 
REMARK  4 active torsions:
REMARK  status: ('A' for Active; 'I' for Inactive)
REMARK    1  A    between atoms: C_2  and  C_3
REMARK    2  A    between atoms: N_5  and  S_6
REMARK    3  A    between atoms: S_6  and  C_9
REMARK    4  A    between atoms: N_22  and  C_23
REMARK                            x       y       z     vdW  Elec       q    Type
REMARK                         _______ _______ _______ _____ _____    ______ ____
ROOT
ATOM      1  C   UNL     1       0.781  10.309  19.617  0.00  0.00    +0.000 C 
ATOM      2  C   UNL     1      -0.073  11.481  19.078  0.00  0.00    +0.000 C 
ATOM      3  N   UNL     1      -1.022  11.284  20.246  0.00  0.00    +0.000 NA
ATOM      4  C   UNL     1      -0.567   9.834  20.206  0.00  0.00    +0.000 C 
ENDROOT
BRANCH   1   6
ATOM      5  O   UNL     1       1.708   9.783  17.444  0.00  0.00    +0.000 OA
ATOM      6  C   UNL     1       1.531   9.433  18.617  0.00  0.00    +0.000 C 
ATOM      7  N   UNL     1       2.052   8.233  19.093  0.00  0.00    +0.000 N 
ATOM      8  C   UNL     1       1.830   7.678  20.437  0.00  0.00    +0.000 C 
ATOM      9  C   UNL     1       1.303   6.237  20.345  0.00  0.00    +0.000 C 
ATOM     10  N   UNL     1       2.209   5.420  19.521  0.00  0.00    +0.000 N 
ATOM     11  C   UNL     1       2.463   5.948  18.165  0.00  0.00    +0.000 C 
ATOM     12  C   UNL     1       2.932   7.417  18.243  0.00  0.00    +0.000 C 
BRANCH  10  13
ATOM     13  C   UNL     1       2.810   4.274  19.997  0.00  0.00    +0.000 A 
ATOM     14  C   UNL     1       2.300   3.571  21.093  0.00  0.00    +0.000 A 
ATOM     15  C   UNL     1       2.944   2.426  21.545  0.00  0.00    +0.000 A 
ATOM     16  N   UNL     1       4.058   1.918  20.985  0.00  0.00    +0.000 NA
ATOM     17  C   UNL     1       4.546   2.595  19.928  0.00  0.00    +0.000 A 
ATOM     18  C   UNL     1       3.972   3.746  19.413  0.00  0.00    +0.000 A 
ENDBRANCH  10  13
ENDBRANCH   1   6
BRANCH   3  19
ATOM     19  S   UNL     1      -0.852  12.187  21.703  0.00  0.00    +0.000 S 
ATOM     20  O   UNL     1      -0.129  11.337  22.628  0.00  0.00    +0.000 OA
ATOM     21  O   UNL     1      -0.338  13.501  21.379  0.00  0.00    +0.000 OA
BRANCH  19  22
ATOM     22  C   UNL     1      -2.473  12.381  22.324  0.00  0.00    +0.000 A 
ATOM     23  C   UNL     1      -2.741  12.216  23.704  0.00  0.00    +0.000 A 
ATOM     24  C   UNL     1      -4.007  12.483  24.284  0.00  0.00    +0.000 A 
ATOM     25  C   UNL     1      -5.109  12.933  23.537  0.00  0.00    +0.000 A 
ATOM     26  C   UNL     1      -4.862  13.097  22.161  0.00  0.00    +0.000 A 
ATOM     27  N   UNL     1      -5.700  13.511  21.204  0.00  0.00    +0.000 NA
ATOM     28  O   UNL     1      -4.965  13.514  20.035  0.00  0.00    +0.000 OA
ATOM     29  N   UNL     1      -3.664  13.103  20.247  0.00  0.00    +0.000 NA
ATOM     30  C   UNL     1      -3.559  12.828  21.554  0.00  0.00    +0.000 A 
ENDBRANCH  19  22
ENDBRANCH   3  19
TORSDOF 4
ENDMDL
MODEL 8
REMARK VINA RESULT:      -7.5      3.023     10.026
REMARK  Name = 
REMARK  4 active torsions:
REMARK  status: ('A' for Active; 'I' for Inactive)
REMARK    1  A    between atoms: C_2  and  C_3
REMARK    2  A    between atoms: N_5  and  S_6
REMARK    3  A    between atoms: S_6  and  C_9
REMARK    4  A    between atoms: N_22  and  C_23
REMARK                            x       y       z     vdW  Elec       q    Type
REMARK                         _______ _______ _______ _____ _____    ______ ____
ROOT
ATOM      1  C   UNL     1       0.847   9.365  20.194  0.00  0.00    +0.000 C 
ATOM      2  C   UNL     1      -0.612   9.615  20.639  0.00  0.00    +0.000 C 
ATOM      3  N   UNL     1      -0.293  11.096  20.746  0.00  0.00    +0.000 NA
ATOM      4  C   UNL     1       1.129  10.637  21.026  0.00  0.00    +0.000 C 
ENDROOT
BRANCH   1   6
ATOM      5  O   UNL     1       1.477   7.600  21.724  0.00  0.00    +0.000 OA
ATOM      6  C   UNL     1       1.508   8.041  20.570  0.00  0.00    +0.000 C 
ATOM      7  N   UNL     1       2.114   7.323  19.544  0.00  0.00    +0.000 N 
ATOM      8  C   UNL     1       2.285   7.788  18.159  0.00  0.00    +0.000 C 
ATOM      9  C   UNL     1       3.758   7.678  17.731  0.00  0.00    +0.000 C 
ATOM     10  N   UNL     1       4.244   6.306  17.947  0.00  0.00    +0.000 N 
ATOM     11  C   UNL     1       4.083   5.798  19.324  0.00  0.00    +0.000 C 
ATOM     12  C   UNL     1       2.619   5.964  19.788  0.00  0.00    +0.000 C 
BRANCH  10  13
ATOM     13  C   UNL     1       4.767   5.537  16.928  0.00  0.00    +0.000 A 
ATOM     14  C   UNL     1       4.693   4.140  16.943  0.00  0.00    +0.000 A 
ATOM     15  C   UNL     1       5.242   3.405  15.900  0.00  0.00    +0.000 A 
ATOM     16  N   UNL     1       5.856   3.952  14.835  0.00  0.00    +0.000 NA
ATOM     17  C   UNL     1       5.924   5.296  14.821  0.00  0.00    +0.000 A 
ATOM     18  C   UNL     1       5.408   6.108  15.819  0.00  0.00    +0.000 A 
ENDBRANCH  10  13
ENDBRANCH   1   6
BRANCH   3  19
ATOM     19  S   UNL     1      -0.595  12.175  19.438  0.00  0.00    +0.000 S 
ATOM     20  O   UNL     1      -0.373  13.512  19.953  0.00  0.00    +0.000 OA
ATOM     21  O   UNL     1       0.141  11.718  18.278  0.00  0.00    +0.000 OA
BRANCH  19  22
ATOM     22  C   UNL     1      -2.300  12.021  19.090  0.00  0.00    +0.000 A 
ATOM     23  C   UNL     1      -3.269  12.467  20.020  0.00  0.00    +0.000 A 
ATOM     24  C   UNL     1      -4.659  12.483  19.741  0.00  0.00    +0.000 A 
ATOM     25  C   UNL     1      -5.196  12.056  18.515  0.00  0.00    +0.000 A 
ATOM     26  C   UNL     1      -4.246  11.604  17.579  0.00  0.00    +0.000 A 
ATOM     27  N   UNL     1      -4.447  11.145  16.339  0.00  0.00    +0.000 NA
ATOM     28  O   UNL     1      -3.194  10.852  15.839  0.00  0.00    +0.000 OA
ATOM     29  N   UNL     1      -2.199  11.122  16.758  0.00  0.00    +0.000 NA
ATOM     30  C   UNL     1      -2.810  11.586  17.856  0.00  0.00    +0.000 A 
ENDBRANCH  19  22
ENDBRANCH   3  19
TORSDOF 4
ENDMDL
MODEL 9
REMARK VINA RESULT:      -7.5      3.400     10.203
REMARK  Name = 
REMARK  4 active torsions:
REMARK  status: ('A' for Active; 'I' for Inactive)
REMARK    1  A    between atoms: C_2  and  C_3
REMARK    2  A    between atoms: N_5  and  S_6
REMARK    3  A    between atoms: S_6  and  C_9
REMARK    4  A    between atoms: N_22  and  C_23
REMARK                            x       y       z     vdW  Elec       q    Type
REMARK                         _______ _______ _______ _____ _____    ______ ____
ROOT
ATOM      1  C   UNL     1       0.810  10.354  19.664  0.00  0.00    +0.000 C 
ATOM      2  C   UNL     1      -0.370  11.225  19.175  0.00  0.00    +0.000 C 
ATOM      3  N   UNL     1      -1.000  11.086  20.550  0.00  0.00    +0.000 NA
ATOM      4  C   UNL     1      -0.253   9.764  20.616  0.00  0.00    +0.000 C 
ENDROOT
BRANCH   1   6
ATOM      5  O   UNL     1       1.670   9.788  17.473  0.00  0.00    +0.000 OA
ATOM      6  C   UNL     1       1.520   9.454  18.655  0.00  0.00    +0.000 C 
ATOM      7  N   UNL     1       2.036   8.253  19.132  0.00  0.00    +0.000 N 
ATOM      8  C   UNL     1       1.844   7.718  20.488  0.00  0.00    +0.000 C 
ATOM      9  C   UNL     1       1.293   6.284  20.429  0.00  0.00    +0.000 C 
ATOM     10  N   UNL     1       2.164   5.444  19.592  0.00  0.00    +0.000 N 
ATOM     11  C   UNL     1       2.389   5.951  18.223  0.00  0.00    +0.000 C 
ATOM     12  C   UNL     1       2.880   7.414  18.269  0.00  0.00    +0.000 C 
BRANCH  10  13
ATOM     13  C   UNL     1       2.762   4.295  20.065  0.00  0.00    +0.000 A 
ATOM     14  C   UNL     1       3.912   3.762  19.474  0.00  0.00    +0.000 A 
ATOM     15  C   UNL     1       4.476   2.597  19.978  0.00  0.00    +0.000 A 
ATOM     16  N   UNL     1       3.987   1.919  21.033  0.00  0.00    +0.000 NA
ATOM     17  C   UNL     1       2.882   2.435  21.602  0.00  0.00    +0.000 A 
ATOM     18  C   UNL     1       2.251   3.589  21.164  0.00  0.00    +0.000 A 
ENDBRANCH  10  13
ENDBRANCH   1   6
BRANCH   3  19
ATOM     19  S   UNL     1      -0.745  12.267  21.777  0.00  0.00    +0.000 S 
ATOM     20  O   UNL     1      -0.486  11.535  23.001  0.00  0.00    +0.000 OA
ATOM     21  O   UNL     1       0.219  13.236  21.298  0.00  0.00    +0.000 OA
BRANCH  19  22
ATOM     22  C   UNL     1      -2.279  13.083  21.966  0.00  0.00    +0.000 A 
ATOM     23  C   UNL     1      -2.649  14.134  21.093  0.00  0.00    +0.000 A 
ATOM     24  C   UNL     1      -3.928  14.746  21.119  0.00  0.00    +0.000 A 
ATOM     25  C   UNL     1      -4.940  14.362  22.015  0.00  0.00    +0.000 A 
ATOM     26  C   UNL     1      -4.586  13.321  22.894  0.00  0.00    +0.000 A 
ATOM     27  N   UNL     1      -5.328  12.743  23.846  0.00  0.00    +0.000 NA
ATOM     28  O   UNL     1      -4.526  11.769  24.408  0.00  0.00    +0.000 OA
ATOM     29  N   UNL     1      -3.278  11.729  23.816  0.00  0.00    +0.000 NA
ATOM     30  C   UNL     1      -3.272  12.681  22.874  0.00  0.00    +0.000 A 
ENDBRANCH  19  22
ENDBRANCH   3  19
TORSDOF 4
ENDMDL
