MODEL 1
REMARK VINA RESULT:      -9.6      0.000      0.000
REMARK  Name = 
REMARK  10 active torsions:
REMARK  status: ('A' for Active; 'I' for Inactive)
REMARK    1  A    between atoms: C_1  and  C_2
REMARK    2  A    between atoms: C_2  and  C_3
REMARK    3  A    between atoms: C_2  and  C_24
REMARK    4  A    between atoms: N_5  and  C_6
REMARK    5  A    between atoms: C_6  and  C_7
REMARK    6  A    between atoms: C_9  and  C_10
REMARK    7  A    between atoms: C_10  and  C_11
REMARK    8  A    between atoms: C_10  and  C_12
REMARK    9  A    between atoms: C_10  and  C_13
REMARK   10  A    between atoms: N_15  and  C_16
REMARK                            x       y       z     vdW  Elec       q    Type
REMARK                         _______ _______ _______ _____ _____    ______ ____
ROOT
ATOM      1  C   UNL     1       3.124   5.924  18.287  0.00  0.00    +0.000 A 
ATOM      2  C   UNL     1       2.441   5.347  19.340  0.00  0.00    +0.000 A 
ATOM      3  C   UNL     1       2.725   3.969  19.287  0.00  0.00    +0.000 A 
ATOM      4  N   UNL     1       3.464   3.688  18.206  0.00  0.00    +0.000 NA
ATOM      5  N   UNL     1       3.847   4.895  17.702  0.00  0.00    +0.000 N 
ENDROOT
BRANCH   5   6
ATOM      6  C   UNL     1       4.900   4.915  16.741  0.00  0.00    +0.000 A 
ATOM      7  C   UNL     1       6.066   5.655  17.025  0.00  0.00    +0.000 A 
ATOM      8  C   UNL     1       7.083   5.774  16.076  0.00  0.00    +0.000 A 
ATOM      9  C   UNL     1       6.925   5.182  14.830  0.00  0.00    +0.000 A 
ATOM     10  F   UNL     1       7.880   5.333  13.903  0.00  0.00    +0.000 F 
ATOM     11  C   UNL     1       5.771   4.463  14.539  0.00  0.00    +0.000 A 
ATOM     12  F   UNL     1       5.601   3.939  13.316  0.00  0.00    +0.000 F 
ATOM     13  C   UNL     1       4.760   4.314  15.487  0.00  0.00    +0.000 A 
ENDBRANCH   5   6
BRANCH   3  14
ATOM     14  C   UNL     1       2.234   2.868  20.215  0.00  0.00    +0.000 C 
ATOM     15  C   UNL     1       3.436   2.215  20.917  0.00  0.00    +0.000 C 
ATOM     16  C   UNL     1       1.267   3.417  21.286  0.00  0.00    +0.000 C 
ATOM     17  C   UNL     1       1.470   1.781  19.428  0.00  0.00    +0.000 C 
ENDBRANCH   3  14
BRANCH   1  18
ATOM     18  C   UNL     1       3.058   7.341  17.855  0.00  0.00    +0.000 C 
BRANCH  18  21
ATOM     19  C   UNL     1       1.792   9.366  18.381  0.00  0.00    +0.000 C 
ATOM     20  O   UNL     1       2.193   9.920  17.358  0.00  0.00    +0.000 OA
ATOM     21  N   UNL     1       2.198   8.096  18.728  0.00  0.00    +0.000 N 
ATOM     22  H   UNL     1       1.980   7.738  19.649  0.00  0.00    +0.000 HD
BRANCH  19  24
ATOM     23  C   UNL     1       0.770   9.309  20.684  0.00  0.00    +0.000 C 
ATOM     24  C   UNL     1       0.859  10.084  19.365  0.00  0.00    +0.000 C 
BRANCH  24  25
ATOM     25  C   UNL     1      -0.492  10.413  18.749  0.00  0.00    +0.000 A 
ATOM     26  C   UNL     1      -1.286  11.429  19.334  0.00  0.00    +0.000 A 
ATOM     27  C   UNL     1      -2.511  11.809  18.776  0.00  0.00    +0.000 A 
ATOM     28  C   UNL     1      -2.918  11.190  17.609  0.00  0.00    +0.000 A 
ATOM     29  C   UNL     1      -2.140  10.192  17.017  0.00  0.00    +0.000 A 
ATOM     30  C   UNL     1      -0.947   9.781  17.579  0.00  0.00    +0.000 A 
ATOM     31  C   UNL     1      -2.791   9.665  15.778  0.00  0.00    +0.000 C 
ATOM     32  C   UNL     1      -3.786  10.793  15.474  0.00  0.00    +0.000 C 
ATOM     33  C   UNL     1      -4.177  11.404  16.828  0.00  0.00    +0.000 C 
ENDBRANCH  24  25
ENDBRANCH  19  24
ENDBRANCH  18  21
ENDBRANCH   1  18
TORSDOF 6
ENDMDL
MODEL 2
REMARK VINA RESULT:      -9.5      0.753      1.336
REMARK  Name = 
REMARK  10 active torsions:
REMARK  status: ('A' for Active; 'I' for Inactive)
REMARK    1  A    between atoms: C_1  and  C_2
REMARK    2  A    between atoms: C_2  and  C_3
REMARK    3  A    between atoms: C_2  and  C_24
REMARK    4  A    between atoms: N_5  and  C_6
REMARK    5  A    between atoms: C_6  and  C_7
REMARK    6  A    between atoms: C_9  and  C_10
REMARK    7  A    between atoms: C_10  and  C_11
REMARK    8  A    between atoms: C_10  and  C_12
REMARK    9  A    between atoms: C_10  and  C_13
REMARK   10  A    between atoms: N_15  and  C_16
REMARK                            x       y       z     vdW  Elec       q    Type
REMARK                         _______ _______ _______ _____ _____    ______ ____
ROOT
ATOM      1  C   UNL     1       2.838   6.124  18.337  0.00  0.00    +0.000 A 
ATOM      2  C   UNL     1       2.047   5.432  19.234  0.00  0.00    +0.000 A 
ATOM      3  C   UNL     1       2.284   4.065  18.996  0.00  0.00    +0.000 A 
ATOM      4  N   UNL     1       3.103   3.910  17.948  0.00  0.00    +0.000 NA
ATOM      5  N   UNL     1       3.570   5.158  17.663  0.00  0.00    +0.000 N 
ENDROOT
BRANCH   5   6
ATOM      6  C   UNL     1       4.702   5.268  16.803  0.00  0.00    +0.000 A 
ATOM      7  C   UNL     1       4.796   4.409  15.689  0.00  0.00    +0.000 A 
ATOM      8  C   UNL     1       5.929   4.423  14.872  0.00  0.00    +0.000 A 
ATOM      9  C   UNL     1       6.983   5.271  15.185  0.00  0.00    +0.000 A 
ATOM     10  F   UNL     1       8.089   5.253  14.428  0.00  0.00    +0.000 F 
ATOM     11  C   UNL     1       6.903   6.110  16.290  0.00  0.00    +0.000 A 
ATOM     12  F   UNL     1       7.945   6.888  16.617  0.00  0.00    +0.000 F 
ATOM     13  C   UNL     1       5.766   6.125  17.098  0.00  0.00    +0.000 A 
ENDBRANCH   5   6
BRANCH   3  14
ATOM     14  C   UNL     1       1.675   2.865  19.706  0.00  0.00    +0.000 C 
ATOM     15  C   UNL     1       2.675   1.696  19.687  0.00  0.00    +0.000 C 
ATOM     16  C   UNL     1       1.317   3.193  21.171  0.00  0.00    +0.000 C 
ATOM     17  C   UNL     1       0.373   2.412  19.010  0.00  0.00    +0.000 C 
ENDBRANCH   3  14
BRANCH   1  18
ATOM     18  C   UNL     1       2.861   7.591  18.120  0.00  0.00    +0.000 C 
BRANCH  18  21
ATOM     19  C   UNL     1       1.556   9.564  18.737  0.00  0.00    +0.000 C 
ATOM     20  O   UNL     1       2.137  10.250  17.898  0.00  0.00    +0.000 OA
ATOM     21  N   UNL     1       1.874   8.239  18.943  0.00  0.00    +0.000 N 
ATOM     22  H   UNL     1       1.493   7.754  19.744  0.00  0.00    +0.000 HD
BRANCH  19  24
ATOM     23  C   UNL     1       0.275   9.285  20.890  0.00  0.00    +0.000 C 
ATOM     24  C   UNL     1       0.476  10.161  19.650  0.00  0.00    +0.000 C 
BRANCH  24  25
ATOM     25  C   UNL     1      -0.809  10.476  18.899  0.00  0.00    +0.000 A 
ATOM     26  C   UNL     1      -1.678  11.471  19.409  0.00  0.00    +0.000 A 
ATOM     27  C   UNL     1      -2.844  11.838  18.730  0.00  0.00    +0.000 A 
ATOM     28  C   UNL     1      -3.117  11.226  17.521  0.00  0.00    +0.000 A 
ATOM     29  C   UNL     1      -2.264  10.250  17.002  0.00  0.00    +0.000 A 
ATOM     30  C   UNL     1      -1.128   9.851  17.682  0.00  0.00    +0.000 A 
ATOM     31  C   UNL     1      -2.772   9.728  15.696  0.00  0.00    +0.000 C 
ATOM     32  C   UNL     1      -3.750  10.842  15.303  0.00  0.00    +0.000 C 
ATOM     33  C   UNL     1      -4.290  11.430  16.615  0.00  0.00    +0.000 C 
ENDBRANCH  24  25
ENDBRANCH  19  24
ENDBRANCH  18  21
ENDBRANCH   1  18
TORSDOF 6
ENDMDL
MODEL 3
REMARK VINA RESULT:      -9.3      0.916      1.382
REMARK  Name = 
REMARK  10 active torsions:
REMARK  status: ('A' for Active; 'I' for Inactive)
REMARK    1  A    between atoms: C_1  and  C_2
REMARK    2  A    between atoms: C_2  and  C_3
REMARK    3  A    between atoms: C_2  and  C_24
REMARK    4  A    between atoms: N_5  and  C_6
REMARK    5  A    between atoms: C_6  and  C_7
REMARK    6  A    between atoms: C_9  and  C_10
REMARK    7  A    between atoms: C_10  and  C_11
REMARK    8  A    between atoms: C_10  and  C_12
REMARK    9  A    between atoms: C_10  and  C_13
REMARK   10  A    between atoms: N_15  and  C_16
REMARK                            x       y       z     vdW  Elec       q    Type
REMARK                         _______ _______ _______ _____ _____    ______ ____
ROOT
ATOM      1  C   UNL     1       2.874   5.991  18.452  0.00  0.00    +0.000 A 
ATOM      2  C   UNL     1       1.990   5.348  19.298  0.00  0.00    +0.000 A 
ATOM      3  C   UNL     1       2.206   3.969  19.119  0.00  0.00    +0.000 A 
ATOM      4  N   UNL     1       3.104   3.760  18.148  0.00  0.00    +0.000 NA
ATOM      5  N   UNL     1       3.631   4.985  17.869  0.00  0.00    +0.000 N 
ENDROOT
BRANCH   5   6
ATOM      6  C   UNL     1       4.834   5.039  17.105  0.00  0.00    +0.000 A 
ATOM      7  C   UNL     1       4.759   5.392  15.743  0.00  0.00    +0.000 A 
ATOM      8  C   UNL     1       5.900   5.370  14.938  0.00  0.00    +0.000 A 
ATOM      9  C   UNL     1       7.111   4.965  15.483  0.00  0.00    +0.000 A 
ATOM     10  F   UNL     1       8.196   4.900  14.701  0.00  0.00    +0.000 F 
ATOM     11  C   UNL     1       7.188   4.601  16.822  0.00  0.00    +0.000 A 
ATOM     12  F   UNL     1       8.348   4.160  17.330  0.00  0.00    +0.000 F 
ATOM     13  C   UNL     1       6.062   4.645  17.644  0.00  0.00    +0.000 A 
ENDBRANCH   5   6
BRANCH   3  14
ATOM     14  C   UNL     1       1.504   2.808  19.808  0.00  0.00    +0.000 C 
ATOM     15  C   UNL     1       1.322   3.132  21.301  0.00  0.00    +0.000 C 
ATOM     16  C   UNL     1       0.119   2.530  19.184  0.00  0.00    +0.000 C 
ATOM     17  C   UNL     1       2.329   1.509  19.681  0.00  0.00    +0.000 C 
ENDBRANCH   3  14
BRANCH   1  18
ATOM     18  C   UNL     1       2.959   7.450  18.197  0.00  0.00    +0.000 C 
BRANCH  18  21
ATOM     19  C   UNL     1       1.535   9.392  18.618  0.00  0.00    +0.000 C 
ATOM     20  O   UNL     1       1.941   9.950  17.599  0.00  0.00    +0.000 OA
ATOM     21  N   UNL     1       2.011   8.161  19.014  0.00  0.00    +0.000 N 
ATOM     22  H   UNL     1       1.778   7.809  19.933  0.00  0.00    +0.000 HD
BRANCH  19  24
ATOM     23  C   UNL     1       0.332   9.249  20.828  0.00  0.00    +0.000 C 
ATOM     24  C   UNL     1       0.512  10.064  19.543  0.00  0.00    +0.000 C 
BRANCH  24  25
ATOM     25  C   UNL     1      -0.792  10.388  18.829  0.00  0.00    +0.000 A 
ATOM     26  C   UNL     1      -1.656  11.364  19.384  0.00  0.00    +0.000 A 
ATOM     27  C   UNL     1      -2.840  11.739  18.739  0.00  0.00    +0.000 A 
ATOM     28  C   UNL     1      -3.133  11.158  17.520  0.00  0.00    +0.000 A 
ATOM     29  C   UNL     1      -2.285  10.202  16.958  0.00  0.00    +0.000 A 
ATOM     30  C   UNL     1      -1.132   9.794  17.602  0.00  0.00    +0.000 A 
ATOM     31  C   UNL     1      -2.817   9.710  15.650  0.00  0.00    +0.000 C 
ATOM     32  C   UNL     1      -3.811  10.828  15.307  0.00  0.00    +0.000 C 
ATOM     33  C   UNL     1      -4.328  11.376  16.645  0.00  0.00    +0.000 C 
ENDBRANCH  24  25
ENDBRANCH  19  24
ENDBRANCH  18  21
ENDBRANCH   1  18
TORSDOF 6
ENDMDL
MODEL 4
REMARK VINA RESULT:      -9.2      2.574      4.633
REMARK  Name = 
REMARK  10 active torsions:
REMARK  status: ('A' for Active; 'I' for Inactive)
REMARK    1  A    between atoms: C_1  and  C_2
REMARK    2  A    between atoms: C_2  and  C_3
REMARK    3  A    between atoms: C_2  and  C_24
REMARK    4  A    between atoms: N_5  and  C_6
REMARK    5  A    between atoms: C_6  and  C_7
REMARK    6  A    between atoms: C_9  and  C_10
REMARK    7  A    between atoms: C_10  and  C_11
REMARK    8  A    between atoms: C_10  and  C_12
REMARK    9  A    between atoms: C_10  and  C_13
REMARK   10  A    between atoms: N_15  and  C_16
REMARK                            x       y       z     vdW  Elec       q    Type
REMARK                         _______ _______ _______ _____ _____    ______ ____
ROOT
ATOM      1  C   UNL     1       3.593   6.646  17.793  0.00  0.00    +0.000 A 
ATOM      2  C   UNL     1       4.856   6.909  17.298  0.00  0.00    +0.000 A 
ATOM      3  C   UNL     1       5.749   6.143  18.070  0.00  0.00    +0.000 A 
ATOM      4  N   UNL     1       5.094   5.511  19.052  0.00  0.00    +0.000 NA
ATOM      5  N   UNL     1       3.771   5.681  18.775  0.00  0.00    +0.000 N 
ENDROOT
BRANCH   5   6
ATOM      6  C   UNL     1       2.832   4.857  19.462  0.00  0.00    +0.000 A 
ATOM      7  C   UNL     1       2.892   4.785  20.869  0.00  0.00    +0.000 A 
ATOM      8  C   UNL     1       2.050   3.924  21.575  0.00  0.00    +0.000 A 
ATOM      9  C   UNL     1       1.169   3.109  20.876  0.00  0.00    +0.000 A 
ATOM     10  F   UNL     1       0.392   2.249  21.550  0.00  0.00    +0.000 F 
ATOM     11  C   UNL     1       1.115   3.165  19.489  0.00  0.00    +0.000 A 
ATOM     12  F   UNL     1       0.300   2.338  18.817  0.00  0.00    +0.000 F 
ATOM     13  C   UNL     1       1.931   4.041  18.773  0.00  0.00    +0.000 A 
ENDBRANCH   5   6
BRANCH   3  14
ATOM     14  C   UNL     1       7.263   6.053  17.947  0.00  0.00    +0.000 C 
ATOM     15  C   UNL     1       7.634   4.897  17.002  0.00  0.00    +0.000 C 
ATOM     16  C   UNL     1       7.867   7.363  17.396  0.00  0.00    +0.000 C 
ATOM     17  C   UNL     1       7.916   5.795  19.322  0.00  0.00    +0.000 C 
ENDBRANCH   3  14
BRANCH   1  18
ATOM     18  C   UNL     1       2.324   7.294  17.383  0.00  0.00    +0.000 C 
BRANCH  18  21
ATOM     19  C   UNL     1       1.575   9.375  18.426  0.00  0.00    +0.000 C 
ATOM     20  O   UNL     1       1.967  10.035  17.465  0.00  0.00    +0.000 OA
ATOM     21  N   UNL     1       1.742   8.008  18.489  0.00  0.00    +0.000 N 
ATOM     22  H   UNL     1       1.557   7.523  19.357  0.00  0.00    +0.000 HD
BRANCH  19  24
ATOM     23  C   UNL     1       1.026   9.137  20.874  0.00  0.00    +0.000 C 
ATOM     24  C   UNL     1       0.926  10.045  19.645  0.00  0.00    +0.000 C 
BRANCH  24  25
ATOM     25  C   UNL     1      -0.483  10.539  19.353  0.00  0.00    +0.000 A 
ATOM     26  C   UNL     1      -1.000  11.624  20.103  0.00  0.00    +0.000 A 
ATOM     27  C   UNL     1      -2.268  12.153  19.839  0.00  0.00    +0.000 A 
ATOM     28  C   UNL     1      -2.999  11.612  18.798  0.00  0.00    +0.000 A 
ATOM     29  C   UNL     1      -2.496  10.548  18.045  0.00  0.00    +0.000 A 
ATOM     30  C   UNL     1      -1.262   9.992  18.321  0.00  0.00    +0.000 A 
ATOM     31  C   UNL     1      -3.468  10.129  16.989  0.00  0.00    +0.000 C 
ATOM     32  C   UNL     1      -4.369  11.368  16.920  0.00  0.00    +0.000 C 
ATOM     33  C   UNL     1      -4.368  11.986  18.326  0.00  0.00    +0.000 C 
ENDBRANCH  24  25
ENDBRANCH  19  24
ENDBRANCH  18  21
ENDBRANCH   1  18
TORSDOF 6
ENDMDL
MODEL 5
REMARK VINA RESULT:      -9.2      0.584      1.374
REMARK  Name = 
REMARK  10 active torsions:
REMARK  status: ('A' for Active; 'I' for Inactive)
REMARK    1  A    between atoms: C_1  and  C_2
REMARK    2  A    between atoms: C_2  and  C_3
REMARK    3  A    between atoms: C_2  and  C_24
REMARK    4  A    between atoms: N_5  and  C_6
REMARK    5  A    between atoms: C_6  and  C_7
REMARK    6  A    between atoms: C_9  and  C_10
REMARK    7  A    between atoms: C_10  and  C_11
REMARK    8  A    between atoms: C_10  and  C_12
REMARK    9  A    between atoms: C_10  and  C_13
REMARK   10  A    between atoms: N_15  and  C_16
REMARK                            x       y       z     vdW  Elec       q    Type
REMARK                         _______ _______ _______ _____ _____    ______ ____
ROOT
ATOM      1  C   UNL     1       3.017   5.923  18.143  0.00  0.00    +0.000 A 
ATOM      2  C   UNL     1       2.207   5.299  19.073  0.00  0.00    +0.000 A 
ATOM      3  C   UNL     1       2.397   3.915  18.896  0.00  0.00    +0.000 A 
ATOM      4  N   UNL     1       3.205   3.686  17.854  0.00  0.00    +0.000 NA
ATOM      5  N   UNL     1       3.713   4.902  17.511  0.00  0.00    +0.000 N 
ENDROOT
BRANCH   5   6
ATOM      6  C   UNL     1       4.844   4.935  16.644  0.00  0.00    +0.000 A 
ATOM      7  C   UNL     1       5.956   5.723  17.005  0.00  0.00    +0.000 A 
ATOM      8  C   UNL     1       7.047   5.853  16.143  0.00  0.00    +0.000 A 
ATOM      9  C   UNL     1       7.017   5.223  14.906  0.00  0.00    +0.000 A 
ATOM     10  F   UNL     1       8.043   5.384  14.060  0.00  0.00    +0.000 F 
ATOM     11  C   UNL     1       5.917   4.457  14.538  0.00  0.00    +0.000 A 
ATOM     12  F   UNL     1       5.870   3.895  13.321  0.00  0.00    +0.000 F 
ATOM     13  C   UNL     1       4.833   4.296  15.400  0.00  0.00    +0.000 A 
ENDBRANCH   5   6
BRANCH   3  14
ATOM     14  C   UNL     1       1.751   2.770  19.662  0.00  0.00    +0.000 C 
ATOM     15  C   UNL     1       2.705   1.564  19.681  0.00  0.00    +0.000 C 
ATOM     16  C   UNL     1       1.422   3.172  21.116  0.00  0.00    +0.000 C 
ATOM     17  C   UNL     1       0.425   2.339  18.998  0.00  0.00    +0.000 C 
ENDBRANCH   3  14
BRANCH   1  18
ATOM     18  C   UNL     1       3.089   7.376  17.859  0.00  0.00    +0.000 C 
BRANCH  18  21
ATOM     19  C   UNL     1       1.755   9.360  18.371  0.00  0.00    +0.000 C 
ATOM     20  O   UNL     1       2.147   9.926  17.351  0.00  0.00    +0.000 OA
ATOM     21  N   UNL     1       2.197   8.104  18.724  0.00  0.00    +0.000 N 
ATOM     22  H   UNL     1       1.981   7.740  19.642  0.00  0.00    +0.000 HD
BRANCH  19  24
ATOM     23  C   UNL     1       0.681   9.250  20.648  0.00  0.00    +0.000 C 
ATOM     24  C   UNL     1       0.790  10.049  19.346  0.00  0.00    +0.000 C 
BRANCH  24  25
ATOM     25  C   UNL     1      -0.551  10.372  18.704  0.00  0.00    +0.000 A 
ATOM     26  C   UNL     1      -0.914   9.717  17.501  0.00  0.00    +0.000 A 
ATOM     27  C   UNL     1      -2.157   9.935  16.899  0.00  0.00    +0.000 A 
ATOM     28  C   UNL     1      -3.047  10.786  17.527  0.00  0.00    +0.000 A 
ATOM     29  C   UNL     1      -2.706  11.431  18.718  0.00  0.00    +0.000 A 
ATOM     30  C   UNL     1      -1.466  11.253  19.303  0.00  0.00    +0.000 A 
ATOM     31  C   UNL     1      -3.820  12.305  19.197  0.00  0.00    +0.000 C 
ATOM     32  C   UNL     1      -5.000  11.726  18.406  0.00  0.00    +0.000 C 
ATOM     33  C   UNL     1      -4.419  11.191  17.088  0.00  0.00    +0.000 C 
ENDBRANCH  24  25
ENDBRANCH  19  24
ENDBRANCH  18  21
ENDBRANCH   1  18
TORSDOF 6
ENDMDL
MODEL 6
REMARK VINA RESULT:      -9.1      1.915      2.203
REMARK  Name = 
REMARK  10 active torsions:
REMARK  status: ('A' for Active; 'I' for Inactive)
REMARK    1  A    between atoms: C_1  and  C_2
REMARK    2  A    between atoms: C_2  and  C_3
REMARK    3  A    between atoms: C_2  and  C_24
REMARK    4  A    between atoms: N_5  and  C_6
REMARK    5  A    between atoms: C_6  and  C_7
REMARK    6  A    between atoms: C_9  and  C_10
REMARK    7  A    between atoms: C_10  and  C_11
REMARK    8  A    between atoms: C_10  and  C_12
REMARK    9  A    between atoms: C_10  and  C_13
REMARK   10  A    between atoms: N_15  and  C_16
REMARK                            x       y       z     vdW  Elec       q    Type
REMARK                         _______ _______ _______ _____ _____    ______ ____
ROOT
ATOM      1  C   UNL     1       2.865   5.995  18.124  0.00  0.00    +0.000 A 
ATOM      2  C   UNL     1       1.907   5.061  18.468  0.00  0.00    +0.000 A 
ATOM      3  C   UNL     1       2.603   3.875  18.770  0.00  0.00    +0.000 A 
ATOM      4  N   UNL     1       3.912   4.032  18.536  0.00  0.00    +0.000 NA
ATOM      5  N   UNL     1       4.086   5.364  18.311  0.00  0.00    +0.000 N 
ENDROOT
BRANCH   5   6
ATOM      6  C   UNL     1       5.415   5.881  18.348  0.00  0.00    +0.000 A 
ATOM      7  C   UNL     1       6.324   5.355  19.288  0.00  0.00    +0.000 A 
ATOM      8  C   UNL     1       7.606   5.893  19.417  0.00  0.00    +0.000 A 
ATOM      9  C   UNL     1       7.972   6.977  18.630  0.00  0.00    +0.000 A 
ATOM     10  F   UNL     1       9.186   7.522  18.784  0.00  0.00    +0.000 F 
ATOM     11  C   UNL     1       7.075   7.509  17.711  0.00  0.00    +0.000 A 
ATOM     12  F   UNL     1       7.416   8.588  16.991  0.00  0.00    +0.000 F 
ATOM     13  C   UNL     1       5.802   6.963  17.553  0.00  0.00    +0.000 A 
ENDBRANCH   5   6
BRANCH   3  14
ATOM     14  C   UNL     1       2.034   2.535  19.212  0.00  0.00    +0.000 C 
ATOM     15  C   UNL     1       2.944   1.401  18.709  0.00  0.00    +0.000 C 
ATOM     16  C   UNL     1       1.925   2.443  20.749  0.00  0.00    +0.000 C 
ATOM     17  C   UNL     1       0.616   2.320  18.642  0.00  0.00    +0.000 C 
ENDBRANCH   3  14
BRANCH   1  18
ATOM     18  C   UNL     1       2.626   7.369  17.620  0.00  0.00    +0.000 C 
BRANCH  18  21
ATOM     19  C   UNL     1       1.605   9.457  18.381  0.00  0.00    +0.000 C 
ATOM     20  O   UNL     1       2.220  10.103  17.534  0.00  0.00    +0.000 OA
ATOM     21  N   UNL     1       1.771   8.096  18.521  0.00  0.00    +0.000 N 
ATOM     22  H   UNL     1       1.377   7.626  19.326  0.00  0.00    +0.000 HD
BRANCH  19  24
ATOM     23  C   UNL     1       0.581   9.342  20.681  0.00  0.00    +0.000 C 
ATOM     24  C   UNL     1       0.657  10.140  19.376  0.00  0.00    +0.000 C 
BRANCH  24  25
ATOM     25  C   UNL     1      -0.699  10.454  18.762  0.00  0.00    +0.000 A 
ATOM     26  C   UNL     1      -1.535  11.408  19.392  0.00  0.00    +0.000 A 
ATOM     27  C   UNL     1      -2.768  11.773  18.841  0.00  0.00    +0.000 A 
ATOM     28  C   UNL     1      -3.140  11.205  17.637  0.00  0.00    +0.000 A 
ATOM     29  C   UNL     1      -2.321  10.270  17.001  0.00  0.00    +0.000 A 
ATOM     30  C   UNL     1      -1.119   9.871  17.555  0.00  0.00    +0.000 A 
ATOM     31  C   UNL     1      -2.939   9.788  15.728  0.00  0.00    +0.000 C 
ATOM     32  C   UNL     1      -3.972  10.895  15.474  0.00  0.00    +0.000 C 
ATOM     33  C   UNL     1      -4.398  11.417  16.854  0.00  0.00    +0.000 C 
ENDBRANCH  24  25
ENDBRANCH  19  24
ENDBRANCH  18  21
ENDBRANCH   1  18
TORSDOF 6
ENDMDL
MODEL 7
REMARK VINA RESULT:      -9.0      0.906      1.882
REMARK  Name = 
REMARK  10 active torsions:
REMARK  status: ('A' for Active; 'I' for Inactive)
REMARK    1  A    between atoms: C_1  and  C_2
REMARK    2  A    between atoms: C_2  and  C_3
REMARK    3  A    between atoms: C_2  and  C_24
REMARK    4  A    between atoms: N_5  and  C_6
REMARK    5  A    between atoms: C_6  and  C_7
REMARK    6  A    between atoms: C_9  and  C_10
REMARK    7  A    between atoms: C_10  and  C_11
REMARK    8  A    between atoms: C_10  and  C_12
REMARK    9  A    between atoms: C_10  and  C_13
REMARK   10  A    between atoms: N_15  and  C_16
REMARK                            x       y       z     vdW  Elec       q    Type
REMARK                         _______ _______ _______ _____ _____    ______ ____
ROOT
ATOM      1  C   UNL     1       2.791   6.221  18.324  0.00  0.00    +0.000 A 
ATOM      2  C   UNL     1       2.053   5.605  19.316  0.00  0.00    +0.000 A 
ATOM      3  C   UNL     1       2.367   4.235  19.249  0.00  0.00    +0.000 A 
ATOM      4  N   UNL     1       3.181   3.994  18.213  0.00  0.00    +0.000 NA
ATOM      5  N   UNL     1       3.571   5.219  17.763  0.00  0.00    +0.000 N 
ENDROOT
BRANCH   5   6
ATOM      6  C   UNL     1       4.684   5.283  16.874  0.00  0.00    +0.000 A 
ATOM      7  C   UNL     1       4.741   4.383  15.791  0.00  0.00    +0.000 A 
ATOM      8  C   UNL     1       5.855   4.352  14.949  0.00  0.00    +0.000 A 
ATOM      9  C   UNL     1       6.927   5.197  15.206  0.00  0.00    +0.000 A 
ATOM     10  F   UNL     1       8.015   5.136  14.426  0.00  0.00    +0.000 F 
ATOM     11  C   UNL     1       6.883   6.075  16.282  0.00  0.00    +0.000 A 
ATOM     12  F   UNL     1       7.942   6.851  16.557  0.00  0.00    +0.000 F 
ATOM     13  C   UNL     1       5.765   6.136  17.114  0.00  0.00    +0.000 A 
ENDBRANCH   5   6
BRANCH   3  14
ATOM     14  C   UNL     1       1.838   3.103  20.117  0.00  0.00    +0.000 C 
ATOM     15  C   UNL     1       2.280   3.325  21.574  0.00  0.00    +0.000 C 
ATOM     16  C   UNL     1       0.298   3.021  20.068  0.00  0.00    +0.000 C 
ATOM     17  C   UNL     1       2.381   1.738  19.639  0.00  0.00    +0.000 C 
ENDBRANCH   3  14
BRANCH   1  18
ATOM     18  C   UNL     1       2.726   7.647  17.922  0.00  0.00    +0.000 C 
BRANCH  18  21
ATOM     19  C   UNL     1       1.524   9.693  18.510  0.00  0.00    +0.000 C 
ATOM     20  O   UNL     1       2.117  10.330  17.641  0.00  0.00    +0.000 OA
ATOM     21  N   UNL     1       1.787   8.361  18.746  0.00  0.00    +0.000 N 
ATOM     22  H   UNL     1       1.402   7.916  19.569  0.00  0.00    +0.000 HD
BRANCH  19  24
ATOM     23  C   UNL     1       0.372   9.599  20.750  0.00  0.00    +0.000 C 
ATOM     24  C   UNL     1       0.493  10.364  19.428  0.00  0.00    +0.000 C 
BRANCH  24  25
ATOM     25  C   UNL     1      -0.837  10.604  18.729  0.00  0.00    +0.000 A 
ATOM     26  C   UNL     1      -1.104   9.935  17.509  0.00  0.00    +0.000 A 
ATOM     27  C   UNL     1      -2.331  10.078  16.854  0.00  0.00    +0.000 A 
ATOM     28  C   UNL     1      -3.301  10.865  17.445  0.00  0.00    +0.000 A 
ATOM     29  C   UNL     1      -3.054  11.523  18.652  0.00  0.00    +0.000 A 
ATOM     30  C   UNL     1      -1.832  11.421  19.290  0.00  0.00    +0.000 A 
ATOM     31  C   UNL     1      -4.242  12.321  19.084  0.00  0.00    +0.000 C 
ATOM     32  C   UNL     1      -5.346  11.672  18.240  0.00  0.00    +0.000 C 
ATOM     33  C   UNL     1      -4.675  11.184  16.947  0.00  0.00    +0.000 C 
ENDBRANCH  24  25
ENDBRANCH  19  24
ENDBRANCH  18  21
ENDBRANCH   1  18
TORSDOF 6
ENDMDL
MODEL 8
REMARK VINA RESULT:      -8.9      1.012      1.835
REMARK  Name = 
REMARK  10 active torsions:
REMARK  status: ('A' for Active; 'I' for Inactive)
REMARK    1  A    between atoms: C_1  and  C_2
REMARK    2  A    between atoms: C_2  and  C_3
REMARK    3  A    between atoms: C_2  and  C_24
REMARK    4  A    between atoms: N_5  and  C_6
REMARK    5  A    between atoms: C_6  and  C_7
REMARK    6  A    between atoms: C_9  and  C_10
REMARK    7  A    between atoms: C_10  and  C_11
REMARK    8  A    between atoms: C_10  and  C_12
REMARK    9  A    between atoms: C_10  and  C_13
REMARK   10  A    between atoms: N_15  and  C_16
REMARK                            x       y       z     vdW  Elec       q    Type
REMARK                         _______ _______ _______ _____ _____    ______ ____
ROOT
ATOM      1  C   UNL     1       2.887   6.126  18.470  0.00  0.00    +0.000 A 
ATOM      2  C   UNL     1       2.063   5.533  19.407  0.00  0.00    +0.000 A 
ATOM      3  C   UNL     1       2.334   4.153  19.355  0.00  0.00    +0.000 A 
ATOM      4  N   UNL     1       3.208   3.887  18.376  0.00  0.00    +0.000 NA
ATOM      5  N   UNL     1       3.669   5.099  17.959  0.00  0.00    +0.000 N 
ENDROOT
BRANCH   5   6
ATOM      6  C   UNL     1       4.841   5.127  17.148  0.00  0.00    +0.000 A 
ATOM      7  C   UNL     1       4.719   5.473  15.787  0.00  0.00    +0.000 A 
ATOM      8  C   UNL     1       5.826   5.427  14.938  0.00  0.00    +0.000 A 
ATOM      9  C   UNL     1       7.050   5.003  15.438  0.00  0.00    +0.000 A 
ATOM     10  F   UNL     1       8.103   4.915  14.613  0.00  0.00    +0.000 F 
ATOM     11  C   UNL     1       7.174   4.646  16.775  0.00  0.00    +0.000 A 
ATOM     12  F   UNL     1       8.346   4.187  17.239  0.00  0.00    +0.000 F 
ATOM     13  C   UNL     1       6.082   4.715  17.640  0.00  0.00    +0.000 A 
ENDBRANCH   5   6
BRANCH   3  14
ATOM     14  C   UNL     1       1.710   3.038  20.180  0.00  0.00    +0.000 C 
ATOM     15  C   UNL     1       2.229   1.678  19.682  0.00  0.00    +0.000 C 
ATOM     16  C   UNL     1       2.047   3.183  21.680  0.00  0.00    +0.000 C 
ATOM     17  C   UNL     1       0.170   3.053  20.058  0.00  0.00    +0.000 C 
ENDBRANCH   3  14
BRANCH   1  18
ATOM     18  C   UNL     1       2.897   7.554  18.071  0.00  0.00    +0.000 C 
BRANCH  18  21
ATOM     19  C   UNL     1       1.616   9.590  18.504  0.00  0.00    +0.000 C 
ATOM     20  O   UNL     1       2.128  10.156  17.540  0.00  0.00    +0.000 OA
ATOM     21  N   UNL     1       1.963   8.307  18.866  0.00  0.00    +0.000 N 
ATOM     22  H   UNL     1       1.646   7.936  19.752  0.00  0.00    +0.000 HD
BRANCH  19  24
ATOM     23  C   UNL     1       0.474   9.591  20.751  0.00  0.00    +0.000 C 
ATOM     24  C   UNL     1       0.598  10.306  19.402  0.00  0.00    +0.000 C 
BRANCH  24  25
ATOM     25  C   UNL     1      -0.733  10.536  18.701  0.00  0.00    +0.000 A 
ATOM     26  C   UNL     1      -1.000   9.852  17.490  0.00  0.00    +0.000 A 
ATOM     27  C   UNL     1      -2.228   9.985  16.834  0.00  0.00    +0.000 A 
ATOM     28  C   UNL     1      -3.198  10.780  17.416  0.00  0.00    +0.000 A 
ATOM     29  C   UNL     1      -2.951  11.453  18.614  0.00  0.00    +0.000 A 
ATOM     30  C   UNL     1      -1.728  11.360  19.253  0.00  0.00    +0.000 A 
ATOM     31  C   UNL     1      -4.139  12.256  19.037  0.00  0.00    +0.000 C 
ATOM     32  C   UNL     1      -5.243  11.596  18.202  0.00  0.00    +0.000 C 
ATOM     33  C   UNL     1      -4.573  11.092  16.915  0.00  0.00    +0.000 C 
ENDBRANCH  24  25
ENDBRANCH  19  24
ENDBRANCH  18  21
ENDBRANCH   1  18
TORSDOF 6
ENDMDL
MODEL 9
REMARK VINA RESULT:      -8.8      3.282      5.521
REMARK  Name = 
REMARK  10 active torsions:
REMARK  status: ('A' for Active; 'I' for Inactive)
REMARK    1  A    between atoms: C_1  and  C_2
REMARK    2  A    between atoms: C_2  and  C_3
REMARK    3  A    between atoms: C_2  and  C_24
REMARK    4  A    between atoms: N_5  and  C_6
REMARK    5  A    between atoms: C_6  and  C_7
REMARK    6  A    between atoms: C_9  and  C_10
REMARK    7  A    between atoms: C_10  and  C_11
REMARK    8  A    between atoms: C_10  and  C_12
REMARK    9  A    between atoms: C_10  and  C_13
REMARK   10  A    between atoms: N_15  and  C_16
REMARK                            x       y       z     vdW  Elec       q    Type
REMARK                         _______ _______ _______ _____ _____    ______ ____
ROOT
ATOM      1  C   UNL     1       3.356   6.938  17.786  0.00  0.00    +0.000 A 
ATOM      2  C   UNL     1       4.537   7.188  17.114  0.00  0.00    +0.000 A 
ATOM      3  C   UNL     1       5.482   6.279  17.628  0.00  0.00    +0.000 A 
ATOM      4  N   UNL     1       4.948   5.569  18.629  0.00  0.00    +0.000 NA
ATOM      5  N   UNL     1       3.615   5.849  18.606  0.00  0.00    +0.000 N 
ENDROOT
BRANCH   5   6
ATOM      6  C   UNL     1       2.739   5.002  19.346  0.00  0.00    +0.000 A 
ATOM      7  C   UNL     1       2.868   4.950  20.749  0.00  0.00    +0.000 A 
ATOM      8  C   UNL     1       2.091   4.069  21.503  0.00  0.00    +0.000 A 
ATOM      9  C   UNL     1       1.208   3.214  20.856  0.00  0.00    +0.000 A 
ATOM     10  F   UNL     1       0.495   2.337  21.575  0.00  0.00    +0.000 F 
ATOM     11  C   UNL     1       1.087   3.250  19.472  0.00  0.00    +0.000 A 
ATOM     12  F   UNL     1       0.272   2.387  18.849  0.00  0.00    +0.000 F 
ATOM     13  C   UNL     1       1.837   4.145  18.709  0.00  0.00    +0.000 A 
ENDBRANCH   5   6
BRANCH   3  14
ATOM     14  C   UNL     1       6.943   6.117  17.237  0.00  0.00    +0.000 C 
ATOM     15  C   UNL     1       7.648   7.483  17.308  0.00  0.00    +0.000 C 
ATOM     16  C   UNL     1       7.675   5.128  18.169  0.00  0.00    +0.000 C 
ATOM     17  C   UNL     1       7.074   5.568  15.799  0.00  0.00    +0.000 C 
ENDBRANCH   3  14
BRANCH   1  18
ATOM     18  C   UNL     1       2.092   7.707  17.677  0.00  0.00    +0.000 C 
BRANCH  18  21
ATOM     19  C   UNL     1       0.971   9.586  18.768  0.00  0.00    +0.000 C 
ATOM     20  O   UNL     1       0.186   9.705  17.828  0.00  0.00    +0.000 OA
ATOM     21  N   UNL     1       1.975   8.642  18.765  0.00  0.00    +0.000 N 
ATOM     22  H   UNL     1       2.696   8.679  19.474  0.00  0.00    +0.000 HD
BRANCH  19  24
ATOM     23  C   UNL     1      -0.246  10.141  20.905  0.00  0.00    +0.000 C 
ATOM     24  C   UNL     1       0.914  10.525  19.981  0.00  0.00    +0.000 C 
BRANCH  24  25
ATOM     25  C   UNL     1       0.924  11.992  19.578  0.00  0.00    +0.000 A 
ATOM     26  C   UNL     1      -0.175  12.811  19.935  0.00  0.00    +0.000 A 
ATOM     27  C   UNL     1      -0.192  14.178  19.638  0.00  0.00    +0.000 A 
ATOM     28  C   UNL     1       0.914  14.725  19.015  0.00  0.00    +0.000 A 
ATOM     29  C   UNL     1       2.008  13.931  18.666  0.00  0.00    +0.000 A 
ATOM     30  C   UNL     1       2.020  12.572  18.919  0.00  0.00    +0.000 A 
ATOM     31  C   UNL     1       3.070  14.740  17.993  0.00  0.00    +0.000 C 
ATOM     32  C   UNL     1       2.664  16.157  18.420  0.00  0.00    +0.000 C 
ATOM     33  C   UNL     1       1.137  16.141  18.584  0.00  0.00    +0.000 C 
ENDBRANCH  24  25
ENDBRANCH  19  24
ENDBRANCH  18  21
ENDBRANCH   1  18
TORSDOF 6
ENDMDL
