MODEL 1
REMARK VINA RESULT:      -8.2      0.000      0.000
REMARK  Name = 
REMARK  3 active torsions:
REMARK  status: ('A' for Active; 'I' for Inactive)
REMARK    1  A    between atoms: C_2  and  C_3
REMARK    2  A    between atoms: C_13  and  C_14
REMARK    3  A    between atoms: C_19  and  O_20
REMARK                            x       y       z     vdW  Elec       q    Type
REMARK                         _______ _______ _______ _____ _____    ______ ____
ROOT
ATOM      1  C   UNL     1       6.028   3.564  12.861  0.00  0.00    +0.000 A 
ATOM      2  C   UNL     1       5.416   3.499  14.108  0.00  0.00    +0.000 A 
ATOM      3  C   UNL     1       5.973   4.295  15.118  0.00  0.00    +0.000 A 
ATOM      4  C   UNL     1       7.081   5.086  14.813  0.00  0.00    +0.000 A 
ATOM      5  C   UNL     1       7.650   5.102  13.547  0.00  0.00    +0.000 A 
ATOM      6  N   UNL     1       7.108   4.332  12.576  0.00  0.00    +0.000 NA
ATOM      7  N   UNL     1       7.425   5.766  15.960  0.00  0.00    +0.000 N 
ATOM      8  C   UNL     1       6.571   5.441  16.975  0.00  0.00    +0.000 A 
ATOM      9  N   UNL     1       6.636   5.951  18.214  0.00  0.00    +0.000 NA
ATOM     10  C   UNL     1       5.670   5.450  19.036  0.00  0.00    +0.000 A 
ATOM     11  C   UNL     1       4.686   4.500  18.720  0.00  0.00    +0.000 A 
ATOM     12  C   UNL     1       4.696   4.030  17.394  0.00  0.00    +0.000 A 
ATOM     13  C   UNL     1       5.659   4.515  16.492  0.00  0.00    +0.000 A 
ATOM     14  H   UNL     1       8.189   6.417  16.065  0.00  0.00    +0.000 HD
ENDROOT
BRANCH  11  15
ATOM     15  C   UNL     1       3.685   4.009  19.707  0.00  0.00    +0.000 A 
ATOM     16  C   UNL     1       2.511   4.754  19.959  0.00  0.00    +0.000 A 
ATOM     17  C   UNL     1       1.527   4.311  20.848  0.00  0.00    +0.000 A 
ATOM     18  C   UNL     1       1.694   3.111  21.528  0.00  0.00    +0.000 A 
ATOM     19  C   UNL     1       2.844   2.356  21.318  0.00  0.00    +0.000 A 
ATOM     20  C   UNL     1       3.820   2.799  20.418  0.00  0.00    +0.000 A 
BRANCH  20  21
ATOM     21  O   UNL     1       4.920   2.006  20.220  0.00  0.00    +0.000 OA
ATOM     22  H   UNL     1       5.474   2.017  21.018  0.00  0.00    +0.000 HD
ENDBRANCH  20  21
ENDBRANCH  11  15
BRANCH   1  24
ATOM     23  N   UNL     1       5.072   2.115  10.926  0.00  0.00    +0.000 NA
ATOM     24  C   UNL     1       5.513   2.778  11.772  0.00  0.00    +0.000 C 
ENDBRANCH   1  24
TORSDOF 3
ENDMDL
MODEL 2
REMARK VINA RESULT:      -7.8      1.256      1.607
REMARK  Name = 
REMARK  3 active torsions:
REMARK  status: ('A' for Active; 'I' for Inactive)
REMARK    1  A    between atoms: C_2  and  C_3
REMARK    2  A    between atoms: C_13  and  C_14
REMARK    3  A    between atoms: C_19  and  O_20
REMARK                            x       y       z     vdW  Elec       q    Type
REMARK                         _______ _______ _______ _____ _____    ______ ____
ROOT
ATOM      1  C   UNL     1       5.315   3.702  12.466  0.00  0.00    +0.000 A 
ATOM      2  C   UNL     1       4.826   3.693  13.768  0.00  0.00    +0.000 A 
ATOM      3  C   UNL     1       5.704   4.134  14.767  0.00  0.00    +0.000 A 
ATOM      4  C   UNL     1       6.985   4.547  14.398  0.00  0.00    +0.000 A 
ATOM      5  C   UNL     1       7.415   4.528  13.079  0.00  0.00    +0.000 A 
ATOM      6  N   UNL     1       6.563   4.101  12.119  0.00  0.00    +0.000 NA
ATOM      7  N   UNL     1       7.636   4.933  15.548  0.00  0.00    +0.000 N 
ATOM      8  C   UNL     1       6.813   4.787  16.628  0.00  0.00    +0.000 A 
ATOM      9  N   UNL     1       7.152   5.095  17.888  0.00  0.00    +0.000 NA
ATOM     10  C   UNL     1       6.148   4.845  18.776  0.00  0.00    +0.000 A 
ATOM     11  C   UNL     1       4.876   4.317  18.502  0.00  0.00    +0.000 A 
ATOM     12  C   UNL     1       4.613   4.033  17.150  0.00  0.00    +0.000 A 
ATOM     13  C   UNL     1       5.603   4.278  16.182  0.00  0.00    +0.000 A 
ATOM     14  H   UNL     1       8.581   5.280  15.615  0.00  0.00    +0.000 HD
ENDROOT
BRANCH  11  15
ATOM     15  C   UNL     1       3.856   4.067  19.558  0.00  0.00    +0.000 A 
ATOM     16  C   UNL     1       3.757   2.795  20.164  0.00  0.00    +0.000 A 
ATOM     17  C   UNL     1       2.840   2.528  21.185  0.00  0.00    +0.000 A 
ATOM     18  C   UNL     1       1.979   3.526  21.624  0.00  0.00    +0.000 A 
ATOM     19  C   UNL     1       2.035   4.789  21.041  0.00  0.00    +0.000 A 
ATOM     20  C   UNL     1       2.963   5.052  20.027  0.00  0.00    +0.000 A 
BRANCH  20  21
ATOM     21  O   UNL     1       3.003   6.320  19.505  0.00  0.00    +0.000 OA
ATOM     22  H   UNL     1       3.274   6.276  18.574  0.00  0.00    +0.000 HD
ENDBRANCH  20  21
ENDBRANCH  11  15
BRANCH   1  24
ATOM     23  N   UNL     1       3.757   2.902  10.545  0.00  0.00    +0.000 NA
ATOM     24  C   UNL     1       4.473   3.266  11.384  0.00  0.00    +0.000 C 
ENDBRANCH   1  24
TORSDOF 3
ENDMDL
MODEL 3
REMARK VINA RESULT:      -7.8      3.425      7.430
REMARK  Name = 
REMARK  3 active torsions:
REMARK  status: ('A' for Active; 'I' for Inactive)
REMARK    1  A    between atoms: C_2  and  C_3
REMARK    2  A    between atoms: C_13  and  C_14
REMARK    3  A    between atoms: C_19  and  O_20
REMARK                            x       y       z     vdW  Elec       q    Type
REMARK                         _______ _______ _______ _____ _____    ______ ____
ROOT
ATOM      1  C   UNL     1       1.828   8.790  18.929  0.00  0.00    +0.000 A 
ATOM      2  C   UNL     1       2.592   8.133  17.970  0.00  0.00    +0.000 A 
ATOM      3  C   UNL     1       3.048   6.851  18.306  0.00  0.00    +0.000 A 
ATOM      4  C   UNL     1       2.710   6.326  19.555  0.00  0.00    +0.000 A 
ATOM      5  C   UNL     1       1.946   7.036  20.471  0.00  0.00    +0.000 A 
ATOM      6  N   UNL     1       1.510   8.274  20.140  0.00  0.00    +0.000 NA
ATOM      7  N   UNL     1       3.266   5.070  19.633  0.00  0.00    +0.000 N 
ATOM      8  C   UNL     1       3.935   4.777  18.479  0.00  0.00    +0.000 A 
ATOM      9  N   UNL     1       4.570   3.619  18.242  0.00  0.00    +0.000 NA
ATOM     10  C   UNL     1       5.164   3.591  17.015  0.00  0.00    +0.000 A 
ATOM     11  C   UNL     1       5.176   4.607  16.047  0.00  0.00    +0.000 A 
ATOM     12  C   UNL     1       4.477   5.780  16.386  0.00  0.00    +0.000 A 
ATOM     13  C   UNL     1       3.833   5.869  17.632  0.00  0.00    +0.000 A 
ATOM     14  H   UNL     1       3.203   4.434  20.414  0.00  0.00    +0.000 HD
ENDROOT
BRANCH  11  15
ATOM     15  C   UNL     1       5.875   4.474  14.739  0.00  0.00    +0.000 A 
ATOM     16  C   UNL     1       5.300   3.708  13.701  0.00  0.00    +0.000 A 
ATOM     17  C   UNL     1       5.903   3.588  12.445  0.00  0.00    +0.000 A 
ATOM     18  C   UNL     1       7.113   4.221  12.192  0.00  0.00    +0.000 A 
ATOM     19  C   UNL     1       7.719   4.973  13.194  0.00  0.00    +0.000 A 
ATOM     20  C   UNL     1       7.105   5.098  14.446  0.00  0.00    +0.000 A 
BRANCH  20  21
ATOM     21  O   UNL     1       7.723   5.876  15.390  0.00  0.00    +0.000 OA
ATOM     22  H   UNL     1       8.686   5.789  15.299  0.00  0.00    +0.000 HD
ENDBRANCH  20  21
ENDBRANCH  11  15
BRANCH   1  24
ATOM     23  N   UNL     1       0.871  11.162  18.461  0.00  0.00    +0.000 NA
ATOM     24  C   UNL     1       1.323  10.109  18.657  0.00  0.00    +0.000 C 
ENDBRANCH   1  24
TORSDOF 3
ENDMDL
MODEL 4
REMARK VINA RESULT:      -7.6      1.373      1.599
REMARK  Name = 
REMARK  3 active torsions:
REMARK  status: ('A' for Active; 'I' for Inactive)
REMARK    1  A    between atoms: C_2  and  C_3
REMARK    2  A    between atoms: C_13  and  C_14
REMARK    3  A    between atoms: C_19  and  O_20
REMARK                            x       y       z     vdW  Elec       q    Type
REMARK                         _______ _______ _______ _____ _____    ______ ____
ROOT
ATOM      1  C   UNL     1       6.341   3.268  12.644  0.00  0.00    +0.000 A 
ATOM      2  C   UNL     1       5.585   3.214  13.810  0.00  0.00    +0.000 A 
ATOM      3  C   UNL     1       5.866   4.184  14.781  0.00  0.00    +0.000 A 
ATOM      4  C   UNL     1       6.864   5.124  14.520  0.00  0.00    +0.000 A 
ATOM      5  C   UNL     1       7.587   5.122  13.336  0.00  0.00    +0.000 A 
ATOM      6  N   UNL     1       7.311   4.183  12.402  0.00  0.00    +0.000 NA
ATOM      7  N   UNL     1       6.937   5.956  15.614  0.00  0.00    +0.000 N 
ATOM      8  C   UNL     1       6.017   5.583  16.553  0.00  0.00    +0.000 A 
ATOM      9  N   UNL     1       5.832   6.209  17.725  0.00  0.00    +0.000 NA
ATOM     10  C   UNL     1       4.858   5.626  18.480  0.00  0.00    +0.000 A 
ATOM     11  C   UNL     1       4.091   4.495  18.161  0.00  0.00    +0.000 A 
ATOM     12  C   UNL     1       4.354   3.913  16.907  0.00  0.00    +0.000 A 
ATOM     13  C   UNL     1       5.340   4.473  16.075  0.00  0.00    +0.000 A 
ATOM     14  H   UNL     1       7.564   6.737  15.733  0.00  0.00    +0.000 HD
ENDROOT
BRANCH  11  15
ATOM     15  C   UNL     1       3.058   3.930  19.074  0.00  0.00    +0.000 A 
ATOM     16  C   UNL     1       3.419   3.479  20.362  0.00  0.00    +0.000 A 
ATOM     17  C   UNL     1       2.476   2.978  21.265  0.00  0.00    +0.000 A 
ATOM     18  C   UNL     1       1.139   2.899  20.900  0.00  0.00    +0.000 A 
ATOM     19  C   UNL     1       0.745   3.320  19.633  0.00  0.00    +0.000 A 
ATOM     20  C   UNL     1       1.692   3.831  18.738  0.00  0.00    +0.000 A 
BRANCH  20  21
ATOM     21  O   UNL     1       1.253   4.263  17.514  0.00  0.00    +0.000 OA
ATOM     22  H   UNL     1       1.710   3.769  16.814  0.00  0.00    +0.000 HD
ENDBRANCH  20  21
ENDBRANCH  11  15
BRANCH   1  24
ATOM     23  N   UNL     1       5.965   1.505  10.771  0.00  0.00    +0.000 NA
ATOM     24  C   UNL     1       6.110   2.307  11.599  0.00  0.00    +0.000 C 
ENDBRANCH   1  24
TORSDOF 3
ENDMDL
MODEL 5
REMARK VINA RESULT:      -7.5      3.934      7.631
REMARK  Name = 
REMARK  3 active torsions:
REMARK  status: ('A' for Active; 'I' for Inactive)
REMARK    1  A    between atoms: C_2  and  C_3
REMARK    2  A    between atoms: C_13  and  C_14
REMARK    3  A    between atoms: C_19  and  O_20
REMARK                            x       y       z     vdW  Elec       q    Type
REMARK                         _______ _______ _______ _____ _____    ______ ____
ROOT
ATOM      1  C   UNL     1       0.990   9.663  19.383  0.00  0.00    +0.000 A 
ATOM      2  C   UNL     1       1.839   8.908  18.581  0.00  0.00    +0.000 A 
ATOM      3  C   UNL     1       2.292   7.696  19.120  0.00  0.00    +0.000 A 
ATOM      4  C   UNL     1       1.868   7.331  20.399  0.00  0.00    +0.000 A 
ATOM      5  C   UNL     1       1.021   8.133  21.152  0.00  0.00    +0.000 A 
ATOM      6  N   UNL     1       0.588   9.302  20.626  0.00  0.00    +0.000 NA
ATOM      7  N   UNL     1       2.441   6.113  20.686  0.00  0.00    +0.000 N 
ATOM      8  C   UNL     1       3.204   5.690  19.635  0.00  0.00    +0.000 A 
ATOM      9  N   UNL     1       3.878   4.531  19.604  0.00  0.00    +0.000 NA
ATOM     10  C   UNL     1       4.566   4.358  18.440  0.00  0.00    +0.000 A 
ATOM     11  C   UNL     1       4.634   5.238  17.348  0.00  0.00    +0.000 A 
ATOM     12  C   UNL     1       3.887   6.424  17.473  0.00  0.00    +0.000 A 
ATOM     13  C   UNL     1       3.146   6.658  18.644  0.00  0.00    +0.000 A 
ATOM     14  H   UNL     1       2.330   5.585  21.539  0.00  0.00    +0.000 HD
ENDROOT
BRANCH  11  15
ATOM     15  C   UNL     1       5.435   4.954  16.126  0.00  0.00    +0.000 A 
ATOM     16  C   UNL     1       4.840   4.306  15.021  0.00  0.00    +0.000 A 
ATOM     17  C   UNL     1       5.545   4.054  13.839  0.00  0.00    +0.000 A 
ATOM     18  C   UNL     1       6.877   4.431  13.731  0.00  0.00    +0.000 A 
ATOM     19  C   UNL     1       7.504   5.059  14.804  0.00  0.00    +0.000 A 
ATOM     20  C   UNL     1       6.790   5.317  15.979  0.00  0.00    +0.000 A 
BRANCH  20  21
ATOM     21  O   UNL     1       7.440   5.967  16.997  0.00  0.00    +0.000 OA
ATOM     22  H   UNL     1       8.175   5.416  17.312  0.00  0.00    +0.000 HD
ENDBRANCH  20  21
ENDBRANCH  11  15
BRANCH   1  24
ATOM     23  N   UNL     1       0.108  11.956  18.533  0.00  0.00    +0.000 NA
ATOM     24  C   UNL     1       0.481  10.919  18.900  0.00  0.00    +0.000 C 
ENDBRANCH   1  24
TORSDOF 3
ENDMDL
MODEL 6
REMARK VINA RESULT:      -7.4      5.466      7.034
REMARK  Name = 
REMARK  3 active torsions:
REMARK  status: ('A' for Active; 'I' for Inactive)
REMARK    1  A    between atoms: C_2  and  C_3
REMARK    2  A    between atoms: C_13  and  C_14
REMARK    3  A    between atoms: C_19  and  O_20
REMARK                            x       y       z     vdW  Elec       q    Type
REMARK                         _______ _______ _______ _____ _____    ______ ____
ROOT
ATOM      1  C   UNL     1       4.993   5.517  16.760  0.00  0.00    +0.000 A 
ATOM      2  C   UNL     1       4.203   6.641  16.976  0.00  0.00    +0.000 A 
ATOM      3  C   UNL     1       3.477   6.672  18.175  0.00  0.00    +0.000 A 
ATOM      4  C   UNL     1       3.594   5.597  19.057  0.00  0.00    +0.000 A 
ATOM      5  C   UNL     1       4.397   4.500  18.780  0.00  0.00    +0.000 A 
ATOM      6  N   UNL     1       5.096   4.475  17.621  0.00  0.00    +0.000 NA
ATOM      7  N   UNL     1       2.797   5.874  20.145  0.00  0.00    +0.000 N 
ATOM      8  C   UNL     1       2.189   7.087  19.988  0.00  0.00    +0.000 A 
ATOM      9  N   UNL     1       1.363   7.644  20.886  0.00  0.00    +0.000 NA
ATOM     10  C   UNL     1       0.886   8.854  20.477  0.00  0.00    +0.000 A 
ATOM     11  C   UNL     1       1.159   9.518  19.271  0.00  0.00    +0.000 A 
ATOM     12  C   UNL     1       2.042   8.856  18.397  0.00  0.00    +0.000 A 
ATOM     13  C   UNL     1       2.578   7.610  18.765  0.00  0.00    +0.000 A 
ATOM     14  H   UNL     1       2.665   5.288  20.955  0.00  0.00    +0.000 HD
ENDROOT
BRANCH  11  15
ATOM     15  C   UNL     1       0.566  10.837  18.918  0.00  0.00    +0.000 A 
ATOM     16  C   UNL     1       1.362  12.003  18.944  0.00  0.00    +0.000 A 
ATOM     17  C   UNL     1       0.857  13.256  18.583  0.00  0.00    +0.000 A 
ATOM     18  C   UNL     1      -0.471  13.385  18.198  0.00  0.00    +0.000 A 
ATOM     19  C   UNL     1      -1.293  12.261  18.173  0.00  0.00    +0.000 A 
ATOM     20  C   UNL     1      -0.777  11.008  18.525  0.00  0.00    +0.000 A 
BRANCH  20  21
ATOM     21  O   UNL     1      -1.615   9.926  18.455  0.00  0.00    +0.000 OA
ATOM     22  H   UNL     1      -1.937   9.826  17.544  0.00  0.00    +0.000 HD
ENDBRANCH  20  21
ENDBRANCH  11  15
BRANCH   1  24
ATOM     23  N   UNL     1       6.438   5.327  14.608  0.00  0.00    +0.000 NA
ATOM     24  C   UNL     1       5.769   5.412  15.554  0.00  0.00    +0.000 C 
ENDBRANCH   1  24
TORSDOF 3
ENDMDL
MODEL 7
REMARK VINA RESULT:      -7.3      5.004      6.820
REMARK  Name = 
REMARK  3 active torsions:
REMARK  status: ('A' for Active; 'I' for Inactive)
REMARK    1  A    between atoms: C_2  and  C_3
REMARK    2  A    between atoms: C_13  and  C_14
REMARK    3  A    between atoms: C_19  and  O_20
REMARK                            x       y       z     vdW  Elec       q    Type
REMARK                         _______ _______ _______ _____ _____    ______ ____
ROOT
ATOM      1  C   UNL     1       4.310   3.984  19.086  0.00  0.00    +0.000 A 
ATOM      2  C   UNL     1       3.509   4.975  19.643  0.00  0.00    +0.000 A 
ATOM      3  C   UNL     1       3.283   6.112  18.855  0.00  0.00    +0.000 A 
ATOM      4  C   UNL     1       3.863   6.174  17.587  0.00  0.00    +0.000 A 
ATOM      5  C   UNL     1       4.658   5.151  17.089  0.00  0.00    +0.000 A 
ATOM      6  N   UNL     1       4.872   4.056  17.854  0.00  0.00    +0.000 NA
ATOM      7  N   UNL     1       3.486   7.372  17.025  0.00  0.00    +0.000 N 
ATOM      8  C   UNL     1       2.684   8.066  17.885  0.00  0.00    +0.000 A 
ATOM      9  N   UNL     1       2.143   9.264  17.619  0.00  0.00    +0.000 NA
ATOM     10  C   UNL     1       1.391   9.739  18.653  0.00  0.00    +0.000 A 
ATOM     11  C   UNL     1       1.161   9.126  19.895  0.00  0.00    +0.000 A 
ATOM     12  C   UNL     1       1.767   7.869  20.076  0.00  0.00    +0.000 A 
ATOM     13  C   UNL     1       2.546   7.318  19.044  0.00  0.00    +0.000 A 
ATOM     14  H   UNL     1       3.746   7.714  16.111  0.00  0.00    +0.000 HD
ENDROOT
BRANCH  11  15
ATOM     15  C   UNL     1       0.332   9.746  20.965  0.00  0.00    +0.000 A 
ATOM     16  C   UNL     1       0.287   9.169  22.254  0.00  0.00    +0.000 A 
ATOM     17  C   UNL     1      -0.447   9.739  23.298  0.00  0.00    +0.000 A 
ATOM     18  C   UNL     1      -1.175  10.902  23.081  0.00  0.00    +0.000 A 
ATOM     19  C   UNL     1      -1.169  11.493  21.821  0.00  0.00    +0.000 A 
ATOM     20  C   UNL     1      -0.422  10.923  20.783  0.00  0.00    +0.000 A 
BRANCH  20  21
ATOM     21  O   UNL     1      -0.421  11.559  19.569  0.00  0.00    +0.000 OA
ATOM     22  H   UNL     1      -1.249  11.364  19.101  0.00  0.00    +0.000 HD
ENDBRANCH  20  21
ENDBRANCH  11  15
BRANCH   1  24
ATOM     23  N   UNL     1       4.859   1.828  20.431  0.00  0.00    +0.000 NA
ATOM     24  C   UNL     1       4.586   2.786  19.832  0.00  0.00    +0.000 C 
ENDBRANCH   1  24
TORSDOF 3
ENDMDL
MODEL 8
REMARK VINA RESULT:      -7.1      5.318      6.913
REMARK  Name = 
REMARK  3 active torsions:
REMARK  status: ('A' for Active; 'I' for Inactive)
REMARK    1  A    between atoms: C_2  and  C_3
REMARK    2  A    between atoms: C_13  and  C_14
REMARK    3  A    between atoms: C_19  and  O_20
REMARK                            x       y       z     vdW  Elec       q    Type
REMARK                         _______ _______ _______ _____ _____    ______ ____
ROOT
ATOM      1  C   UNL     1       5.167   5.512  16.868  0.00  0.00    +0.000 A 
ATOM      2  C   UNL     1       4.279   6.566  17.050  0.00  0.00    +0.000 A 
ATOM      3  C   UNL     1       3.571   6.583  18.260  0.00  0.00    +0.000 A 
ATOM      4  C   UNL     1       3.800   5.563  19.184  0.00  0.00    +0.000 A 
ATOM      5  C   UNL     1       4.698   4.534  18.939  0.00  0.00    +0.000 A 
ATOM      6  N   UNL     1       5.379   4.523  17.770  0.00  0.00    +0.000 NA
ATOM      7  N   UNL     1       2.997   5.813  20.274  0.00  0.00    +0.000 N 
ATOM      8  C   UNL     1       2.277   6.957  20.077  0.00  0.00    +0.000 A 
ATOM      9  N   UNL     1       1.416   7.474  20.966  0.00  0.00    +0.000 NA
ATOM     10  C   UNL     1       0.822   8.616  20.515  0.00  0.00    +0.000 A 
ATOM     11  C   UNL     1       1.015   9.248  19.277  0.00  0.00    +0.000 A 
ATOM     12  C   UNL     1       1.943   8.633  18.416  0.00  0.00    +0.000 A 
ATOM     13  C   UNL     1       2.598   7.459  18.826  0.00  0.00    +0.000 A 
ATOM     14  H   UNL     1       2.932   5.254  21.111  0.00  0.00    +0.000 HD
ENDROOT
BRANCH  11  15
ATOM     15  C   UNL     1       0.297  10.490  18.880  0.00  0.00    +0.000 A 
ATOM     16  C   UNL     1      -0.910  10.411  18.150  0.00  0.00    +0.000 A 
ATOM     17  C   UNL     1      -1.636  11.551  17.790  0.00  0.00    +0.000 A 
ATOM     18  C   UNL     1      -1.168  12.811  18.137  0.00  0.00    +0.000 A 
ATOM     19  C   UNL     1       0.026  12.932  18.843  0.00  0.00    +0.000 A 
ATOM     20  C   UNL     1       0.742  11.787  19.210  0.00  0.00    +0.000 A 
BRANCH  20  21
ATOM     21  O   UNL     1       1.895  11.954  19.933  0.00  0.00    +0.000 OA
ATOM     22  H   UNL     1       2.277  12.825  19.733  0.00  0.00    +0.000 HD
ENDBRANCH  20  21
ENDBRANCH  11  15
BRANCH   1  24
ATOM     23  N   UNL     1       6.563   5.308  14.684  0.00  0.00    +0.000 NA
ATOM     24  C   UNL     1       5.932   5.425  15.653  0.00  0.00    +0.000 C 
ENDBRANCH   1  24
TORSDOF 3
ENDMDL
MODEL 9
REMARK VINA RESULT:      -7.1      4.237      7.774
REMARK  Name = 
REMARK  3 active torsions:
REMARK  status: ('A' for Active; 'I' for Inactive)
REMARK    1  A    between atoms: C_2  and  C_3
REMARK    2  A    between atoms: C_13  and  C_14
REMARK    3  A    between atoms: C_19  and  O_20
REMARK                            x       y       z     vdW  Elec       q    Type
REMARK                         _______ _______ _______ _____ _____    ______ ____
ROOT
ATOM      1  C   UNL     1       0.648  10.205  19.543  0.00  0.00    +0.000 A 
ATOM      2  C   UNL     1       1.552   9.364  18.904  0.00  0.00    +0.000 A 
ATOM      3  C   UNL     1       1.797   8.128  19.518  0.00  0.00    +0.000 A 
ATOM      4  C   UNL     1       1.129   7.827  20.707  0.00  0.00    +0.000 A 
ATOM      5  C   UNL     1       0.240   8.714  21.298  0.00  0.00    +0.000 A 
ATOM      6  N   UNL     1       0.008   9.905  20.700  0.00  0.00    +0.000 NA
ATOM      7  N   UNL     1       1.534   6.570  21.095  0.00  0.00    +0.000 N 
ATOM      8  C   UNL     1       2.425   6.062  20.193  0.00  0.00    +0.000 A 
ATOM      9  N   UNL     1       2.989   4.849  20.285  0.00  0.00    +0.000 NA
ATOM     10  C   UNL     1       3.849   4.594  19.258  0.00  0.00    +0.000 A 
ATOM     11  C   UNL     1       4.181   5.442  18.189  0.00  0.00    +0.000 A 
ATOM     12  C   UNL     1       3.532   6.690  18.177  0.00  0.00    +0.000 A 
ATOM     13  C   UNL     1       2.625   7.011  19.202  0.00  0.00    +0.000 A 
ATOM     14  H   UNL     1       1.232   6.071  21.918  0.00  0.00    +0.000 HD
ENDROOT
BRANCH  11  15
ATOM     15  C   UNL     1       5.152   5.065  17.125  0.00  0.00    +0.000 A 
ATOM     16  C   UNL     1       4.744   5.025  15.773  0.00  0.00    +0.000 A 
ATOM     17  C   UNL     1       5.632   4.714  14.738  0.00  0.00    +0.000 A 
ATOM     18  C   UNL     1       6.957   4.417  15.026  0.00  0.00    +0.000 A 
ATOM     19  C   UNL     1       7.395   4.431  16.348  0.00  0.00    +0.000 A 
ATOM     20  C   UNL     1       6.504   4.754  17.378  0.00  0.00    +0.000 A 
BRANCH  20  21
ATOM     21  O   UNL     1       6.988   4.786  18.660  0.00  0.00    +0.000 OA
ATOM     22  H   UNL     1       6.815   5.660  19.047  0.00  0.00    +0.000 HD
ENDBRANCH  20  21
ENDBRANCH  11  15
BRANCH   1  24
ATOM     23  N   UNL     1       0.119  12.550  18.553  0.00  0.00    +0.000 NA
ATOM     24  C   UNL     1       0.343  11.490  18.973  0.00  0.00    +0.000 C 
ENDBRANCH   1  24
TORSDOF 3
ENDMDL
