MODEL 1
REMARK VINA RESULT:      -8.2      0.000      0.000
REMARK  Name = 
REMARK  7 active torsions:
REMARK  status: ('A' for Active; 'I' for Inactive)
REMARK    1  A    between atoms: C_1  and  O_2
REMARK    2  A    between atoms: O_2  and  C_3
REMARK    3  A    between atoms: C_3  and  C_4
REMARK    4  A    between atoms: C_4  and  N_5
REMARK    5  A    between atoms: C_9  and  C_10
REMARK    6  A    between atoms: C_16  and  C_17
REMARK    7  A    between atoms: C_16  and  C_18
REMARK                            x       y       z     vdW  Elec       q    Type
REMARK                         _______ _______ _______ _____ _____    ______ ____
ROOT
ATOM      1  C   UNL     1       4.737   4.112  17.214  0.00  0.00    +0.000 A 
ATOM      2  N   UNL     1       5.002   3.353  18.260  0.00  0.00    +0.000 NA
ATOM      3  C   UNL     1       3.854   3.343  19.075  0.00  0.00    +0.000 A 
ATOM      4  C   UNL     1       2.891   4.109  18.416  0.00  0.00    +0.000 A 
ATOM      5  N   UNL     1       3.466   4.585  17.277  0.00  0.00    +0.000 N 
ATOM      6  C   UNL     1       1.477   4.461  18.695  0.00  0.00    +0.000 C 
ATOM      7  C   UNL     1       1.006   3.830  20.033  0.00  0.00    +0.000 C 
ATOM      8  C   UNL     1       0.953   2.325  19.184  0.00  0.00    +0.000 C 
ATOM      9  C   UNL     1       1.959   5.042  20.811  0.00  0.00    +0.000 C 
ATOM     10  C   UNL     1       1.346   2.974  21.255  0.00  0.00    +0.000 C 
ATOM     11  N   UNL     1       2.722   2.462  21.254  0.00  0.00    +0.000 N 
ATOM     12  C   UNL     1       3.811   2.558  20.378  0.00  0.00    +0.000 C 
ATOM     13  O   UNL     1       4.813   1.937  20.723  0.00  0.00    +0.000 OA
ATOM     14  H   UNL     1       3.026   5.184  16.593  0.00  0.00    +0.000 HD
ATOM     15  H   UNL     1       2.953   1.887  22.056  0.00  0.00    +0.000 HD
ENDROOT
BRANCH   1  20
ATOM     16  N   UNL     1       6.734   5.107  16.086  0.00  0.00    +0.000 N 
ATOM     17  C   UNL     1       7.269   5.027  14.834  0.00  0.00    +0.000 A 
ATOM     18  N   UNL     1       6.479   4.371  14.009  0.00  0.00    +0.000 NA
ATOM     19  C   UNL     1       5.405   4.004  14.772  0.00  0.00    +0.000 A 
ATOM     20  C   UNL     1       5.555   4.399  16.085  0.00  0.00    +0.000 A 
BRANCH  16  21
ATOM     21  C   UNL     1       7.391   5.743  17.207  0.00  0.00    +0.000 C 
BRANCH  21  22
ATOM     22  C   UNL     1       6.845   7.143  17.440  0.00  0.00    +0.000 C 
BRANCH  22  24
ATOM     23  C   UNL     1       8.212   8.948  18.055  0.00  0.00    +0.000 C 
ATOM     24  O   UNL     1       7.796   8.107  16.987  0.00  0.00    +0.000 OA
ENDBRANCH  22  24
ENDBRANCH  21  22
ENDBRANCH  16  21
ENDBRANCH   1  20
TORSDOF 4
ENDMDL
MODEL 2
REMARK VINA RESULT:      -7.9      0.853      1.074
REMARK  Name = 
REMARK  7 active torsions:
REMARK  status: ('A' for Active; 'I' for Inactive)
REMARK    1  A    between atoms: C_1  and  O_2
REMARK    2  A    between atoms: O_2  and  C_3
REMARK    3  A    between atoms: C_3  and  C_4
REMARK    4  A    between atoms: C_4  and  N_5
REMARK    5  A    between atoms: C_9  and  C_10
REMARK    6  A    between atoms: C_16  and  C_17
REMARK    7  A    between atoms: C_16  and  C_18
REMARK                            x       y       z     vdW  Elec       q    Type
REMARK                         _______ _______ _______ _____ _____    ______ ____
ROOT
ATOM      1  C   UNL     1       4.688   4.118  17.262  0.00  0.00    +0.000 A 
ATOM      2  N   UNL     1       4.981   3.361  18.302  0.00  0.00    +0.000 NA
ATOM      3  C   UNL     1       3.842   3.324  19.130  0.00  0.00    +0.000 A 
ATOM      4  C   UNL     1       2.857   4.071  18.485  0.00  0.00    +0.000 A 
ATOM      5  N   UNL     1       3.408   4.564  17.341  0.00  0.00    +0.000 N 
ATOM      6  C   UNL     1       1.438   4.392  18.782  0.00  0.00    +0.000 C 
ATOM      7  C   UNL     1       0.996   3.747  20.122  0.00  0.00    +0.000 C 
ATOM      8  C   UNL     1       0.966   2.244  19.269  0.00  0.00    +0.000 C 
ATOM      9  C   UNL     1       1.932   4.977  20.894  0.00  0.00    +0.000 C 
ATOM     10  C   UNL     1       1.368   2.894  21.337  0.00  0.00    +0.000 C 
ATOM     11  N   UNL     1       2.755   2.412  21.318  0.00  0.00    +0.000 N 
ATOM     12  C   UNL     1       3.832   2.534  20.431  0.00  0.00    +0.000 C 
ATOM     13  O   UNL     1       4.851   1.934  20.762  0.00  0.00    +0.000 OA
ATOM     14  H   UNL     1       2.947   5.155  16.664  0.00  0.00    +0.000 HD
ATOM     15  H   UNL     1       3.007   1.839  22.116  0.00  0.00    +0.000 HD
ENDROOT
BRANCH   1  20
ATOM     16  N   UNL     1       6.161   5.602  15.891  0.00  0.00    +0.000 N 
ATOM     17  C   UNL     1       6.917   5.433  14.769  0.00  0.00    +0.000 A 
ATOM     18  N   UNL     1       6.722   4.249  14.226  0.00  0.00    +0.000 NA
ATOM     19  C   UNL     1       5.818   3.633  15.046  0.00  0.00    +0.000 A 
ATOM     20  C   UNL     1       5.487   4.426  16.125  0.00  0.00    +0.000 A 
BRANCH  16  21
ATOM     21  C   UNL     1       6.190   6.792  16.714  0.00  0.00    +0.000 C 
BRANCH  21  22
ATOM     22  C   UNL     1       7.487   6.879  17.505  0.00  0.00    +0.000 C 
BRANCH  22  24
ATOM     23  C   UNL     1       7.601   5.700  19.530  0.00  0.00    +0.000 C 
ATOM     24  O   UNL     1       7.755   5.619  18.120  0.00  0.00    +0.000 OA
ENDBRANCH  22  24
ENDBRANCH  21  22
ENDBRANCH  16  21
ENDBRANCH   1  20
TORSDOF 4
ENDMDL
MODEL 3
REMARK VINA RESULT:      -7.9      1.520      2.057
REMARK  Name = 
REMARK  7 active torsions:
REMARK  status: ('A' for Active; 'I' for Inactive)
REMARK    1  A    between atoms: C_1  and  O_2
REMARK    2  A    between atoms: O_2  and  C_3
REMARK    3  A    between atoms: C_3  and  C_4
REMARK    4  A    between atoms: C_4  and  N_5
REMARK    5  A    between atoms: C_9  and  C_10
REMARK    6  A    between atoms: C_16  and  C_17
REMARK    7  A    between atoms: C_16  and  C_18
REMARK                            x       y       z     vdW  Elec       q    Type
REMARK                         _______ _______ _______ _____ _____    ______ ____
ROOT
ATOM      1  C   UNL     1       4.513   4.286  16.928  0.00  0.00    +0.000 A 
ATOM      2  N   UNL     1       3.899   5.184  17.674  0.00  0.00    +0.000 NA
ATOM      3  C   UNL     1       3.066   4.488  18.571  0.00  0.00    +0.000 A 
ATOM      4  C   UNL     1       3.267   3.130  18.328  0.00  0.00    +0.000 A 
ATOM      5  N   UNL     1       4.153   3.031  17.298  0.00  0.00    +0.000 N 
ATOM      6  C   UNL     1       2.748   1.879  18.937  0.00  0.00    +0.000 C 
ATOM      7  C   UNL     1       1.755   2.197  20.086  0.00  0.00    +0.000 C 
ATOM      8  C   UNL     1       3.140   2.634  21.024  0.00  0.00    +0.000 C 
ATOM      9  C   UNL     1       0.630   2.622  18.846  0.00  0.00    +0.000 C 
ATOM     10  C   UNL     1       1.027   3.257  20.917  0.00  0.00    +0.000 C 
ATOM     11  N   UNL     1       1.356   4.635  20.536  0.00  0.00    +0.000 N 
ATOM     12  C   UNL     1       2.203   5.223  19.588  0.00  0.00    +0.000 C 
ATOM     13  O   UNL     1       2.231   6.451  19.603  0.00  0.00    +0.000 OA
ATOM     14  H   UNL     1       4.489   2.174  16.882  0.00  0.00    +0.000 HD
ATOM     15  H   UNL     1       0.884   5.344  21.087  0.00  0.00    +0.000 HD
ENDROOT
BRANCH   1  20
ATOM     16  N   UNL     1       6.833   4.697  16.094  0.00  0.00    +0.000 N 
ATOM     17  C   UNL     1       7.429   4.690  14.868  0.00  0.00    +0.000 A 
ATOM     18  N   UNL     1       6.546   4.552  13.900  0.00  0.00    +0.000 NA
ATOM     19  C   UNL     1       5.341   4.450  14.538  0.00  0.00    +0.000 A 
ATOM     20  C   UNL     1       5.488   4.483  15.910  0.00  0.00    +0.000 A 
BRANCH  16  21
ATOM     21  C   UNL     1       7.556   4.804  17.343  0.00  0.00    +0.000 C 
BRANCH  21  22
ATOM     22  C   UNL     1       7.386   6.185  17.958  0.00  0.00    +0.000 C 
BRANCH  22  24
ATOM     23  C   UNL     1       7.864   8.459  17.632  0.00  0.00    +0.000 C 
ATOM     24  O   UNL     1       7.794   7.179  17.018  0.00  0.00    +0.000 OA
ENDBRANCH  22  24
ENDBRANCH  21  22
ENDBRANCH  16  21
ENDBRANCH   1  20
TORSDOF 4
ENDMDL
MODEL 4
REMARK VINA RESULT:      -7.7      1.862      2.982
REMARK  Name = 
REMARK  7 active torsions:
REMARK  status: ('A' for Active; 'I' for Inactive)
REMARK    1  A    between atoms: C_1  and  O_2
REMARK    2  A    between atoms: O_2  and  C_3
REMARK    3  A    between atoms: C_3  and  C_4
REMARK    4  A    between atoms: C_4  and  N_5
REMARK    5  A    between atoms: C_9  and  C_10
REMARK    6  A    between atoms: C_16  and  C_17
REMARK    7  A    between atoms: C_16  and  C_18
REMARK                            x       y       z     vdW  Elec       q    Type
REMARK                         _______ _______ _______ _____ _____    ______ ____
ROOT
ATOM      1  C   UNL     1       5.273   4.923  18.877  0.00  0.00    +0.000 A 
ATOM      2  N   UNL     1       5.075   3.654  18.573  0.00  0.00    +0.000 NA
ATOM      3  C   UNL     1       3.771   3.321  18.986  0.00  0.00    +0.000 A 
ATOM      4  C   UNL     1       3.209   4.485  19.510  0.00  0.00    +0.000 A 
ATOM      5  N   UNL     1       4.162   5.457  19.445  0.00  0.00    +0.000 N 
ATOM      6  C   UNL     1       1.878   4.836  20.065  0.00  0.00    +0.000 C 
ATOM      7  C   UNL     1       0.936   3.603  20.058  0.00  0.00    +0.000 C 
ATOM      8  C   UNL     1       0.807   3.842  18.351  0.00  0.00    +0.000 C 
ATOM      9  C   UNL     1       1.869   3.022  21.391  0.00  0.00    +0.000 C 
ATOM     10  C   UNL     1       0.740   2.121  19.729  0.00  0.00    +0.000 C 
ATOM     11  N   UNL     1       1.924   1.484  19.140  0.00  0.00    +0.000 N 
ATOM     12  C   UNL     1       3.208   1.920  18.787  0.00  0.00    +0.000 C 
ATOM     13  O   UNL     1       3.924   1.068  18.269  0.00  0.00    +0.000 OA
ATOM     14  H   UNL     1       4.062   6.411  19.761  0.00  0.00    +0.000 HD
ATOM     15  H   UNL     1       1.800   0.505  18.911  0.00  0.00    +0.000 HD
ENDROOT
BRANCH   1  20
ATOM     16  N   UNL     1       6.564   6.634  17.591  0.00  0.00    +0.000 N 
ATOM     17  C   UNL     1       7.732   7.308  17.793  0.00  0.00    +0.000 A 
ATOM     18  N   UNL     1       8.376   6.857  18.850  0.00  0.00    +0.000 NA
ATOM     19  C   UNL     1       7.576   5.868  19.350  0.00  0.00    +0.000 A 
ATOM     20  C   UNL     1       6.412   5.737  18.622  0.00  0.00    +0.000 A 
BRANCH  16  21
ATOM     21  C   UNL     1       5.634   6.932  16.524  0.00  0.00    +0.000 C 
BRANCH  21  22
ATOM     22  C   UNL     1       5.471   5.741  15.591  0.00  0.00    +0.000 C 
BRANCH  22  24
ATOM     23  C   UNL     1       6.591   4.373  14.049  0.00  0.00    +0.000 C 
ATOM     24  O   UNL     1       6.696   5.510  14.896  0.00  0.00    +0.000 OA
ENDBRANCH  22  24
ENDBRANCH  21  22
ENDBRANCH  16  21
ENDBRANCH   1  20
TORSDOF 4
ENDMDL
MODEL 5
REMARK VINA RESULT:      -7.6      1.804      2.449
REMARK  Name = 
REMARK  7 active torsions:
REMARK  status: ('A' for Active; 'I' for Inactive)
REMARK    1  A    between atoms: C_1  and  O_2
REMARK    2  A    between atoms: O_2  and  C_3
REMARK    3  A    between atoms: C_3  and  C_4
REMARK    4  A    between atoms: C_4  and  N_5
REMARK    5  A    between atoms: C_9  and  C_10
REMARK    6  A    between atoms: C_16  and  C_17
REMARK    7  A    between atoms: C_16  and  C_18
REMARK                            x       y       z     vdW  Elec       q    Type
REMARK                         _______ _______ _______ _____ _____    ______ ____
ROOT
ATOM      1  C   UNL     1       4.460   4.261  16.675  0.00  0.00    +0.000 A 
ATOM      2  N   UNL     1       3.839   5.167  17.406  0.00  0.00    +0.000 NA
ATOM      3  C   UNL     1       3.061   4.480  18.357  0.00  0.00    +0.000 A 
ATOM      4  C   UNL     1       3.302   3.120  18.162  0.00  0.00    +0.000 A 
ATOM      5  N   UNL     1       4.157   3.010  17.108  0.00  0.00    +0.000 N 
ATOM      6  C   UNL     1       2.848   1.879  18.837  0.00  0.00    +0.000 C 
ATOM      7  C   UNL     1       1.881   2.209  20.005  0.00  0.00    +0.000 C 
ATOM      8  C   UNL     1       3.280   2.731  20.878  0.00  0.00    +0.000 C 
ATOM      9  C   UNL     1       0.703   2.544  18.788  0.00  0.00    +0.000 C 
ATOM     10  C   UNL     1       1.144   3.276  20.818  0.00  0.00    +0.000 C 
ATOM     11  N   UNL     1       1.410   4.649  20.371  0.00  0.00    +0.000 N 
ATOM     12  C   UNL     1       2.205   5.226  19.372  0.00  0.00    +0.000 C 
ATOM     13  O   UNL     1       2.190   6.453  19.337  0.00  0.00    +0.000 OA
ATOM     14  H   UNL     1       4.510   2.149  16.715  0.00  0.00    +0.000 HD
ATOM     15  H   UNL     1       0.932   5.363  20.909  0.00  0.00    +0.000 HD
ENDROOT
BRANCH   1  20
ATOM     16  N   UNL     1       6.635   5.032  15.716  0.00  0.00    +0.000 N 
ATOM     17  C   UNL     1       7.261   4.884  14.513  0.00  0.00    +0.000 A 
ATOM     18  N   UNL     1       6.480   4.302  13.627  0.00  0.00    +0.000 NA
ATOM     19  C   UNL     1       5.314   4.056  14.298  0.00  0.00    +0.000 A 
ATOM     20  C   UNL     1       5.394   4.449  15.618  0.00  0.00    +0.000 A 
BRANCH  16  21
ATOM     21  C   UNL     1       7.259   5.611  16.886  0.00  0.00    +0.000 C 
BRANCH  21  22
ATOM     22  C   UNL     1       7.894   4.537  17.756  0.00  0.00    +0.000 C 
BRANCH  22  24
ATOM     23  C   UNL     1       6.613   5.527  19.454  0.00  0.00    +0.000 C 
ATOM     24  O   UNL     1       7.871   4.955  19.121  0.00  0.00    +0.000 OA
ENDBRANCH  22  24
ENDBRANCH  21  22
ENDBRANCH  16  21
ENDBRANCH   1  20
TORSDOF 4
ENDMDL
MODEL 6
REMARK VINA RESULT:      -7.6      1.686      2.954
REMARK  Name = 
REMARK  7 active torsions:
REMARK  status: ('A' for Active; 'I' for Inactive)
REMARK    1  A    between atoms: C_1  and  O_2
REMARK    2  A    between atoms: O_2  and  C_3
REMARK    3  A    between atoms: C_3  and  C_4
REMARK    4  A    between atoms: C_4  and  N_5
REMARK    5  A    between atoms: C_9  and  C_10
REMARK    6  A    between atoms: C_16  and  C_17
REMARK    7  A    between atoms: C_16  and  C_18
REMARK                            x       y       z     vdW  Elec       q    Type
REMARK                         _______ _______ _______ _____ _____    ______ ____
ROOT
ATOM      1  C   UNL     1       5.223   4.671  18.087  0.00  0.00    +0.000 A 
ATOM      2  N   UNL     1       5.329   3.770  19.045  0.00  0.00    +0.000 NA
ATOM      3  C   UNL     1       4.040   3.558  19.569  0.00  0.00    +0.000 A 
ATOM      4  C   UNL     1       3.172   4.360  18.828  0.00  0.00    +0.000 A 
ATOM      5  N   UNL     1       3.928   5.049  17.929  0.00  0.00    +0.000 N 
ATOM      6  C   UNL     1       1.703   4.575  18.829  0.00  0.00    +0.000 C 
ATOM      7  C   UNL     1       1.020   3.708  19.919  0.00  0.00    +0.000 C 
ATOM      8  C   UNL     1       1.294   2.360  18.872  0.00  0.00    +0.000 C 
ATOM      9  C   UNL     1       1.665   4.834  21.060  0.00  0.00    +0.000 C 
ATOM     10  C   UNL     1       1.172   2.687  21.050  0.00  0.00    +0.000 C 
ATOM     11  N   UNL     1       2.558   2.267  21.285  0.00  0.00    +0.000 N 
ATOM     12  C   UNL     1       3.795   2.570  20.701  0.00  0.00    +0.000 C 
ATOM     13  O   UNL     1       4.755   1.964  21.170  0.00  0.00    +0.000 OA
ATOM     14  H   UNL     1       3.589   5.723  17.258  0.00  0.00    +0.000 HD
ATOM     15  H   UNL     1       2.667   1.585  22.027  0.00  0.00    +0.000 HD
ENDROOT
BRANCH   1  20
ATOM     16  N   UNL     1       6.550   4.729  15.970  0.00  0.00    +0.000 N 
ATOM     17  C   UNL     1       7.466   5.585  15.433  0.00  0.00    +0.000 A 
ATOM     18  N   UNL     1       7.809   6.526  16.287  0.00  0.00    +0.000 NA
ATOM     19  C   UNL     1       7.068   6.269  17.407  0.00  0.00    +0.000 A 
ATOM     20  C   UNL     1       6.232   5.187  17.226  0.00  0.00    +0.000 A 
BRANCH  16  21
ATOM     21  C   UNL     1       5.968   3.615  15.253  0.00  0.00    +0.000 C 
BRANCH  21  22
ATOM     22  C   UNL     1       5.479   4.044  13.877  0.00  0.00    +0.000 C 
BRANCH  22  24
ATOM     23  C   UNL     1       5.579   2.825  11.875  0.00  0.00    +0.000 C 
ATOM     24  O   UNL     1       6.335   3.495  12.876  0.00  0.00    +0.000 OA
ENDBRANCH  22  24
ENDBRANCH  21  22
ENDBRANCH  16  21
ENDBRANCH   1  20
TORSDOF 4
ENDMDL
MODEL 7
REMARK VINA RESULT:      -7.3      1.048      1.286
REMARK  Name = 
REMARK  7 active torsions:
REMARK  status: ('A' for Active; 'I' for Inactive)
REMARK    1  A    between atoms: C_1  and  O_2
REMARK    2  A    between atoms: O_2  and  C_3
REMARK    3  A    between atoms: C_3  and  C_4
REMARK    4  A    between atoms: C_4  and  N_5
REMARK    5  A    between atoms: C_9  and  C_10
REMARK    6  A    between atoms: C_16  and  C_17
REMARK    7  A    between atoms: C_16  and  C_18
REMARK                            x       y       z     vdW  Elec       q    Type
REMARK                         _______ _______ _______ _____ _____    ______ ____
ROOT
ATOM      1  C   UNL     1       4.703   3.924  17.144  0.00  0.00    +0.000 A 
ATOM      2  N   UNL     1       5.000   3.240  18.233  0.00  0.00    +0.000 NA
ATOM      3  C   UNL     1       3.849   3.218  19.044  0.00  0.00    +0.000 A 
ATOM      4  C   UNL     1       2.853   3.895  18.340  0.00  0.00    +0.000 A 
ATOM      5  N   UNL     1       3.409   4.335  17.177  0.00  0.00    +0.000 N 
ATOM      6  C   UNL     1       1.421   4.190  18.594  0.00  0.00    +0.000 C 
ATOM      7  C   UNL     1       0.975   3.614  19.964  0.00  0.00    +0.000 C 
ATOM      8  C   UNL     1       1.003   2.062  19.203  0.00  0.00    +0.000 C 
ATOM      9  C   UNL     1       1.861   4.915  20.675  0.00  0.00    +0.000 C 
ATOM     10  C   UNL     1       1.351   2.847  21.234  0.00  0.00    +0.000 C 
ATOM     11  N   UNL     1       2.751   2.406  21.266  0.00  0.00    +0.000 N 
ATOM     12  C   UNL     1       3.839   2.507  20.390  0.00  0.00    +0.000 C 
ATOM     13  O   UNL     1       4.869   1.959  20.772  0.00  0.00    +0.000 OA
ATOM     14  H   UNL     1       2.943   4.871  16.459  0.00  0.00    +0.000 HD
ATOM     15  H   UNL     1       3.006   1.890  22.101  0.00  0.00    +0.000 HD
ENDROOT
BRANCH   1  20
ATOM     16  N   UNL     1       6.482   5.156  15.892  0.00  0.00    +0.000 N 
ATOM     17  C   UNL     1       7.115   4.977  14.698  0.00  0.00    +0.000 A 
ATOM     18  N   UNL     1       6.573   3.999  14.003  0.00  0.00    +0.000 NA
ATOM     19  C   UNL     1       5.564   3.525  14.795  0.00  0.00    +0.000 A 
ATOM     20  C   UNL     1       5.512   4.187  16.004  0.00  0.00    +0.000 A 
BRANCH  16  21
ATOM     21  C   UNL     1       6.878   6.139  16.878  0.00  0.00    +0.000 C 
BRANCH  21  22
ATOM     22  C   UNL     1       5.872   7.278  16.950  0.00  0.00    +0.000 C 
BRANCH  22  24
ATOM     23  C   UNL     1       3.647   7.647  17.598  0.00  0.00    +0.000 C 
ATOM     24  O   UNL     1       4.852   6.952  17.894  0.00  0.00    +0.000 OA
ENDBRANCH  22  24
ENDBRANCH  21  22
ENDBRANCH  16  21
ENDBRANCH   1  20
TORSDOF 4
ENDMDL
MODEL 8
REMARK VINA RESULT:      -7.2      3.918      5.761
REMARK  Name = 
REMARK  7 active torsions:
REMARK  status: ('A' for Active; 'I' for Inactive)
REMARK    1  A    between atoms: C_1  and  O_2
REMARK    2  A    between atoms: O_2  and  C_3
REMARK    3  A    between atoms: C_3  and  C_4
REMARK    4  A    between atoms: C_4  and  N_5
REMARK    5  A    between atoms: C_9  and  C_10
REMARK    6  A    between atoms: C_16  and  C_17
REMARK    7  A    between atoms: C_16  and  C_18
REMARK                            x       y       z     vdW  Elec       q    Type
REMARK                         _______ _______ _______ _____ _____    ______ ____
ROOT
ATOM      1  C   UNL     1       2.443   6.828  19.178  0.00  0.00    +0.000 A 
ATOM      2  N   UNL     1       3.694   6.409  19.189  0.00  0.00    +0.000 NA
ATOM      3  C   UNL     1       3.667   5.005  19.295  0.00  0.00    +0.000 A 
ATOM      4  C   UNL     1       2.323   4.632  19.302  0.00  0.00    +0.000 A 
ATOM      5  N   UNL     1       1.586   5.777  19.244  0.00  0.00    +0.000 N 
ATOM      6  C   UNL     1       1.607   3.332  19.344  0.00  0.00    +0.000 C 
ATOM      7  C   UNL     1       2.612   2.152  19.411  0.00  0.00    +0.000 C 
ATOM      8  C   UNL     1       2.922   2.459  17.738  0.00  0.00    +0.000 C 
ATOM      9  C   UNL     1       2.867   2.608  21.057  0.00  0.00    +0.000 C 
ATOM     10  C   UNL     1       4.070   1.690  19.457  0.00  0.00    +0.000 C 
ATOM     11  N   UNL     1       5.040   2.791  19.421  0.00  0.00    +0.000 N 
ATOM     12  C   UNL     1       4.950   4.186  19.336  0.00  0.00    +0.000 C 
ATOM     13  O   UNL     1       6.025   4.777  19.293  0.00  0.00    +0.000 OA
ATOM     14  H   UNL     1       0.578   5.837  19.246  0.00  0.00    +0.000 HD
ATOM     15  H   UNL     1       6.009   2.493  19.443  0.00  0.00    +0.000 HD
ENDROOT
BRANCH   1  20
ATOM     16  N   UNL     1       1.273   8.880  19.994  0.00  0.00    +0.000 N 
ATOM     17  C   UNL     1       1.102  10.144  19.512  0.00  0.00    +0.000 A 
ATOM     18  N   UNL     1       1.560  10.262  18.283  0.00  0.00    +0.000 NA
ATOM     19  C   UNL     1       2.058   9.026  17.977  0.00  0.00    +0.000 A 
ATOM     20  C   UNL     1       1.944   8.154  19.040  0.00  0.00    +0.000 A 
BRANCH  16  21
ATOM     21  C   UNL     1       0.892   8.466  21.327  0.00  0.00    +0.000 C 
BRANCH  21  22
ATOM     22  C   UNL     1       1.474   9.399  22.378  0.00  0.00    +0.000 C 
BRANCH  22  24
ATOM     23  C   UNL     1      -0.645  10.220  22.962  0.00  0.00    +0.000 C 
ATOM     24  O   UNL     1       0.529   9.573  23.434  0.00  0.00    +0.000 OA
ENDBRANCH  22  24
ENDBRANCH  21  22
ENDBRANCH  16  21
ENDBRANCH   1  20
TORSDOF 4
ENDMDL
MODEL 9
REMARK VINA RESULT:      -7.1      2.653      4.011
REMARK  Name = 
REMARK  7 active torsions:
REMARK  status: ('A' for Active; 'I' for Inactive)
REMARK    1  A    between atoms: C_1  and  O_2
REMARK    2  A    between atoms: O_2  and  C_3
REMARK    3  A    between atoms: C_3  and  C_4
REMARK    4  A    between atoms: C_4  and  N_5
REMARK    5  A    between atoms: C_9  and  C_10
REMARK    6  A    between atoms: C_16  and  C_17
REMARK    7  A    between atoms: C_16  and  C_18
REMARK                            x       y       z     vdW  Elec       q    Type
REMARK                         _______ _______ _______ _____ _____    ______ ____
ROOT
ATOM      1  C   UNL     1       4.907   4.384  16.677  0.00  0.00    +0.000 A 
ATOM      2  N   UNL     1       4.163   5.239  17.352  0.00  0.00    +0.000 NA
ATOM      3  C   UNL     1       3.317   4.489  18.192  0.00  0.00    +0.000 A 
ATOM      4  C   UNL     1       3.646   3.149  17.994  0.00  0.00    +0.000 A 
ATOM      5  N   UNL     1       4.621   3.109  17.043  0.00  0.00    +0.000 N 
ATOM      6  C   UNL     1       3.181   1.868  18.585  0.00  0.00    +0.000 C 
ATOM      7  C   UNL     1       2.073   2.120  19.641  0.00  0.00    +0.000 C 
ATOM      8  C   UNL     1       3.335   2.681  20.680  0.00  0.00    +0.000 C 
ATOM      9  C   UNL     1       1.025   2.434  18.304  0.00  0.00    +0.000 C 
ATOM     10  C   UNL     1       1.195   3.127  20.388  0.00  0.00    +0.000 C 
ATOM     11  N   UNL     1       1.442   4.523  20.006  0.00  0.00    +0.000 N 
ATOM     12  C   UNL     1       2.316   5.165  19.119  0.00  0.00    +0.000 C 
ATOM     13  O   UNL     1       2.243   6.391  19.111  0.00  0.00    +0.000 OA
ATOM     14  H   UNL     1       5.058   2.277  16.673  0.00  0.00    +0.000 HD
ATOM     15  H   UNL     1       0.871   5.198  20.502  0.00  0.00    +0.000 HD
ENDROOT
BRANCH   1  20
ATOM     16  N   UNL     1       5.940   4.329  14.402  0.00  0.00    +0.000 N 
ATOM     17  C   UNL     1       7.053   4.880  13.838  0.00  0.00    +0.000 A 
ATOM     18  N   UNL     1       7.808   5.476  14.737  0.00  0.00    +0.000 NA
ATOM     19  C   UNL     1       7.141   5.311  15.919  0.00  0.00    +0.000 A 
ATOM     20  C   UNL     1       5.945   4.646  15.739  0.00  0.00    +0.000 A 
BRANCH  16  21
ATOM     21  C   UNL     1       4.914   3.636  13.653  0.00  0.00    +0.000 C 
BRANCH  21  22
ATOM     22  C   UNL     1       5.341   3.419  12.209  0.00  0.00    +0.000 C 
BRANCH  22  24
ATOM     23  C   UNL     1       3.606   3.638  10.645  0.00  0.00    +0.000 C 
ATOM     24  O   UNL     1       4.302   2.743  11.502  0.00  0.00    +0.000 OA
ENDBRANCH  22  24
ENDBRANCH  21  22
ENDBRANCH  16  21
ENDBRANCH   1  20
TORSDOF 4
ENDMDL
