MODEL 1
REMARK VINA RESULT:      -7.3      0.000      0.000
REMARK  Name = 
REMARK  16 active torsions:
REMARK  status: ('A' for Active; 'I' for Inactive)
REMARK    1  A    between atoms: C_1  and  O_2
REMARK    2  A    between atoms: O_2  and  C_3
REMARK    3  A    between atoms: C_6  and  C_7
REMARK    4  A    between atoms: C_7  and  O_8
REMARK    5  A    between atoms: O_8  and  C_9
REMARK    6  A    between atoms: C_9  and  C_11
REMARK    7  A    between atoms: C_11  and  C_12
REMARK    8  A    between atoms: C_11  and  N_23
REMARK    9  A    between atoms: C_12  and  C_13
REMARK   10  A    between atoms: C_13  and  O_15
REMARK   11  A    between atoms: O_15  and  C_16
REMARK   12  A    between atoms: C_24  and  O_26
REMARK   13  A    between atoms: O_26  and  C_27
REMARK   14  A    between atoms: C_27  and  C_28
REMARK   15  A    between atoms: C_27  and  C_29
REMARK   16  A    between atoms: C_27  and  C_30
REMARK                            x       y       z     vdW  Elec       q    Type
REMARK                         _______ _______ _______ _____ _____    ______ ____
ROOT
ATOM      1  C   UNL     1       0.257  10.552  19.616  0.00  0.00    +0.000 C 
ENDROOT
BRANCH   1   2
ATOM      2  N   UNL     1      -0.434  10.824  18.359  0.00  0.00    +0.000 N 
ATOM      3  C   UNL     1      -1.638  11.486  18.343  0.00  0.00    +0.000 C 
ATOM      4  O   UNL     1      -2.189  11.887  19.356  0.00  0.00    +0.000 OA
ATOM      5  H   UNL     1      -0.054  10.525  17.472  0.00  0.00    +0.000 HD
BRANCH   3   6
ATOM      6  O   UNL     1      -2.092  11.627  17.072  0.00  0.00    +0.000 OA
BRANCH   6   7
ATOM      7  C   UNL     1      -3.247  10.840  16.652  0.00  0.00    +0.000 C 
ATOM      8  C   UNL     1      -4.550  11.643  16.785  0.00  0.00    +0.000 C 
ATOM      9  C   UNL     1      -3.039  10.525  15.160  0.00  0.00    +0.000 C 
ATOM     10  C   UNL     1      -3.315   9.505  17.407  0.00  0.00    +0.000 C 
ENDBRANCH   6   7
ENDBRANCH   3   6
ENDBRANCH   1   2
BRANCH   1  11
ATOM     11  C   UNL     1       0.960  11.729  20.292  0.00  0.00    +0.000 C 
ATOM     12  O   UNL     1       1.620  12.554  19.668  0.00  0.00    +0.000 OA
BRANCH  11  13
ATOM     13  O   UNL     1       0.768  11.736  21.635  0.00  0.00    +0.000 OA
BRANCH  13  14
ATOM     14  C   UNL     1      -0.465  11.157  22.081  0.00  0.00    +0.000 C 
BRANCH  14  18
ATOM     15  C   UNL     1      -2.812  14.169  24.104  0.00  0.00    +0.000 A 
ATOM     16  C   UNL     1      -3.341  12.899  23.870  0.00  0.00    +0.000 A 
ATOM     17  C   UNL     1      -2.583  11.919  23.224  0.00  0.00    +0.000 A 
ATOM     18  C   UNL     1      -1.290  12.209  22.770  0.00  0.00    +0.000 A 
ATOM     19  C   UNL     1      -0.771  13.491  22.985  0.00  0.00    +0.000 A 
ATOM     20  C   UNL     1      -1.517  14.456  23.671  0.00  0.00    +0.000 A 
BRANCH  15  22
ATOM     21  C   UNL     1      -4.782  15.496  23.955  0.00  0.00    +0.000 C 
ATOM     22  O   UNL     1      -3.664  15.047  24.713  0.00  0.00    +0.000 OA
ENDBRANCH  15  22
ENDBRANCH  14  18
ENDBRANCH  13  14
ENDBRANCH  11  13
ENDBRANCH   1  11
BRANCH   1  23
ATOM     23  C   UNL     1       1.201   9.359  19.540  0.00  0.00    +0.000 C 
BRANCH  23  24
ATOM     24  C   UNL     1       1.838   9.149  18.191  0.00  0.00    +0.000 C 
ATOM     25  O   UNL     1       2.202  10.078  17.485  0.00  0.00    +0.000 OA
BRANCH  24  26
ATOM     26  O   UNL     1       1.855   7.834  17.845  0.00  0.00    +0.000 OA
BRANCH  26  27
ATOM     27  C   UNL     1       2.866   6.968  18.436  0.00  0.00    +0.000 C 
ATOM     28  C   UNL     1       2.338   5.603  18.890  0.00  0.00    +0.000 C 
ATOM     29  C   UNL     1       2.068   4.638  17.748  0.00  0.00    +0.000 C 
ATOM     30  C   UNL     1       3.276   3.747  17.480  0.00  0.00    +0.000 C 
ATOM     31  C   UNL     1       4.473   4.443  16.839  0.00  0.00    +0.000 C 
ATOM     32  C   UNL     1       4.970   5.702  17.546  0.00  0.00    +0.000 C 
ATOM     33  C   UNL     1       4.012   6.889  17.404  0.00  0.00    +0.000 C 
ENDBRANCH  26  27
ENDBRANCH  24  26
ENDBRANCH  23  24
ENDBRANCH   1  23
TORSDOF 12
ENDMDL
MODEL 2
REMARK VINA RESULT:      -7.1      4.598      8.560
REMARK  Name = 
REMARK  16 active torsions:
REMARK  status: ('A' for Active; 'I' for Inactive)
REMARK    1  A    between atoms: C_1  and  O_2
REMARK    2  A    between atoms: O_2  and  C_3
REMARK    3  A    between atoms: C_6  and  C_7
REMARK    4  A    between atoms: C_7  and  O_8
REMARK    5  A    between atoms: O_8  and  C_9
REMARK    6  A    between atoms: C_9  and  C_11
REMARK    7  A    between atoms: C_11  and  C_12
REMARK    8  A    between atoms: C_11  and  N_23
REMARK    9  A    between atoms: C_12  and  C_13
REMARK   10  A    between atoms: C_13  and  O_15
REMARK   11  A    between atoms: O_15  and  C_16
REMARK   12  A    between atoms: C_24  and  O_26
REMARK   13  A    between atoms: O_26  and  C_27
REMARK   14  A    between atoms: C_27  and  C_28
REMARK   15  A    between atoms: C_27  and  C_29
REMARK   16  A    between atoms: C_27  and  C_30
REMARK                            x       y       z     vdW  Elec       q    Type
REMARK                         _______ _______ _______ _____ _____    ______ ____
ROOT
ATOM      1  C   UNL     1       6.047   4.904  17.012  0.00  0.00    +0.000 C 
ENDROOT
BRANCH   1   2
ATOM      2  N   UNL     1       6.393   3.999  15.919  0.00  0.00    +0.000 N 
ATOM      3  C   UNL     1       5.855   4.166  14.665  0.00  0.00    +0.000 C 
ATOM      4  O   UNL     1       5.078   5.068  14.391  0.00  0.00    +0.000 OA
ATOM      5  H   UNL     1       7.025   3.223  16.056  0.00  0.00    +0.000 HD
BRANCH   3   6
ATOM      6  O   UNL     1       6.316   3.216  13.814  0.00  0.00    +0.000 OA
BRANCH   6   7
ATOM      7  C   UNL     1       6.266   3.479  12.380  0.00  0.00    +0.000 C 
ATOM      8  C   UNL     1       7.154   4.674  12.000  0.00  0.00    +0.000 C 
ATOM      9  C   UNL     1       6.839   2.229  11.688  0.00  0.00    +0.000 C 
ATOM     10  C   UNL     1       4.821   3.660  11.898  0.00  0.00    +0.000 C 
ENDBRANCH   6   7
ENDBRANCH   3   6
ENDBRANCH   1   2
BRANCH   1  11
ATOM     11  C   UNL     1       6.395   6.381  16.828  0.00  0.00    +0.000 C 
ATOM     12  O   UNL     1       7.472   6.757  16.378  0.00  0.00    +0.000 OA
BRANCH  11  13
ATOM     13  O   UNL     1       5.386   7.197  17.225  0.00  0.00    +0.000 OA
BRANCH  13  14
ATOM     14  C   UNL     1       4.066   6.660  17.066  0.00  0.00    +0.000 C 
BRANCH  14  18
ATOM     15  C   UNL     1       1.345   8.917  19.551  0.00  0.00    +0.000 A 
ATOM     16  C   UNL     1       1.889   7.716  20.007  0.00  0.00    +0.000 A 
ATOM     17  C   UNL     1       2.775   6.987  19.212  0.00  0.00    +0.000 A 
ATOM     18  C   UNL     1       3.105   7.436  17.927  0.00  0.00    +0.000 A 
ATOM     19  C   UNL     1       2.540   8.629  17.462  0.00  0.00    +0.000 A 
ATOM     20  C   UNL     1       1.686   9.377  18.279  0.00  0.00    +0.000 A 
BRANCH  15  22
ATOM     21  C   UNL     1      -0.103   8.701  21.428  0.00  0.00    +0.000 C 
ATOM     22  O   UNL     1       0.465   9.517  20.409  0.00  0.00    +0.000 OA
ENDBRANCH  15  22
ENDBRANCH  14  18
ENDBRANCH  13  14
ENDBRANCH  11  13
ENDBRANCH   1  11
BRANCH   1  23
ATOM     23  C   UNL     1       6.535   4.421  18.372  0.00  0.00    +0.000 C 
BRANCH  23  24
ATOM     24  C   UNL     1       5.457   4.302  19.417  0.00  0.00    +0.000 C 
ATOM     25  O   UNL     1       4.881   5.274  19.882  0.00  0.00    +0.000 OA
BRANCH  24  26
ATOM     26  O   UNL     1       5.296   3.014  19.824  0.00  0.00    +0.000 OA
BRANCH  26  27
ATOM     27  C   UNL     1       4.033   2.344  19.543  0.00  0.00    +0.000 C 
ATOM     28  C   UNL     1       3.036   2.369  20.707  0.00  0.00    +0.000 C 
ATOM     29  C   UNL     1       2.364   3.716  20.911  0.00  0.00    +0.000 C 
ATOM     30  C   UNL     1       1.037   3.791  20.163  0.00  0.00    +0.000 C 
ATOM     31  C   UNL     1       1.146   3.881  18.644  0.00  0.00    +0.000 C 
ATOM     32  C   UNL     1       1.999   2.807  17.972  0.00  0.00    +0.000 C 
ATOM     33  C   UNL     1       3.498   2.976  18.241  0.00  0.00    +0.000 C 
ENDBRANCH  26  27
ENDBRANCH  24  26
ENDBRANCH  23  24
ENDBRANCH   1  23
TORSDOF 12
ENDMDL
MODEL 3
REMARK VINA RESULT:      -7.0      3.928      8.292
REMARK  Name = 
REMARK  16 active torsions:
REMARK  status: ('A' for Active; 'I' for Inactive)
REMARK    1  A    between atoms: C_1  and  O_2
REMARK    2  A    between atoms: O_2  and  C_3
REMARK    3  A    between atoms: C_6  and  C_7
REMARK    4  A    between atoms: C_7  and  O_8
REMARK    5  A    between atoms: O_8  and  C_9
REMARK    6  A    between atoms: C_9  and  C_11
REMARK    7  A    between atoms: C_11  and  C_12
REMARK    8  A    between atoms: C_11  and  N_23
REMARK    9  A    between atoms: C_12  and  C_13
REMARK   10  A    between atoms: C_13  and  O_15
REMARK   11  A    between atoms: O_15  and  C_16
REMARK   12  A    between atoms: C_24  and  O_26
REMARK   13  A    between atoms: O_26  and  C_27
REMARK   14  A    between atoms: C_27  and  C_28
REMARK   15  A    between atoms: C_27  and  C_29
REMARK   16  A    between atoms: C_27  and  C_30
REMARK                            x       y       z     vdW  Elec       q    Type
REMARK                         _______ _______ _______ _____ _____    ______ ____
ROOT
ATOM      1  C   UNL     1       5.163   5.157  16.473  0.00  0.00    +0.000 C 
ENDROOT
BRANCH   1   2
ATOM      2  N   UNL     1       5.330   4.188  15.393  0.00  0.00    +0.000 N 
ATOM      3  C   UNL     1       6.514   4.098  14.701  0.00  0.00    +0.000 C 
ATOM      4  O   UNL     1       7.482   4.800  14.946  0.00  0.00    +0.000 OA
ATOM      5  H   UNL     1       4.580   3.569  15.120  0.00  0.00    +0.000 HD
BRANCH   3   6
ATOM      6  O   UNL     1       6.441   3.134  13.749  0.00  0.00    +0.000 OA
BRANCH   6   7
ATOM      7  C   UNL     1       6.331   3.540  12.351  0.00  0.00    +0.000 C 
ATOM      8  C   UNL     1       7.173   4.792  12.064  0.00  0.00    +0.000 C 
ATOM      9  C   UNL     1       6.908   2.383  11.516  0.00  0.00    +0.000 C 
ATOM     10  C   UNL     1       4.864   3.727  11.941  0.00  0.00    +0.000 C 
ENDBRANCH   6   7
ENDBRANCH   3   6
ENDBRANCH   1   2
BRANCH   1  11
ATOM     11  C   UNL     1       4.889   6.605  16.072  0.00  0.00    +0.000 C 
ATOM     12  O   UNL     1       5.213   7.063  14.981  0.00  0.00    +0.000 OA
BRANCH  11  13
ATOM     13  O   UNL     1       4.266   7.300  17.057  0.00  0.00    +0.000 OA
BRANCH  13  14
ATOM     14  C   UNL     1       2.889   6.961  17.267  0.00  0.00    +0.000 C 
BRANCH  14  18
ATOM     15  C   UNL     1       1.069   9.783  19.987  0.00  0.00    +0.000 A 
ATOM     16  C   UNL     1       1.303  10.133  18.656  0.00  0.00    +0.000 A 
ATOM     17  C   UNL     1       1.883   9.222  17.771  0.00  0.00    +0.000 A 
ATOM     18  C   UNL     1       2.270   7.952  18.217  0.00  0.00    +0.000 A 
ATOM     19  C   UNL     1       2.057   7.612  19.558  0.00  0.00    +0.000 A 
ATOM     20  C   UNL     1       1.436   8.513  20.429  0.00  0.00    +0.000 A 
BRANCH  15  22
ATOM     21  C   UNL     1       0.139  10.425  22.082  0.00  0.00    +0.000 C 
ATOM     22  O   UNL     1       0.528  10.774  20.759  0.00  0.00    +0.000 OA
ENDBRANCH  15  22
ENDBRANCH  14  18
ENDBRANCH  13  14
ENDBRANCH  11  13
ENDBRANCH   1  11
BRANCH   1  23
ATOM     23  C   UNL     1       6.282   5.107  17.505  0.00  0.00    +0.000 C 
BRANCH  23  24
ATOM     24  C   UNL     1       5.834   4.748  18.898  0.00  0.00    +0.000 C 
ATOM     25  O   UNL     1       6.394   5.173  19.899  0.00  0.00    +0.000 OA
BRANCH  24  26
ATOM     26  O   UNL     1       4.821   3.841  18.880  0.00  0.00    +0.000 OA
BRANCH  26  27
ATOM     27  C   UNL     1       3.451   4.320  19.001  0.00  0.00    +0.000 C 
ATOM     28  C   UNL     1       2.465   3.656  18.034  0.00  0.00    +0.000 C 
ATOM     29  C   UNL     1       2.085   2.237  18.422  0.00  0.00    +0.000 C 
ATOM     30  C   UNL     1       0.813   2.215  19.262  0.00  0.00    +0.000 C 
ATOM     31  C   UNL     1       0.959   2.749  20.684  0.00  0.00    +0.000 C 
ATOM     32  C   UNL     1       1.579   4.139  20.814  0.00  0.00    +0.000 C 
ATOM     33  C   UNL     1       3.076   4.160  20.490  0.00  0.00    +0.000 C 
ENDBRANCH  26  27
ENDBRANCH  24  26
ENDBRANCH  23  24
ENDBRANCH   1  23
TORSDOF 12
ENDMDL
MODEL 4
REMARK VINA RESULT:      -7.0      2.869      4.568
REMARK  Name = 
REMARK  16 active torsions:
REMARK  status: ('A' for Active; 'I' for Inactive)
REMARK    1  A    between atoms: C_1  and  O_2
REMARK    2  A    between atoms: O_2  and  C_3
REMARK    3  A    between atoms: C_6  and  C_7
REMARK    4  A    between atoms: C_7  and  O_8
REMARK    5  A    between atoms: O_8  and  C_9
REMARK    6  A    between atoms: C_9  and  C_11
REMARK    7  A    between atoms: C_11  and  C_12
REMARK    8  A    between atoms: C_11  and  N_23
REMARK    9  A    between atoms: C_12  and  C_13
REMARK   10  A    between atoms: C_13  and  O_15
REMARK   11  A    between atoms: O_15  and  C_16
REMARK   12  A    between atoms: C_24  and  O_26
REMARK   13  A    between atoms: O_26  and  C_27
REMARK   14  A    between atoms: C_27  and  C_28
REMARK   15  A    between atoms: C_27  and  C_29
REMARK   16  A    between atoms: C_27  and  C_30
REMARK                            x       y       z     vdW  Elec       q    Type
REMARK                         _______ _______ _______ _____ _____    ______ ____
ROOT
ATOM      1  C   UNL     1       0.335  10.533  19.562  0.00  0.00    +0.000 C 
ENDROOT
BRANCH   1   2
ATOM      2  N   UNL     1      -0.375  10.802  18.315  0.00  0.00    +0.000 N 
ATOM      3  C   UNL     1      -1.578  11.467  18.315  0.00  0.00    +0.000 C 
ATOM      4  O   UNL     1      -2.112  11.874  19.336  0.00  0.00    +0.000 OA
ATOM      5  H   UNL     1      -0.009  10.499  17.424  0.00  0.00    +0.000 HD
BRANCH   3   6
ATOM      6  O   UNL     1      -2.051  11.605  17.052  0.00  0.00    +0.000 OA
BRANCH   6   7
ATOM      7  C   UNL     1      -3.209  10.814  16.649  0.00  0.00    +0.000 C 
ATOM      8  C   UNL     1      -4.506  11.631  16.746  0.00  0.00    +0.000 C 
ATOM      9  C   UNL     1      -2.992  10.448  15.170  0.00  0.00    +0.000 C 
ATOM     10  C   UNL     1      -3.293   9.506  17.447  0.00  0.00    +0.000 C 
ENDBRANCH   6   7
ENDBRANCH   3   6
ENDBRANCH   1   2
BRANCH   1  11
ATOM     11  C   UNL     1       1.071  11.704  20.211  0.00  0.00    +0.000 C 
ATOM     12  O   UNL     1       1.111  11.872  21.425  0.00  0.00    +0.000 OA
BRANCH  11  13
ATOM     13  O   UNL     1       1.650  12.517  19.291  0.00  0.00    +0.000 OA
BRANCH  13  14
ATOM     14  C   UNL     1       1.163  13.865  19.271  0.00  0.00    +0.000 C 
BRANCH  14  18
ATOM     15  C   UNL     1       4.462  16.614  18.791  0.00  0.00    +0.000 A 
ATOM     16  C   UNL     1       4.422  15.423  18.065  0.00  0.00    +0.000 A 
ATOM     17  C   UNL     1       3.354  14.535  18.210  0.00  0.00    +0.000 A 
ATOM     18  C   UNL     1       2.321  14.812  19.115  0.00  0.00    +0.000 A 
ATOM     19  C   UNL     1       2.376  15.996  19.860  0.00  0.00    +0.000 A 
ATOM     20  C   UNL     1       3.426  16.902  19.679  0.00  0.00    +0.000 A 
BRANCH  15  22
ATOM     21  C   UNL     1       6.537  17.419  19.633  0.00  0.00    +0.000 C 
ATOM     22  O   UNL     1       5.576  17.380  18.585  0.00  0.00    +0.000 OA
ENDBRANCH  15  22
ENDBRANCH  14  18
ENDBRANCH  13  14
ENDBRANCH  11  13
ENDBRANCH   1  11
BRANCH   1  23
ATOM     23  C   UNL     1       1.256   9.322  19.482  0.00  0.00    +0.000 C 
BRANCH  23  24
ATOM     24  C   UNL     1       1.861   9.083  18.124  0.00  0.00    +0.000 C 
ATOM     25  O   UNL     1       2.207   9.997  17.388  0.00  0.00    +0.000 OA
BRANCH  24  26
ATOM     26  O   UNL     1       1.872   7.761  17.806  0.00  0.00    +0.000 OA
BRANCH  26  27
ATOM     27  C   UNL     1       2.891   6.907  18.402  0.00  0.00    +0.000 C 
ATOM     28  C   UNL     1       2.373   5.544  18.872  0.00  0.00    +0.000 C 
ATOM     29  C   UNL     1       2.105   4.565  17.741  0.00  0.00    +0.000 C 
ATOM     30  C   UNL     1       3.317   3.680  17.477  0.00  0.00    +0.000 C 
ATOM     31  C   UNL     1       4.508   4.376  16.824  0.00  0.00    +0.000 C 
ATOM     32  C   UNL     1       5.000   5.645  17.517  0.00  0.00    +0.000 C 
ATOM     33  C   UNL     1       4.033   6.824  17.367  0.00  0.00    +0.000 C 
ENDBRANCH  26  27
ENDBRANCH  24  26
ENDBRANCH  23  24
ENDBRANCH   1  23
TORSDOF 12
ENDMDL
MODEL 5
REMARK VINA RESULT:      -6.9      4.229     10.913
REMARK  Name = 
REMARK  16 active torsions:
REMARK  status: ('A' for Active; 'I' for Inactive)
REMARK    1  A    between atoms: C_1  and  O_2
REMARK    2  A    between atoms: O_2  and  C_3
REMARK    3  A    between atoms: C_6  and  C_7
REMARK    4  A    between atoms: C_7  and  O_8
REMARK    5  A    between atoms: O_8  and  C_9
REMARK    6  A    between atoms: C_9  and  C_11
REMARK    7  A    between atoms: C_11  and  C_12
REMARK    8  A    between atoms: C_11  and  N_23
REMARK    9  A    between atoms: C_12  and  C_13
REMARK   10  A    between atoms: C_13  and  O_15
REMARK   11  A    between atoms: O_15  and  C_16
REMARK   12  A    between atoms: C_24  and  O_26
REMARK   13  A    between atoms: O_26  and  C_27
REMARK   14  A    between atoms: C_27  and  C_28
REMARK   15  A    between atoms: C_27  and  C_29
REMARK   16  A    between atoms: C_27  and  C_30
REMARK                            x       y       z     vdW  Elec       q    Type
REMARK                         _______ _______ _______ _____ _____    ______ ____
ROOT
ATOM      1  C   UNL     1       4.618   5.752  17.896  0.00  0.00    +0.000 C 
ENDROOT
BRANCH   1   2
ATOM      2  N   UNL     1       4.226   4.987  19.077  0.00  0.00    +0.000 N 
ATOM      3  C   UNL     1       3.926   3.649  18.986  0.00  0.00    +0.000 C 
ATOM      4  O   UNL     1       3.974   3.027  17.935  0.00  0.00    +0.000 OA
ATOM      5  H   UNL     1       4.156   5.420  19.986  0.00  0.00    +0.000 HD
BRANCH   3   6
ATOM      6  O   UNL     1       3.591   3.147  20.201  0.00  0.00    +0.000 OA
BRANCH   6   7
ATOM      7  C   UNL     1       2.213   3.287  20.659  0.00  0.00    +0.000 C 
ATOM      8  C   UNL     1       1.864   4.755  20.944  0.00  0.00    +0.000 C 
ATOM      9  C   UNL     1       1.319   2.807  19.501  0.00  0.00    +0.000 C 
ATOM     10  C   UNL     1       1.936   2.385  21.869  0.00  0.00    +0.000 C 
ENDBRANCH   6   7
ENDBRANCH   3   6
ENDBRANCH   1   2
BRANCH   1  11
ATOM     11  C   UNL     1       6.108   6.031  17.711  0.00  0.00    +0.000 C 
ATOM     12  O   UNL     1       6.912   5.978  18.636  0.00  0.00    +0.000 OA
BRANCH  11  13
ATOM     13  O   UNL     1       6.415   6.344  16.427  0.00  0.00    +0.000 OA
BRANCH  13  14
ATOM     14  C   UNL     1       7.429   5.531  15.823  0.00  0.00    +0.000 C 
BRANCH  14  18
ATOM     15  C   UNL     1       5.755   3.514  12.388  0.00  0.00    +0.000 A 
ATOM     16  C   UNL     1       5.079   3.511  13.609  0.00  0.00    +0.000 A 
ATOM     17  C   UNL     1       5.612   4.169  14.720  0.00  0.00    +0.000 A 
ATOM     18  C   UNL     1       6.852   4.813  14.633  0.00  0.00    +0.000 A 
ATOM     19  C   UNL     1       7.539   4.795  13.414  0.00  0.00    +0.000 A 
ATOM     20  C   UNL     1       6.981   4.171  12.293  0.00  0.00    +0.000 A 
BRANCH  15  22
ATOM     21  C   UNL     1       3.782   3.111  11.119  0.00  0.00    +0.000 C 
ATOM     22  O   UNL     1       5.145   2.807  11.389  0.00  0.00    +0.000 OA
ENDBRANCH  15  22
ENDBRANCH  14  18
ENDBRANCH  13  14
ENDBRANCH  11  13
ENDBRANCH   1  11
BRANCH   1  23
ATOM     23  C   UNL     1       3.823   7.039  17.720  0.00  0.00    +0.000 C 
BRANCH  23  24
ATOM     24  C   UNL     1       2.327   6.862  17.763  0.00  0.00    +0.000 C 
ATOM     25  O   UNL     1       1.794   5.763  17.723  0.00  0.00    +0.000 OA
BRANCH  24  26
ATOM     26  O   UNL     1       1.682   8.059  17.752  0.00  0.00    +0.000 OA
BRANCH  26  27
ATOM     27  C   UNL     1       1.905   8.985  18.855  0.00  0.00    +0.000 C 
ATOM     28  C   UNL     1       1.228  10.348  18.678  0.00  0.00    +0.000 C 
ATOM     29  C   UNL     1      -0.275  10.321  18.902  0.00  0.00    +0.000 C 
ATOM     30  C   UNL     1      -0.625  10.669  20.345  0.00  0.00    +0.000 C 
ATOM     31  C   UNL     1      -0.276   9.603  21.379  0.00  0.00    +0.000 C 
ATOM     32  C   UNL     1       1.166   9.099  21.357  0.00  0.00    +0.000 C 
ATOM     33  C   UNL     1       1.480   8.232  20.134  0.00  0.00    +0.000 C 
ENDBRANCH  26  27
ENDBRANCH  24  26
ENDBRANCH  23  24
ENDBRANCH   1  23
TORSDOF 12
ENDMDL
MODEL 6
REMARK VINA RESULT:      -6.9      4.010      8.333
REMARK  Name = 
REMARK  16 active torsions:
REMARK  status: ('A' for Active; 'I' for Inactive)
REMARK    1  A    between atoms: C_1  and  O_2
REMARK    2  A    between atoms: O_2  and  C_3
REMARK    3  A    between atoms: C_6  and  C_7
REMARK    4  A    between atoms: C_7  and  O_8
REMARK    5  A    between atoms: O_8  and  C_9
REMARK    6  A    between atoms: C_9  and  C_11
REMARK    7  A    between atoms: C_11  and  C_12
REMARK    8  A    between atoms: C_11  and  N_23
REMARK    9  A    between atoms: C_12  and  C_13
REMARK   10  A    between atoms: C_13  and  O_15
REMARK   11  A    between atoms: O_15  and  C_16
REMARK   12  A    between atoms: C_24  and  O_26
REMARK   13  A    between atoms: O_26  and  C_27
REMARK   14  A    between atoms: C_27  and  C_28
REMARK   15  A    between atoms: C_27  and  C_29
REMARK   16  A    between atoms: C_27  and  C_30
REMARK                            x       y       z     vdW  Elec       q    Type
REMARK                         _______ _______ _______ _____ _____    ______ ____
ROOT
ATOM      1  C   UNL     1       5.285   5.101  16.831  0.00  0.00    +0.000 C 
ENDROOT
BRANCH   1   2
ATOM      2  N   UNL     1       5.253   4.235  15.656  0.00  0.00    +0.000 N 
ATOM      3  C   UNL     1       6.392   3.988  14.928  0.00  0.00    +0.000 C 
ATOM      4  O   UNL     1       7.481   4.461  15.218  0.00  0.00    +0.000 OA
ATOM      5  H   UNL     1       4.396   3.804  15.341  0.00  0.00    +0.000 HD
BRANCH   3   6
ATOM      6  O   UNL     1       6.128   3.160  13.887  0.00  0.00    +0.000 OA
BRANCH   6   7
ATOM      7  C   UNL     1       6.343   3.653  12.530  0.00  0.00    +0.000 C 
ATOM      8  C   UNL     1       7.045   2.602  11.658  0.00  0.00    +0.000 C 
ATOM      9  C   UNL     1       4.947   3.904  11.933  0.00  0.00    +0.000 C 
ATOM     10  C   UNL     1       7.096   4.990  12.538  0.00  0.00    +0.000 C 
ENDBRANCH   6   7
ENDBRANCH   3   6
ENDBRANCH   1   2
BRANCH   1  11
ATOM     11  C   UNL     1       5.343   6.608  16.583  0.00  0.00    +0.000 C 
ATOM     12  O   UNL     1       6.391   7.202  16.354  0.00  0.00    +0.000 OA
BRANCH  11  13
ATOM     13  O   UNL     1       4.117   7.185  16.655  0.00  0.00    +0.000 OA
BRANCH  13  14
ATOM     14  C   UNL     1       3.206   6.575  17.579  0.00  0.00    +0.000 C 
BRANCH  14  18
ATOM     15  C   UNL     1       0.997   9.626  19.697  0.00  0.00    +0.000 A 
ATOM     16  C   UNL     1       1.310   9.788  18.347  0.00  0.00    +0.000 A 
ATOM     17  C   UNL     1       2.016   8.801  17.656  0.00  0.00    +0.000 A 
ATOM     18  C   UNL     1       2.452   7.647  18.318  0.00  0.00    +0.000 A 
ATOM     19  C   UNL     1       2.157   7.497  19.679  0.00  0.00    +0.000 A 
ATOM     20  C   UNL     1       1.413   8.469  20.356  0.00  0.00    +0.000 A 
BRANCH  15  22
ATOM     21  C   UNL     1      -0.096  11.719  19.398  0.00  0.00    +0.000 C 
ATOM     22  O   UNL     1       0.334  10.677  20.267  0.00  0.00    +0.000 OA
ENDBRANCH  15  22
ENDBRANCH  14  18
ENDBRANCH  13  14
ENDBRANCH  11  13
ENDBRANCH   1  11
BRANCH   1  23
ATOM     23  C   UNL     1       6.347   4.701  17.846  0.00  0.00    +0.000 C 
BRANCH  23  24
ATOM     24  C   UNL     1       5.949   4.907  19.285  0.00  0.00    +0.000 C 
ATOM     25  O   UNL     1       6.769   5.046  20.181  0.00  0.00    +0.000 OA
BRANCH  24  26
ATOM     26  O   UNL     1       4.602   4.817  19.448  0.00  0.00    +0.000 OA
BRANCH  26  27
ATOM     27  C   UNL     1       4.026   3.533  19.826  0.00  0.00    +0.000 C 
ATOM     28  C   UNL     1       2.997   3.615  20.959  0.00  0.00    +0.000 C 
ATOM     29  C   UNL     1       1.653   4.178  20.527  0.00  0.00    +0.000 C 
ATOM     30  C   UNL     1       0.688   3.065  20.133  0.00  0.00    +0.000 C 
ATOM     31  C   UNL     1       1.008   2.355  18.820  0.00  0.00    +0.000 C 
ATOM     32  C   UNL     1       2.429   1.810  18.686  0.00  0.00    +0.000 C 
ATOM     33  C   UNL     1       3.481   2.912  18.523  0.00  0.00    +0.000 C 
ENDBRANCH  26  27
ENDBRANCH  24  26
ENDBRANCH  23  24
ENDBRANCH   1  23
TORSDOF 12
ENDMDL
MODEL 7
REMARK VINA RESULT:      -6.8      0.961      1.740
REMARK  Name = 
REMARK  16 active torsions:
REMARK  status: ('A' for Active; 'I' for Inactive)
REMARK    1  A    between atoms: C_1  and  O_2
REMARK    2  A    between atoms: O_2  and  C_3
REMARK    3  A    between atoms: C_6  and  C_7
REMARK    4  A    between atoms: C_7  and  O_8
REMARK    5  A    between atoms: O_8  and  C_9
REMARK    6  A    between atoms: C_9  and  C_11
REMARK    7  A    between atoms: C_11  and  C_12
REMARK    8  A    between atoms: C_11  and  N_23
REMARK    9  A    between atoms: C_12  and  C_13
REMARK   10  A    between atoms: C_13  and  O_15
REMARK   11  A    between atoms: O_15  and  C_16
REMARK   12  A    between atoms: C_24  and  O_26
REMARK   13  A    between atoms: O_26  and  C_27
REMARK   14  A    between atoms: C_27  and  C_28
REMARK   15  A    between atoms: C_27  and  C_29
REMARK   16  A    between atoms: C_27  and  C_30
REMARK                            x       y       z     vdW  Elec       q    Type
REMARK                         _______ _______ _______ _____ _____    ______ ____
ROOT
ATOM      1  C   UNL     1       0.373  10.724  19.446  0.00  0.00    +0.000 C 
ENDROOT
BRANCH   1   2
ATOM      2  N   UNL     1      -0.343  10.812  18.176  0.00  0.00    +0.000 N 
ATOM      3  C   UNL     1      -1.513  11.526  18.073  0.00  0.00    +0.000 C 
ATOM      4  O   UNL     1      -2.011  12.125  19.014  0.00  0.00    +0.000 OA
ATOM      5  H   UNL     1      -0.007  10.345  17.347  0.00  0.00    +0.000 HD
BRANCH   3   6
ATOM      6  O   UNL     1      -2.000  11.471  16.808  0.00  0.00    +0.000 OA
BRANCH   6   7
ATOM      7  C   UNL     1      -3.157  10.623  16.541  0.00  0.00    +0.000 C 
ATOM      8  C   UNL     1      -3.292   9.513  17.594  0.00  0.00    +0.000 C 
ATOM      9  C   UNL     1      -4.395  11.531  16.652  0.00  0.00    +0.000 C 
ATOM     10  C   UNL     1      -3.116  10.060  15.114  0.00  0.00    +0.000 C 
ENDBRANCH   6   7
ENDBRANCH   3   6
ENDBRANCH   1   2
BRANCH   1  11
ATOM     11  C   UNL     1       1.418  11.801  19.731  0.00  0.00    +0.000 C 
ATOM     12  O   UNL     1       2.170  12.240  18.868  0.00  0.00    +0.000 OA
BRANCH  11  13
ATOM     13  O   UNL     1       1.409  12.191  21.031  0.00  0.00    +0.000 OA
BRANCH  13  14
ATOM     14  C   UNL     1       1.070  13.565  21.256  0.00  0.00    +0.000 C 
BRANCH  14  18
ATOM     15  C   UNL     1      -2.517  13.784  23.655  0.00  0.00    +0.000 A 
ATOM     16  C   UNL     1      -2.087  12.563  23.136  0.00  0.00    +0.000 A 
ATOM     17  C   UNL     1      -0.923  12.485  22.367  0.00  0.00    +0.000 A 
ATOM     18  C   UNL     1      -0.189  13.642  22.077  0.00  0.00    +0.000 A 
ATOM     19  C   UNL     1      -0.636  14.870  22.579  0.00  0.00    +0.000 A 
ATOM     20  C   UNL     1      -1.777  14.935  23.384  0.00  0.00    +0.000 A 
BRANCH  15  22
ATOM     21  C   UNL     1      -4.210  12.442  24.653  0.00  0.00    +0.000 C 
ATOM     22  O   UNL     1      -3.686  13.732  24.362  0.00  0.00    +0.000 OA
ENDBRANCH  15  22
ENDBRANCH  14  18
ENDBRANCH  13  14
ENDBRANCH  11  13
ENDBRANCH   1  11
BRANCH   1  23
ATOM     23  C   UNL     1       0.963   9.345  19.710  0.00  0.00    +0.000 C 
BRANCH  23  24
ATOM     24  C   UNL     1       1.837   8.815  18.603  0.00  0.00    +0.000 C 
ATOM     25  O   UNL     1       1.886   9.335  17.498  0.00  0.00    +0.000 OA
BRANCH  24  26
ATOM     26  O   UNL     1       2.462   7.663  18.967  0.00  0.00    +0.000 OA
BRANCH  26  27
ATOM     27  C   UNL     1       2.830   6.709  17.929  0.00  0.00    +0.000 C 
ATOM     28  C   UNL     1       4.337   6.452  17.817  0.00  0.00    +0.000 C 
ATOM     29  C   UNL     1       4.895   5.578  18.927  0.00  0.00    +0.000 C 
ATOM     30  C   UNL     1       4.917   4.110  18.517  0.00  0.00    +0.000 C 
ATOM     31  C   UNL     1       3.552   3.433  18.433  0.00  0.00    +0.000 C 
ATOM     32  C   UNL     1       2.507   4.142  17.574  0.00  0.00    +0.000 C 
ATOM     33  C   UNL     1       1.994   5.441  18.203  0.00  0.00    +0.000 C 
ENDBRANCH  26  27
ENDBRANCH  24  26
ENDBRANCH  23  24
ENDBRANCH   1  23
TORSDOF 12
ENDMDL
MODEL 8
REMARK VINA RESULT:      -6.7      4.068      8.194
REMARK  Name = 
REMARK  16 active torsions:
REMARK  status: ('A' for Active; 'I' for Inactive)
REMARK    1  A    between atoms: C_1  and  O_2
REMARK    2  A    between atoms: O_2  and  C_3
REMARK    3  A    between atoms: C_6  and  C_7
REMARK    4  A    between atoms: C_7  and  O_8
REMARK    5  A    between atoms: O_8  and  C_9
REMARK    6  A    between atoms: C_9  and  C_11
REMARK    7  A    between atoms: C_11  and  C_12
REMARK    8  A    between atoms: C_11  and  N_23
REMARK    9  A    between atoms: C_12  and  C_13
REMARK   10  A    between atoms: C_13  and  O_15
REMARK   11  A    between atoms: O_15  and  C_16
REMARK   12  A    between atoms: C_24  and  O_26
REMARK   13  A    between atoms: O_26  and  C_27
REMARK   14  A    between atoms: C_27  and  C_28
REMARK   15  A    between atoms: C_27  and  C_29
REMARK   16  A    between atoms: C_27  and  C_30
REMARK                            x       y       z     vdW  Elec       q    Type
REMARK                         _______ _______ _______ _____ _____    ______ ____
ROOT
ATOM      1  C   UNL     1       7.039   6.445  17.285  0.00  0.00    +0.000 C 
ENDROOT
BRANCH   1   2
ATOM      2  N   UNL     1       7.619   7.332  18.289  0.00  0.00    +0.000 N 
ATOM      3  C   UNL     1       8.288   8.475  17.921  0.00  0.00    +0.000 C 
ATOM      4  O   UNL     1       8.427   8.818  16.757  0.00  0.00    +0.000 OA
ATOM      5  H   UNL     1       7.556   7.126  19.276  0.00  0.00    +0.000 HD
BRANCH   3   6
ATOM      6  O   UNL     1       8.739   9.141  19.014  0.00  0.00    +0.000 OA
BRANCH   6   7
ATOM      7  C   UNL     1       9.125  10.541  18.869  0.00  0.00    +0.000 C 
ATOM      8  C   UNL     1       8.087  11.325  18.053  0.00  0.00    +0.000 C 
ATOM      9  C   UNL     1       9.152  11.133  20.289  0.00  0.00    +0.000 C 
ATOM     10  C   UNL     1      10.537  10.670  18.281  0.00  0.00    +0.000 C 
ENDBRANCH   6   7
ENDBRANCH   3   6
ENDBRANCH   1   2
BRANCH   1  11
ATOM     11  C   UNL     1       5.695   6.858  16.686  0.00  0.00    +0.000 C 
ATOM     12  O   UNL     1       5.465   6.816  15.482  0.00  0.00    +0.000 OA
BRANCH  11  13
ATOM     13  O   UNL     1       4.819   7.274  17.635  0.00  0.00    +0.000 OA
BRANCH  13  14
ATOM     14  C   UNL     1       3.434   7.132  17.294  0.00  0.00    +0.000 C 
BRANCH  14  18
ATOM     15  C   UNL     1       0.996   9.427  20.026  0.00  0.00    +0.000 A 
ATOM     16  C   UNL     1       1.279   9.915  18.750  0.00  0.00    +0.000 A 
ATOM     17  C   UNL     1       2.059   9.173  17.860  0.00  0.00    +0.000 A 
ATOM     18  C   UNL     1       2.598   7.941  18.249  0.00  0.00    +0.000 A 
ATOM     19  C   UNL     1       2.333   7.465  19.539  0.00  0.00    +0.000 A 
ATOM     20  C   UNL     1       1.515   8.191  20.411  0.00  0.00    +0.000 A 
BRANCH  15  22
ATOM     21  C   UNL     1      -0.149   9.767  22.085  0.00  0.00    +0.000 C 
ATOM     22  O   UNL     1       0.250  10.261  20.812  0.00  0.00    +0.000 OA
ENDBRANCH  15  22
ENDBRANCH  14  18
ENDBRANCH  13  14
ENDBRANCH  11  13
ENDBRANCH   1  11
BRANCH   1  23
ATOM     23  C   UNL     1       6.985   4.989  17.726  0.00  0.00    +0.000 C 
BRANCH  23  24
ATOM     24  C   UNL     1       6.460   4.776  19.122  0.00  0.00    +0.000 C 
ATOM     25  O   UNL     1       6.939   5.337  20.097  0.00  0.00    +0.000 OA
BRANCH  24  26
ATOM     26  O   UNL     1       5.483   3.830  19.151  0.00  0.00    +0.000 OA
BRANCH  26  27
ATOM     27  C   UNL     1       4.104   4.242  18.921  0.00  0.00    +0.000 C 
ATOM     28  C   UNL     1       3.420   3.522  17.754  0.00  0.00    +0.000 C 
ATOM     29  C   UNL     1       3.022   2.089  18.065  0.00  0.00    +0.000 C 
ATOM     30  C   UNL     1       1.584   2.011  18.566  0.00  0.00    +0.000 C 
ATOM     31  C   UNL     1       1.348   2.564  19.969  0.00  0.00    +0.000 C 
ATOM     32  C   UNL     1       1.853   3.984  20.219  0.00  0.00    +0.000 C 
ATOM     33  C   UNL     1       3.381   4.077  20.274  0.00  0.00    +0.000 C 
ENDBRANCH  26  27
ENDBRANCH  24  26
ENDBRANCH  23  24
ENDBRANCH   1  23
TORSDOF 12
ENDMDL
MODEL 9
REMARK VINA RESULT:      -6.7      4.494      8.786
REMARK  Name = 
REMARK  16 active torsions:
REMARK  status: ('A' for Active; 'I' for Inactive)
REMARK    1  A    between atoms: C_1  and  O_2
REMARK    2  A    between atoms: O_2  and  C_3
REMARK    3  A    between atoms: C_6  and  C_7
REMARK    4  A    between atoms: C_7  and  O_8
REMARK    5  A    between atoms: O_8  and  C_9
REMARK    6  A    between atoms: C_9  and  C_11
REMARK    7  A    between atoms: C_11  and  C_12
REMARK    8  A    between atoms: C_11  and  N_23
REMARK    9  A    between atoms: C_12  and  C_13
REMARK   10  A    between atoms: C_13  and  O_15
REMARK   11  A    between atoms: O_15  and  C_16
REMARK   12  A    between atoms: C_24  and  O_26
REMARK   13  A    between atoms: O_26  and  C_27
REMARK   14  A    between atoms: C_27  and  C_28
REMARK   15  A    between atoms: C_27  and  C_29
REMARK   16  A    between atoms: C_27  and  C_30
REMARK                            x       y       z     vdW  Elec       q    Type
REMARK                         _______ _______ _______ _____ _____    ______ ____
ROOT
ATOM      1  C   UNL     1       6.508   4.996  16.686  0.00  0.00    +0.000 C 
ENDROOT
BRANCH   1   2
ATOM      2  N   UNL     1       7.007   4.293  15.507  0.00  0.00    +0.000 N 
ATOM      3  C   UNL     1       6.151   3.875  14.517  0.00  0.00    +0.000 C 
ATOM      4  O   UNL     1       4.945   4.067  14.557  0.00  0.00    +0.000 OA
ATOM      5  H   UNL     1       7.989   4.087  15.392  0.00  0.00    +0.000 HD
BRANCH   3   6
ATOM      6  O   UNL     1       6.832   3.249  13.525  0.00  0.00    +0.000 OA
BRANCH   6   7
ATOM      7  C   UNL     1       6.459   3.525  12.141  0.00  0.00    +0.000 C 
ATOM      8  C   UNL     1       4.936   3.647  11.985  0.00  0.00    +0.000 C 
ATOM      9  C   UNL     1       7.080   4.888  11.787  0.00  0.00    +0.000 C 
ATOM     10  C   UNL     1       7.052   2.479  11.187  0.00  0.00    +0.000 C 
ENDBRANCH   6   7
ENDBRANCH   3   6
ENDBRANCH   1   2
BRANCH   1  11
ATOM     11  C   UNL     1       6.765   6.500  16.760  0.00  0.00    +0.000 C 
ATOM     12  O   UNL     1       7.888   6.973  16.906  0.00  0.00    +0.000 OA
BRANCH  11  13
ATOM     13  O   UNL     1       5.621   7.220  16.655  0.00  0.00    +0.000 OA
BRANCH  13  14
ATOM     14  C   UNL     1       4.409   6.470  16.807  0.00  0.00    +0.000 C 
BRANCH  14  18
ATOM     15  C   UNL     1       1.645   8.624  19.337  0.00  0.00    +0.000 A 
ATOM     16  C   UNL     1       2.081   9.178  18.133  0.00  0.00    +0.000 A 
ATOM     17  C   UNL     1       2.967   8.482  17.307  0.00  0.00    +0.000 A 
ATOM     18  C   UNL     1       3.459   7.230  17.695  0.00  0.00    +0.000 A 
ATOM     19  C   UNL     1       3.039   6.687  18.914  0.00  0.00    +0.000 A 
ATOM     20  C   UNL     1       2.118   7.368  19.717  0.00  0.00    +0.000 A 
BRANCH  15  22
ATOM     21  C   UNL     1       0.623  10.755  19.617  0.00  0.00    +0.000 C 
ATOM     22  O   UNL     1       0.806   9.418  20.068  0.00  0.00    +0.000 OA
ENDBRANCH  15  22
ENDBRANCH  14  18
ENDBRANCH  13  14
ENDBRANCH  11  13
ENDBRANCH   1  11
BRANCH   1  23
ATOM     23  C   UNL     1       6.910   4.334  17.997  0.00  0.00    +0.000 C 
BRANCH  23  24
ATOM     24  C   UNL     1       6.337   4.984  19.229  0.00  0.00    +0.000 C 
ATOM     25  O   UNL     1       7.025   5.609  20.023  0.00  0.00    +0.000 OA
BRANCH  24  26
ATOM     26  O   UNL     1       5.015   4.701  19.375  0.00  0.00    +0.000 OA
BRANCH  26  27
ATOM     27  C   UNL     1       4.579   3.315  19.262  0.00  0.00    +0.000 C 
ATOM     28  C   UNL     1       3.924   2.756  20.529  0.00  0.00    +0.000 C 
ATOM     29  C   UNL     1       2.511   3.262  20.764  0.00  0.00    +0.000 C 
ATOM     30  C   UNL     1       1.477   2.312  20.171  0.00  0.00    +0.000 C 
ATOM     31  C   UNL     1       1.403   2.293  18.646  0.00  0.00    +0.000 C 
ATOM     32  C   UNL     1       2.725   2.060  17.918  0.00  0.00    +0.000 C 
ATOM     33  C   UNL     1       3.680   3.254  18.008  0.00  0.00    +0.000 C 
ENDBRANCH  26  27
ENDBRANCH  24  26
ENDBRANCH  23  24
ENDBRANCH   1  23
TORSDOF 12
ENDMDL
