MODEL 1
REMARK VINA RESULT:      -7.7      0.000      0.000
REMARK  Name = 
REMARK  6 active torsions:
REMARK  status: ('A' for Active; 'I' for Inactive)
REMARK    1  A    between atoms: C_2  and  C_29
REMARK    2  A    between atoms: N_3  and  C_4
REMARK    3  A    between atoms: C_6  and  C_7
REMARK    4  A    between atoms: C_15  and  N_16
REMARK    5  A    between atoms: N_19  and  C_20
REMARK    6  A    between atoms: C_20  and  C_21
REMARK                            x       y       z     vdW  Elec       q    Type
REMARK                         _______ _______ _______ _____ _____    ______ ____
ROOT
ATOM      1  C   UNL     1       0.752  10.894  20.246  0.00  0.00    +0.000 A 
ATOM      2  C   UNL     1       1.518   9.756  19.941  0.00  0.00    +0.000 A 
ATOM      3  C   UNL     1       1.224   8.497  20.475  0.00  0.00    +0.000 A 
ATOM      4  C   UNL     1       0.206   8.446  21.431  0.00  0.00    +0.000 A 
ATOM      5  C   UNL     1      -0.562   9.579  21.740  0.00  0.00    +0.000 A 
ATOM      6  C   UNL     1      -0.359  10.825  21.121  0.00  0.00    +0.000 A 
ENDROOT
BRANCH   3   7
ATOM      7  C   UNL     1       1.892   7.273  19.970  0.00  0.00    +0.000 A 
ATOM      8  C   UNL     1       2.554   7.243  18.729  0.00  0.00    +0.000 A 
ATOM      9  C   UNL     1       3.060   6.052  18.199  0.00  0.00    +0.000 A 
ATOM     10  C   UNL     1       2.943   4.863  18.912  0.00  0.00    +0.000 A 
ATOM     11  C   UNL     1       2.327   4.868  20.157  0.00  0.00    +0.000 A 
ATOM     12  C   UNL     1       1.804   6.055  20.677  0.00  0.00    +0.000 A 
ENDBRANCH   3   7
BRANCH   6  13
ATOM     13  N   UNL     1      -1.183  11.892  21.455  0.00  0.00    +0.000 N 
ATOM     14  C   UNL     1      -2.261  12.361  20.561  0.00  0.00    +0.000 C 
ATOM     15  C   UNL     1      -3.551  12.715  21.354  0.00  0.00    +0.000 C 
ATOM     16  N   UNL     1      -3.364  13.581  22.545  0.00  0.00    +0.000 NA
ATOM     17  C   UNL     1      -2.322  12.951  23.388  0.00  0.00    +0.000 C 
ATOM     18  C   UNL     1      -0.986  12.685  22.672  0.00  0.00    +0.000 C 
BRANCH  16  19
ATOM     19  C   UNL     1      -3.033  14.960  22.143  0.00  0.00    +0.000 C 
BRANCH  19  20
ATOM     20  C   UNL     1      -3.178  15.987  23.247  0.00  0.00    +0.000 A 
ATOM     21  C   UNL     1      -2.145  16.900  23.512  0.00  0.00    +0.000 A 
ATOM     22  C   UNL     1      -2.284  17.865  24.511  0.00  0.00    +0.000 A 
ATOM     23  C   UNL     1      -3.462  17.928  25.257  0.00  0.00    +0.000 A 
ATOM     24  C   UNL     1      -4.493  17.024  25.010  0.00  0.00    +0.000 A 
ATOM     25  C   UNL     1      -4.352  16.056  24.011  0.00  0.00    +0.000 A 
ENDBRANCH  19  20
ENDBRANCH  16  19
ENDBRANCH   6  13
BRANCH   1  28
ATOM     26  O   UNL     1       2.357  13.046  21.120  0.00  0.00    +0.000 OA
ATOM     27  C   UNL     1       1.834  13.085  20.016  0.00  0.00    +0.000 C 
ATOM     28  N   UNL     1       1.047  12.059  19.503  0.00  0.00    +0.000 N 
ATOM     29  H   UNL     1       0.435  12.223  18.711  0.00  0.00    +0.000 HD
BRANCH  27  30
ATOM     30  C   UNL     1       1.984  14.303  19.134  0.00  0.00    +0.000 A 
ATOM     31  C   UNL     1       3.148  14.434  18.352  0.00  0.00    +0.000 A 
ATOM     32  C   UNL     1       3.395  15.585  17.615  0.00  0.00    +0.000 A 
ATOM     33  C   UNL     1       2.505  16.647  17.688  0.00  0.00    +0.000 A 
ATOM     34  C   UNL     1       1.331  16.552  18.449  0.00  0.00    +0.000 A 
ATOM     35  C   UNL     1       0.485  17.668  18.547  0.00  0.00    +0.000 A 
ATOM     36  C   UNL     1      -0.719  17.600  19.240  0.00  0.00    +0.000 A 
ATOM     37  C   UNL     1      -1.117  16.396  19.801  0.00  0.00    +0.000 A 
ATOM     38  C   UNL     1      -0.266  15.289  19.749  0.00  0.00    +0.000 A 
ATOM     39  C   UNL     1       1.006  15.344  19.124  0.00  0.00    +0.000 A 
ENDBRANCH  27  30
ENDBRANCH   1  28
TORSDOF 6
ENDMDL
MODEL 2
REMARK VINA RESULT:      -7.6      2.188      7.158
REMARK  Name = 
REMARK  6 active torsions:
REMARK  status: ('A' for Active; 'I' for Inactive)
REMARK    1  A    between atoms: C_2  and  C_29
REMARK    2  A    between atoms: N_3  and  C_4
REMARK    3  A    between atoms: C_6  and  C_7
REMARK    4  A    between atoms: C_15  and  N_16
REMARK    5  A    between atoms: N_19  and  C_20
REMARK    6  A    between atoms: C_20  and  C_21
REMARK                            x       y       z     vdW  Elec       q    Type
REMARK                         _______ _______ _______ _____ _____    ______ ____
ROOT
ATOM      1  C   UNL     1       1.861  13.448  19.880  0.00  0.00    +0.000 A 
ATOM      2  C   UNL     1       3.083  13.866  19.329  0.00  0.00    +0.000 A 
ATOM      3  C   UNL     1       3.382  15.218  19.123  0.00  0.00    +0.000 A 
ATOM      4  C   UNL     1       2.354  16.129  19.373  0.00  0.00    +0.000 A 
ATOM      5  C   UNL     1       1.130  15.717  19.923  0.00  0.00    +0.000 A 
ATOM      6  C   UNL     1       0.859  14.377  20.250  0.00  0.00    +0.000 A 
ENDROOT
BRANCH   3   7
ATOM      7  C   UNL     1       4.751  15.655  18.759  0.00  0.00    +0.000 A 
ATOM      8  C   UNL     1       5.634  14.824  18.046  0.00  0.00    +0.000 A 
ATOM      9  C   UNL     1       6.967  15.188  17.828  0.00  0.00    +0.000 A 
ATOM     10  C   UNL     1       7.443  16.411  18.293  0.00  0.00    +0.000 A 
ATOM     11  C   UNL     1       6.584  17.270  18.967  0.00  0.00    +0.000 A 
ATOM     12  C   UNL     1       5.258  16.896  19.202  0.00  0.00    +0.000 A 
ENDBRANCH   3   7
BRANCH   6  13
ATOM     13  N   UNL     1      -0.364  14.052  20.824  0.00  0.00    +0.000 N 
ATOM     14  C   UNL     1      -1.573  13.814  20.012  0.00  0.00    +0.000 C 
ATOM     15  C   UNL     1      -2.396  12.609  20.547  0.00  0.00    +0.000 C 
ATOM     16  N   UNL     1      -2.664  12.602  22.007  0.00  0.00    +0.000 NA
ATOM     17  C   UNL     1      -1.362  12.763  22.694  0.00  0.00    +0.000 C 
ATOM     18  C   UNL     1      -0.562  14.010  22.276  0.00  0.00    +0.000 C 
BRANCH  16  19
ATOM     19  C   UNL     1      -3.645  13.643  22.364  0.00  0.00    +0.000 C 
BRANCH  19  20
ATOM     20  C   UNL     1      -5.054  13.129  22.581  0.00  0.00    +0.000 A 
ATOM     21  C   UNL     1      -5.603  13.079  23.872  0.00  0.00    +0.000 A 
ATOM     22  C   UNL     1      -6.909  12.631  24.074  0.00  0.00    +0.000 A 
ATOM     23  C   UNL     1      -7.682  12.228  22.985  0.00  0.00    +0.000 A 
ATOM     24  C   UNL     1      -7.148  12.266  21.699  0.00  0.00    +0.000 A 
ATOM     25  C   UNL     1      -5.839  12.712  21.497  0.00  0.00    +0.000 A 
ENDBRANCH  19  20
ENDBRANCH  16  19
ENDBRANCH   6  13
BRANCH   1  28
ATOM     26  O   UNL     1       0.404  11.517  18.423  0.00  0.00    +0.000 OA
ATOM     27  C   UNL     1       1.004  11.190  19.436  0.00  0.00    +0.000 C 
ATOM     28  N   UNL     1       1.761  12.075  20.199  0.00  0.00    +0.000 N 
ATOM     29  H   UNL     1       2.032  11.839  21.147  0.00  0.00    +0.000 HD
BRANCH  27  30
ATOM     30  C   UNL     1       0.925   9.774  19.957  0.00  0.00    +0.000 A 
ATOM     31  C   UNL     1       0.164   9.520  21.114  0.00  0.00    +0.000 A 
ATOM     32  C   UNL     1       0.151   8.263  21.706  0.00  0.00    +0.000 A 
ATOM     33  C   UNL     1       0.939   7.251  21.177  0.00  0.00    +0.000 A 
ATOM     34  C   UNL     1       1.704   7.463  20.021  0.00  0.00    +0.000 A 
ATOM     35  C   UNL     1       2.535   6.434  19.551  0.00  0.00    +0.000 A 
ATOM     36  C   UNL     1       3.264   6.579  18.374  0.00  0.00    +0.000 A 
ATOM     37  C   UNL     1       3.129   7.737  17.626  0.00  0.00    +0.000 A 
ATOM     38  C   UNL     1       2.340   8.786  18.103  0.00  0.00    +0.000 A 
ATOM     39  C   UNL     1       1.648   8.709  19.339  0.00  0.00    +0.000 A 
ENDBRANCH  27  30
ENDBRANCH   1  28
TORSDOF 6
ENDMDL
MODEL 3
REMARK VINA RESULT:      -7.6      1.389      2.455
REMARK  Name = 
REMARK  6 active torsions:
REMARK  status: ('A' for Active; 'I' for Inactive)
REMARK    1  A    between atoms: C_2  and  C_29
REMARK    2  A    between atoms: N_3  and  C_4
REMARK    3  A    between atoms: C_6  and  C_7
REMARK    4  A    between atoms: C_15  and  N_16
REMARK    5  A    between atoms: N_19  and  C_20
REMARK    6  A    between atoms: C_20  and  C_21
REMARK                            x       y       z     vdW  Elec       q    Type
REMARK                         _______ _______ _______ _____ _____    ______ ____
ROOT
ATOM      1  C   UNL     1       0.407  11.564  21.341  0.00  0.00    +0.000 A 
ATOM      2  C   UNL     1       1.156  10.538  20.743  0.00  0.00    +0.000 A 
ATOM      3  C   UNL     1       0.931   9.187  21.031  0.00  0.00    +0.000 A 
ATOM      4  C   UNL     1       0.008   8.910  22.042  0.00  0.00    +0.000 A 
ATOM      5  C   UNL     1      -0.744   9.931  22.644  0.00  0.00    +0.000 A 
ATOM      6  C   UNL     1      -0.617  11.283  22.278  0.00  0.00    +0.000 A 
ENDROOT
BRANCH   3   7
ATOM      7  C   UNL     1       1.566   8.113  20.229  0.00  0.00    +0.000 A 
ATOM      8  C   UNL     1       2.003   8.329  18.909  0.00  0.00    +0.000 A 
ATOM      9  C   UNL     1       2.473   7.278  18.114  0.00  0.00    +0.000 A 
ATOM     10  C   UNL     1       2.544   5.988  18.630  0.00  0.00    +0.000 A 
ATOM     11  C   UNL     1       2.154   5.751  19.942  0.00  0.00    +0.000 A 
ATOM     12  C   UNL     1       1.667   6.797  20.729  0.00  0.00    +0.000 A 
ENDBRANCH   3   7
BRANCH   6  13
ATOM     13  N   UNL     1      -1.421  12.232  22.895  0.00  0.00    +0.000 N 
ATOM     14  C   UNL     1      -0.950  13.606  23.162  0.00  0.00    +0.000 C 
ATOM     15  C   UNL     1      -2.054  14.659  22.865  0.00  0.00    +0.000 C 
ATOM     16  N   UNL     1      -3.391  14.379  23.446  0.00  0.00    +0.000 NA
ATOM     17  C   UNL     1      -3.773  13.010  23.032  0.00  0.00    +0.000 C 
ATOM     18  C   UNL     1      -2.758  11.916  23.407  0.00  0.00    +0.000 C 
BRANCH  16  19
ATOM     19  C   UNL     1      -3.376  14.563  24.908  0.00  0.00    +0.000 C 
BRANCH  19  20
ATOM     20  C   UNL     1      -2.759  15.868  25.370  0.00  0.00    +0.000 A 
ATOM     21  C   UNL     1      -1.549  15.871  26.081  0.00  0.00    +0.000 A 
ATOM     22  C   UNL     1      -0.964  17.072  26.487  0.00  0.00    +0.000 A 
ATOM     23  C   UNL     1      -1.583  18.285  26.182  0.00  0.00    +0.000 A 
ATOM     24  C   UNL     1      -2.788  18.296  25.483  0.00  0.00    +0.000 A 
ATOM     25  C   UNL     1      -3.375  17.093  25.080  0.00  0.00    +0.000 A 
ENDBRANCH  19  20
ENDBRANCH  16  19
ENDBRANCH   6  13
BRANCH   1  28
ATOM     26  O   UNL     1      -0.688  12.590  18.949  0.00  0.00    +0.000 OA
ATOM     27  C   UNL     1       0.052  13.287  19.629  0.00  0.00    +0.000 C 
ATOM     28  N   UNL     1       0.614  12.864  20.829  0.00  0.00    +0.000 N 
ATOM     29  H   UNL     1       1.403  13.358  21.232  0.00  0.00    +0.000 HD
BRANCH  27  30
ATOM     30  C   UNL     1       0.440  14.674  19.173  0.00  0.00    +0.000 A 
ATOM     31  C   UNL     1      -0.547  15.678  19.143  0.00  0.00    +0.000 A 
ATOM     32  C   UNL     1      -0.279  16.937  18.621  0.00  0.00    +0.000 A 
ATOM     33  C   UNL     1       0.968  17.197  18.074  0.00  0.00    +0.000 A 
ATOM     34  C   UNL     1       1.980  16.227  18.092  0.00  0.00    +0.000 A 
ATOM     35  C   UNL     1       3.210  16.506  17.474  0.00  0.00    +0.000 A 
ATOM     36  C   UNL     1       4.262  15.596  17.521  0.00  0.00    +0.000 A 
ATOM     37  C   UNL     1       4.113  14.416  18.232  0.00  0.00    +0.000 A 
ATOM     38  C   UNL     1       2.881  14.105  18.815  0.00  0.00    +0.000 A 
ATOM     39  C   UNL     1       1.760  14.969  18.717  0.00  0.00    +0.000 A 
ENDBRANCH  27  30
ENDBRANCH   1  28
TORSDOF 6
ENDMDL
MODEL 4
REMARK VINA RESULT:      -7.5      1.274      8.340
REMARK  Name = 
REMARK  6 active torsions:
REMARK  status: ('A' for Active; 'I' for Inactive)
REMARK    1  A    between atoms: C_2  and  C_29
REMARK    2  A    between atoms: N_3  and  C_4
REMARK    3  A    between atoms: C_6  and  C_7
REMARK    4  A    between atoms: C_15  and  N_16
REMARK    5  A    between atoms: N_19  and  C_20
REMARK    6  A    between atoms: C_20  and  C_21
REMARK                            x       y       z     vdW  Elec       q    Type
REMARK                         _______ _______ _______ _____ _____    ______ ____
ROOT
ATOM      1  C   UNL     1      -1.396  13.006  21.688  0.00  0.00    +0.000 A 
ATOM      2  C   UNL     1      -2.177  14.060  22.189  0.00  0.00    +0.000 A 
ATOM      3  C   UNL     1      -3.017  13.902  23.297  0.00  0.00    +0.000 A 
ATOM      4  C   UNL     1      -3.142  12.607  23.806  0.00  0.00    +0.000 A 
ATOM      5  C   UNL     1      -2.364  11.550  23.309  0.00  0.00    +0.000 A 
ATOM      6  C   UNL     1      -1.425  11.718  22.277  0.00  0.00    +0.000 A 
ENDROOT
BRANCH   3   7
ATOM      7  C   UNL     1      -3.655  15.070  23.951  0.00  0.00    +0.000 A 
ATOM      8  C   UNL     1      -5.033  15.329  23.835  0.00  0.00    +0.000 A 
ATOM      9  C   UNL     1      -5.601  16.504  24.337  0.00  0.00    +0.000 A 
ATOM     10  C   UNL     1      -4.807  17.439  24.996  0.00  0.00    +0.000 A 
ATOM     11  C   UNL     1      -3.450  17.194  25.159  0.00  0.00    +0.000 A 
ATOM     12  C   UNL     1      -2.880  16.028  24.639  0.00  0.00    +0.000 A 
ENDBRANCH   3   7
BRANCH   6  13
ATOM     13  N   UNL     1      -0.668  10.630  21.862  0.00  0.00    +0.000 N 
ATOM     14  C   UNL     1      -0.543  10.259  20.438  0.00  0.00    +0.000 C 
ATOM     15  C   UNL     1       0.911   9.839  20.081  0.00  0.00    +0.000 C 
ATOM     16  N   UNL     1       1.549   8.860  20.997  0.00  0.00    +0.000 NA
ATOM     17  C   UNL     1       1.424   9.398  22.371  0.00  0.00    +0.000 C 
ATOM     18  C   UNL     1      -0.016   9.722  22.809  0.00  0.00    +0.000 C 
BRANCH  16  19
ATOM     19  C   UNL     1       0.947   7.525  20.836  0.00  0.00    +0.000 C 
BRANCH  19  20
ATOM     20  C   UNL     1       1.874   6.487  20.237  0.00  0.00    +0.000 A 
ATOM     21  C   UNL     1       1.893   5.175  20.736  0.00  0.00    +0.000 A 
ATOM     22  C   UNL     1       2.727   4.209  20.171  0.00  0.00    +0.000 A 
ATOM     23  C   UNL     1       3.552   4.545  19.097  0.00  0.00    +0.000 A 
ATOM     24  C   UNL     1       3.549   5.845  18.596  0.00  0.00    +0.000 A 
ATOM     25  C   UNL     1       2.716   6.813  19.164  0.00  0.00    +0.000 A 
ENDBRANCH  19  20
ENDBRANCH  16  19
ENDBRANCH   6  13
BRANCH   1  28
ATOM     26  O   UNL     1       1.109  14.238  22.112  0.00  0.00    +0.000 OA
ATOM     27  C   UNL     1       0.745  13.972  20.975  0.00  0.00    +0.000 C 
ATOM     28  N   UNL     1      -0.463  13.347  20.683  0.00  0.00    +0.000 N 
ATOM     29  H   UNL     1      -0.841  13.367  19.742  0.00  0.00    +0.000 HD
BRANCH  27  30
ATOM     30  C   UNL     1       1.595  14.352  19.785  0.00  0.00    +0.000 A 
ATOM     31  C   UNL     1       2.683  13.528  19.439  0.00  0.00    +0.000 A 
ATOM     32  C   UNL     1       3.568  13.888  18.431  0.00  0.00    +0.000 A 
ATOM     33  C   UNL     1       3.408  15.106  17.786  0.00  0.00    +0.000 A 
ATOM     34  C   UNL     1       2.332  15.950  18.096  0.00  0.00    +0.000 A 
ATOM     35  C   UNL     1       2.237  17.200  17.464  0.00  0.00    +0.000 A 
ATOM     36  C   UNL     1       1.155  18.044  17.697  0.00  0.00    +0.000 A 
ATOM     37  C   UNL     1       0.127  17.623  18.525  0.00  0.00    +0.000 A 
ATOM     38  C   UNL     1       0.228  16.400  19.193  0.00  0.00    +0.000 A 
ATOM     39  C   UNL     1       1.355  15.551  19.048  0.00  0.00    +0.000 A 
ENDBRANCH  27  30
ENDBRANCH   1  28
TORSDOF 6
ENDMDL
MODEL 5
REMARK VINA RESULT:      -7.5      0.526      1.211
REMARK  Name = 
REMARK  6 active torsions:
REMARK  status: ('A' for Active; 'I' for Inactive)
REMARK    1  A    between atoms: C_2  and  C_29
REMARK    2  A    between atoms: N_3  and  C_4
REMARK    3  A    between atoms: C_6  and  C_7
REMARK    4  A    between atoms: C_15  and  N_16
REMARK    5  A    between atoms: N_19  and  C_20
REMARK    6  A    between atoms: C_20  and  C_21
REMARK                            x       y       z     vdW  Elec       q    Type
REMARK                         _______ _______ _______ _____ _____    ______ ____
ROOT
ATOM      1  C   UNL     1       0.923  10.925  20.010  0.00  0.00    +0.000 A 
ATOM      2  C   UNL     1       1.703   9.812  19.654  0.00  0.00    +0.000 A 
ATOM      3  C   UNL     1       1.419   8.525  20.125  0.00  0.00    +0.000 A 
ATOM      4  C   UNL     1       0.397   8.418  21.071  0.00  0.00    +0.000 A 
ATOM      5  C   UNL     1      -0.384   9.526  21.431  0.00  0.00    +0.000 A 
ATOM      6  C   UNL     1      -0.191  10.803  20.875  0.00  0.00    +0.000 A 
ENDROOT
BRANCH   3   7
ATOM      7  C   UNL     1       2.102   7.334  19.565  0.00  0.00    +0.000 A 
ATOM      8  C   UNL     1       2.176   6.118  20.268  0.00  0.00    +0.000 A 
ATOM      9  C   UNL     1       2.939   5.045  19.796  0.00  0.00    +0.000 A 
ATOM     10  C   UNL     1       3.626   5.152  18.590  0.00  0.00    +0.000 A 
ATOM     11  C   UNL     1       3.542   6.327  17.855  0.00  0.00    +0.000 A 
ATOM     12  C   UNL     1       2.795   7.406  18.338  0.00  0.00    +0.000 A 
ENDBRANCH   3   7
BRANCH   6  13
ATOM     13  N   UNL     1      -1.028  11.844  21.256  0.00  0.00    +0.000 N 
ATOM     14  C   UNL     1      -1.999  12.452  20.324  0.00  0.00    +0.000 C 
ATOM     15  C   UNL     1      -3.358  12.742  21.020  0.00  0.00    +0.000 C 
ATOM     16  N   UNL     1      -3.282  13.448  22.324  0.00  0.00    +0.000 NA
ATOM     17  C   UNL     1      -2.344  12.688  23.182  0.00  0.00    +0.000 C 
ATOM     18  C   UNL     1      -0.945  12.474  22.577  0.00  0.00    +0.000 C 
BRANCH  16  19
ATOM     19  C   UNL     1      -2.888  14.856  22.136  0.00  0.00    +0.000 C 
BRANCH  19  20
ATOM     20  C   UNL     1      -3.360  15.791  23.231  0.00  0.00    +0.000 A 
ATOM     21  C   UNL     1      -4.722  15.877  23.557  0.00  0.00    +0.000 A 
ATOM     22  C   UNL     1      -5.158  16.718  24.583  0.00  0.00    +0.000 A 
ATOM     23  C   UNL     1      -4.234  17.482  25.295  0.00  0.00    +0.000 A 
ATOM     24  C   UNL     1      -2.879  17.413  24.977  0.00  0.00    +0.000 A 
ATOM     25  C   UNL     1      -2.443  16.573  23.948  0.00  0.00    +0.000 A 
ENDBRANCH  19  20
ENDBRANCH  16  19
ENDBRANCH   6  13
BRANCH   1  28
ATOM     26  O   UNL     1       2.516  13.042  20.989  0.00  0.00    +0.000 OA
ATOM     27  C   UNL     1       1.991  13.133  19.889  0.00  0.00    +0.000 C 
ATOM     28  N   UNL     1       1.210  12.128  19.327  0.00  0.00    +0.000 N 
ATOM     29  H   UNL     1       0.597  12.328  18.544  0.00  0.00    +0.000 HD
BRANCH  27  30
ATOM     30  C   UNL     1       2.132  14.394  19.070  0.00  0.00    +0.000 A 
ATOM     31  C   UNL     1       3.123  14.445  18.071  0.00  0.00    +0.000 A 
ATOM     32  C   UNL     1       3.378  15.616  17.368  0.00  0.00    +0.000 A 
ATOM     33  C   UNL     1       2.679  16.771  17.689  0.00  0.00    +0.000 A 
ATOM     34  C   UNL     1       1.679  16.758  18.671  0.00  0.00    +0.000 A 
ATOM     35  C   UNL     1       1.035  17.959  19.010  0.00  0.00    +0.000 A 
ATOM     36  C   UNL     1      -0.004  17.982  19.935  0.00  0.00    +0.000 A 
ATOM     37  C   UNL     1      -0.448  16.794  20.494  0.00  0.00    +0.000 A 
ATOM     38  C   UNL     1       0.211  15.598  20.199  0.00  0.00    +0.000 A 
ATOM     39  C   UNL     1       1.328  15.546  19.326  0.00  0.00    +0.000 A 
ENDBRANCH  27  30
ENDBRANCH   1  28
TORSDOF 6
ENDMDL
MODEL 6
REMARK VINA RESULT:      -7.4      1.095      1.383
REMARK  Name = 
REMARK  6 active torsions:
REMARK  status: ('A' for Active; 'I' for Inactive)
REMARK    1  A    between atoms: C_2  and  C_29
REMARK    2  A    between atoms: N_3  and  C_4
REMARK    3  A    between atoms: C_6  and  C_7
REMARK    4  A    between atoms: C_15  and  N_16
REMARK    5  A    between atoms: N_19  and  C_20
REMARK    6  A    between atoms: C_20  and  C_21
REMARK                            x       y       z     vdW  Elec       q    Type
REMARK                         _______ _______ _______ _____ _____    ______ ____
ROOT
ATOM      1  C   UNL     1       0.799  10.994  20.269  0.00  0.00    +0.000 A 
ATOM      2  C   UNL     1       1.520   9.822  19.986  0.00  0.00    +0.000 A 
ATOM      3  C   UNL     1       1.185   8.588  20.555  0.00  0.00    +0.000 A 
ATOM      4  C   UNL     1       0.177   8.599  21.522  0.00  0.00    +0.000 A 
ATOM      5  C   UNL     1      -0.546   9.767  21.809  0.00  0.00    +0.000 A 
ATOM      6  C   UNL     1      -0.304  10.989  21.156  0.00  0.00    +0.000 A 
ENDROOT
BRANCH   3   7
ATOM      7  C   UNL     1       1.803   7.328  20.076  0.00  0.00    +0.000 A 
ATOM      8  C   UNL     1       2.513   7.260  18.863  0.00  0.00    +0.000 A 
ATOM      9  C   UNL     1       2.972   6.042  18.351  0.00  0.00    +0.000 A 
ATOM     10  C   UNL     1       2.757   4.862  19.056  0.00  0.00    +0.000 A 
ATOM     11  C   UNL     1       2.091   4.901  20.274  0.00  0.00    +0.000 A 
ATOM     12  C   UNL     1       1.616   6.116  20.775  0.00  0.00    +0.000 A 
ENDBRANCH   3   7
BRANCH   6  13
ATOM     13  N   UNL     1      -1.085  12.093  21.471  0.00  0.00    +0.000 N 
ATOM     14  C   UNL     1      -2.284  12.455  20.689  0.00  0.00    +0.000 C 
ATOM     15  C   UNL     1      -3.452  12.911  21.607  0.00  0.00    +0.000 C 
ATOM     16  N   UNL     1      -3.108  13.917  22.644  0.00  0.00    +0.000 NA
ATOM     17  C   UNL     1      -1.950  13.389  23.401  0.00  0.00    +0.000 C 
ATOM     18  C   UNL     1      -0.726  13.029  22.540  0.00  0.00    +0.000 C 
BRANCH  16  19
ATOM     19  C   UNL     1      -2.854  15.233  22.033  0.00  0.00    +0.000 C 
BRANCH  19  20
ATOM     20  C   UNL     1      -4.077  16.122  21.927  0.00  0.00    +0.000 A 
ATOM     21  C   UNL     1      -4.385  16.770  20.721  0.00  0.00    +0.000 A 
ATOM     22  C   UNL     1      -5.524  17.570  20.612  0.00  0.00    +0.000 A 
ATOM     23  C   UNL     1      -6.370  17.729  21.710  0.00  0.00    +0.000 A 
ATOM     24  C   UNL     1      -6.072  17.098  22.916  0.00  0.00    +0.000 A 
ATOM     25  C   UNL     1      -4.930  16.300  23.026  0.00  0.00    +0.000 A 
ENDBRANCH  19  20
ENDBRANCH  16  19
ENDBRANCH   6  13
BRANCH   1  28
ATOM     26  O   UNL     1       2.516  13.092  21.058  0.00  0.00    +0.000 OA
ATOM     27  C   UNL     1       1.971  13.130  19.965  0.00  0.00    +0.000 C 
ATOM     28  N   UNL     1       1.128  12.128  19.493  0.00  0.00    +0.000 N 
ATOM     29  H   UNL     1       0.508  12.301  18.710  0.00  0.00    +0.000 HD
BRANCH  27  30
ATOM     30  C   UNL     1       2.155  14.320  19.052  0.00  0.00    +0.000 A 
ATOM     31  C   UNL     1       3.355  14.436  18.325  0.00  0.00    +0.000 A 
ATOM     32  C   UNL     1       3.630  15.565  17.564  0.00  0.00    +0.000 A 
ATOM     33  C   UNL     1       2.729  16.620  17.558  0.00  0.00    +0.000 A 
ATOM     34  C   UNL     1       1.519  16.539  18.263  0.00  0.00    +0.000 A 
ATOM     35  C   UNL     1       0.661  17.649  18.282  0.00  0.00    +0.000 A 
ATOM     36  C   UNL     1      -0.576  17.592  18.918  0.00  0.00    +0.000 A 
ATOM     37  C   UNL     1      -0.992  16.404  19.497  0.00  0.00    +0.000 A 
ATOM     38  C   UNL     1      -0.131  15.304  19.523  0.00  0.00    +0.000 A 
ATOM     39  C   UNL     1       1.171  15.350  18.960  0.00  0.00    +0.000 A 
ENDBRANCH  27  30
ENDBRANCH   1  28
TORSDOF 6
ENDMDL
MODEL 7
REMARK VINA RESULT:      -7.3      1.329      8.318
REMARK  Name = 
REMARK  6 active torsions:
REMARK  status: ('A' for Active; 'I' for Inactive)
REMARK    1  A    between atoms: C_2  and  C_29
REMARK    2  A    between atoms: N_3  and  C_4
REMARK    3  A    between atoms: C_6  and  C_7
REMARK    4  A    between atoms: C_15  and  N_16
REMARK    5  A    between atoms: N_19  and  C_20
REMARK    6  A    between atoms: C_20  and  C_21
REMARK                            x       y       z     vdW  Elec       q    Type
REMARK                         _______ _______ _______ _____ _____    ______ ____
ROOT
ATOM      1  C   UNL     1      -1.160  13.053  21.535  0.00  0.00    +0.000 A 
ATOM      2  C   UNL     1      -1.981  14.058  22.073  0.00  0.00    +0.000 A 
ATOM      3  C   UNL     1      -2.807  13.830  23.179  0.00  0.00    +0.000 A 
ATOM      4  C   UNL     1      -2.875  12.516  23.647  0.00  0.00    +0.000 A 
ATOM      5  C   UNL     1      -2.058  11.508  23.113  0.00  0.00    +0.000 A 
ATOM      6  C   UNL     1      -1.133  11.747  22.082  0.00  0.00    +0.000 A 
ENDROOT
BRANCH   3   7
ATOM      7  C   UNL     1      -3.488  14.950  23.873  0.00  0.00    +0.000 A 
ATOM      8  C   UNL     1      -4.869  15.181  23.737  0.00  0.00    +0.000 A 
ATOM      9  C   UNL     1      -5.478  16.317  24.281  0.00  0.00    +0.000 A 
ATOM     10  C   UNL     1      -4.723  17.237  25.002  0.00  0.00    +0.000 A 
ATOM     11  C   UNL     1      -3.365  17.016  25.186  0.00  0.00    +0.000 A 
ATOM     12  C   UNL     1      -2.754  15.891  24.625  0.00  0.00    +0.000 A 
ENDBRANCH   3   7
BRANCH   6  13
ATOM     13  N   UNL     1      -0.334  10.705  21.630  0.00  0.00    +0.000 N 
ATOM     14  C   UNL     1       1.090  10.589  22.002  0.00  0.00    +0.000 C 
ATOM     15  C   UNL     1       1.484   9.119  22.315  0.00  0.00    +0.000 C 
ATOM     16  N   UNL     1       1.058   8.105  21.317  0.00  0.00    +0.000 NA
ATOM     17  C   UNL     1      -0.396   8.282  21.104  0.00  0.00    +0.000 C 
ATOM     18  C   UNL     1      -0.820   9.699  20.681  0.00  0.00    +0.000 C 
BRANCH  16  19
ATOM     19  C   UNL     1       1.847   8.227  20.078  0.00  0.00    +0.000 C 
BRANCH  19  20
ATOM     20  C   UNL     1       2.315   6.907  19.500  0.00  0.00    +0.000 A 
ATOM     21  C   UNL     1       2.971   6.865  18.260  0.00  0.00    +0.000 A 
ATOM     22  C   UNL     1       3.426   5.654  17.735  0.00  0.00    +0.000 A 
ATOM     23  C   UNL     1       3.230   4.470  18.447  0.00  0.00    +0.000 A 
ATOM     24  C   UNL     1       2.574   4.496  19.675  0.00  0.00    +0.000 A 
ATOM     25  C   UNL     1       2.116   5.708  20.199  0.00  0.00    +0.000 A 
ENDBRANCH  19  20
ENDBRANCH  16  19
ENDBRANCH   6  13
BRANCH   1  28
ATOM     26  O   UNL     1       1.343  14.277  21.992  0.00  0.00    +0.000 OA
ATOM     27  C   UNL     1       0.962  14.079  20.847  0.00  0.00    +0.000 C 
ATOM     28  N   UNL     1      -0.248  13.464  20.538  0.00  0.00    +0.000 N 
ATOM     29  H   UNL     1      -0.642  13.539  19.607  0.00  0.00    +0.000 HD
BRANCH  27  30
ATOM     30  C   UNL     1       1.787  14.540  19.669  0.00  0.00    +0.000 A 
ATOM     31  C   UNL     1       2.985  13.861  19.375  0.00  0.00    +0.000 A 
ATOM     32  C   UNL     1       3.843  14.313  18.380  0.00  0.00    +0.000 A 
ATOM     33  C   UNL     1       3.541  15.481  17.696  0.00  0.00    +0.000 A 
ATOM     34  C   UNL     1       2.353  16.180  17.954  0.00  0.00    +0.000 A 
ATOM     35  C   UNL     1       2.111  17.390  17.284  0.00  0.00    +0.000 A 
ATOM     36  C   UNL     1       0.919  18.086  17.465  0.00  0.00    +0.000 A 
ATOM     37  C   UNL     1      -0.068  17.552  18.278  0.00  0.00    +0.000 A 
ATOM     38  C   UNL     1       0.177  16.371  18.984  0.00  0.00    +0.000 A 
ATOM     39  C   UNL     1       1.411  15.678  18.892  0.00  0.00    +0.000 A 
ENDBRANCH  27  30
ENDBRANCH   1  28
TORSDOF 6
ENDMDL
MODEL 8
REMARK VINA RESULT:      -7.2      2.250      7.193
REMARK  Name = 
REMARK  6 active torsions:
REMARK  status: ('A' for Active; 'I' for Inactive)
REMARK    1  A    between atoms: C_2  and  C_29
REMARK    2  A    between atoms: N_3  and  C_4
REMARK    3  A    between atoms: C_6  and  C_7
REMARK    4  A    between atoms: C_15  and  N_16
REMARK    5  A    between atoms: N_19  and  C_20
REMARK    6  A    between atoms: C_20  and  C_21
REMARK                            x       y       z     vdW  Elec       q    Type
REMARK                         _______ _______ _______ _____ _____    ______ ____
ROOT
ATOM      1  C   UNL     1       1.760  13.777  20.199  0.00  0.00    +0.000 A 
ATOM      2  C   UNL     1       2.983  14.181  19.639  0.00  0.00    +0.000 A 
ATOM      3  C   UNL     1       3.309  15.530  19.459  0.00  0.00    +0.000 A 
ATOM      4  C   UNL     1       2.305  16.458  19.745  0.00  0.00    +0.000 A 
ATOM      5  C   UNL     1       1.081  16.060  20.305  0.00  0.00    +0.000 A 
ATOM      6  C   UNL     1       0.785  14.719  20.606  0.00  0.00    +0.000 A 
ENDROOT
BRANCH   3   7
ATOM      7  C   UNL     1       4.682  15.946  19.083  0.00  0.00    +0.000 A 
ATOM      8  C   UNL     1       5.496  15.159  18.248  0.00  0.00    +0.000 A 
ATOM      9  C   UNL     1       6.835  15.489  18.011  0.00  0.00    +0.000 A 
ATOM     10  C   UNL     1       7.385  16.633  18.582  0.00  0.00    +0.000 A 
ATOM     11  C   UNL     1       6.595  17.449  19.381  0.00  0.00    +0.000 A 
ATOM     12  C   UNL     1       5.263  17.108  19.633  0.00  0.00    +0.000 A 
ENDBRANCH   3   7
BRANCH   6  13
ATOM     13  N   UNL     1      -0.436  14.407  21.192  0.00  0.00    +0.000 N 
ATOM     14  C   UNL     1      -0.585  14.237  22.650  0.00  0.00    +0.000 C 
ATOM     15  C   UNL     1      -1.898  14.885  23.172  0.00  0.00    +0.000 C 
ATOM     16  N   UNL     1      -3.132  14.552  22.417  0.00  0.00    +0.000 NA
ATOM     17  C   UNL     1      -2.868  14.848  20.990  0.00  0.00    +0.000 C 
ATOM     18  C   UNL     1      -1.639  14.136  20.400  0.00  0.00    +0.000 C 
BRANCH  16  19
ATOM     19  C   UNL     1      -3.532  13.154  22.658  0.00  0.00    +0.000 C 
BRANCH  19  20
ATOM     20  C   UNL     1      -5.029  12.932  22.725  0.00  0.00    +0.000 A 
ATOM     21  C   UNL     1      -5.760  12.642  21.562  0.00  0.00    +0.000 A 
ATOM     22  C   UNL     1      -7.135  12.412  21.623  0.00  0.00    +0.000 A 
ATOM     23  C   UNL     1      -7.795  12.467  22.851  0.00  0.00    +0.000 A 
ATOM     24  C   UNL     1      -7.084  12.761  24.013  0.00  0.00    +0.000 A 
ATOM     25  C   UNL     1      -5.707  12.994  23.951  0.00  0.00    +0.000 A 
ENDBRANCH  19  20
ENDBRANCH  16  19
ENDBRANCH   6  13
BRANCH   1  28
ATOM     26  O   UNL     1       0.437  11.867  18.595  0.00  0.00    +0.000 OA
ATOM     27  C   UNL     1       0.948  11.526  19.652  0.00  0.00    +0.000 C 
ATOM     28  N   UNL     1       1.635  12.400  20.489  0.00  0.00    +0.000 N 
ATOM     29  H   UNL     1       1.824  12.150  21.453  0.00  0.00    +0.000 HD
BRANCH  27  30
ATOM     30  C   UNL     1       0.826  10.102  20.143  0.00  0.00    +0.000 A 
ATOM     31  C   UNL     1       0.092   9.853  21.319  0.00  0.00    +0.000 A 
ATOM     32  C   UNL     1       0.044   8.584  21.883  0.00  0.00    +0.000 A 
ATOM     33  C   UNL     1       0.773   7.553  21.307  0.00  0.00    +0.000 A 
ATOM     34  C   UNL     1       1.509   7.760  20.132  0.00  0.00    +0.000 A 
ATOM     35  C   UNL     1       2.281   6.709  19.612  0.00  0.00    +0.000 A 
ATOM     36  C   UNL     1       2.979   6.852  18.416  0.00  0.00    +0.000 A 
ATOM     37  C   UNL     1       2.869   8.031  17.698  0.00  0.00    +0.000 A 
ATOM     38  C   UNL     1       2.139   9.101  18.223  0.00  0.00    +0.000 A 
ATOM     39  C   UNL     1       1.484   9.023  19.479  0.00  0.00    +0.000 A 
ENDBRANCH  27  30
ENDBRANCH   1  28
TORSDOF 6
ENDMDL
MODEL 9
REMARK VINA RESULT:      -7.2      2.278      7.580
REMARK  Name = 
REMARK  6 active torsions:
REMARK  status: ('A' for Active; 'I' for Inactive)
REMARK    1  A    between atoms: C_2  and  C_29
REMARK    2  A    between atoms: N_3  and  C_4
REMARK    3  A    between atoms: C_6  and  C_7
REMARK    4  A    between atoms: C_15  and  N_16
REMARK    5  A    between atoms: N_19  and  C_20
REMARK    6  A    between atoms: C_20  and  C_21
REMARK                            x       y       z     vdW  Elec       q    Type
REMARK                         _______ _______ _______ _____ _____    ______ ____
ROOT
ATOM      1  C   UNL     1       1.773  13.380  19.298  0.00  0.00    +0.000 A 
ATOM      2  C   UNL     1       3.069  13.777  18.928  0.00  0.00    +0.000 A 
ATOM      3  C   UNL     1       3.371  15.098  18.578  0.00  0.00    +0.000 A 
ATOM      4  C   UNL     1       2.293  15.982  18.489  0.00  0.00    +0.000 A 
ATOM      5  C   UNL     1       0.996  15.591  18.857  0.00  0.00    +0.000 A 
ATOM      6  C   UNL     1       0.698  14.301  19.329  0.00  0.00    +0.000 A 
ENDROOT
BRANCH   3   7
ATOM      7  C   UNL     1       4.774  15.548  18.413  0.00  0.00    +0.000 A 
ATOM      8  C   UNL     1       5.762  14.717  17.853  0.00  0.00    +0.000 A 
ATOM      9  C   UNL     1       7.109  15.096  17.829  0.00  0.00    +0.000 A 
ATOM     10  C   UNL     1       7.496  16.331  18.339  0.00  0.00    +0.000 A 
ATOM     11  C   UNL     1       6.539  17.188  18.865  0.00  0.00    +0.000 A 
ATOM     12  C   UNL     1       5.196  16.801  18.906  0.00  0.00    +0.000 A 
ENDBRANCH   3   7
BRANCH   6  13
ATOM     13  N   UNL     1      -0.605  14.000  19.707  0.00  0.00    +0.000 N 
ATOM     14  C   UNL     1      -1.383  12.929  19.054  0.00  0.00    +0.000 C 
ATOM     15  C   UNL     1      -2.202  12.104  20.086  0.00  0.00    +0.000 C 
ATOM     16  N   UNL     1      -2.998  12.890  21.062  0.00  0.00    +0.000 NA
ATOM     17  C   UNL     1      -2.078  13.861  21.698  0.00  0.00    +0.000 C 
ATOM     18  C   UNL     1      -1.329  14.779  20.715  0.00  0.00    +0.000 C 
BRANCH  16  19
ATOM     19  C   UNL     1      -4.153  13.526  20.405  0.00  0.00    +0.000 C 
BRANCH  19  20
ATOM     20  C   UNL     1      -5.184  12.553  19.871  0.00  0.00    +0.000 A 
ATOM     21  C   UNL     1      -5.220  12.231  18.505  0.00  0.00    +0.000 A 
ATOM     22  C   UNL     1      -6.152  11.315  18.012  0.00  0.00    +0.000 A 
ATOM     23  C   UNL     1      -7.059  10.710  18.883  0.00  0.00    +0.000 A 
ATOM     24  C   UNL     1      -7.040  11.026  20.239  0.00  0.00    +0.000 A 
ATOM     25  C   UNL     1      -6.109  11.944  20.732  0.00  0.00    +0.000 A 
ENDBRANCH  19  20
ENDBRANCH  16  19
ENDBRANCH   6  13
BRANCH   1  28
ATOM     26  O   UNL     1       1.288  11.067  17.752  0.00  0.00    +0.000 OA
ATOM     27  C   UNL     1       1.387  10.978  18.968  0.00  0.00    +0.000 C 
ATOM     28  N   UNL     1       1.645  12.065  19.798  0.00  0.00    +0.000 N 
ATOM     29  H   UNL     1       1.474  12.005  20.795  0.00  0.00    +0.000 HD
BRANCH  27  30
ATOM     30  C   UNL     1       1.189   9.651  19.662  0.00  0.00    +0.000 A 
ATOM     31  C   UNL     1       0.359   9.599  20.798  0.00  0.00    +0.000 A 
ATOM     32  C   UNL     1       0.234   8.435  21.547  0.00  0.00    +0.000 A 
ATOM     33  C   UNL     1       0.978   7.317  21.199  0.00  0.00    +0.000 A 
ATOM     34  C   UNL     1       1.809   7.328  20.070  0.00  0.00    +0.000 A 
ATOM     35  C   UNL     1       2.592   6.198  19.784  0.00  0.00    +0.000 A 
ATOM     36  C   UNL     1       3.385   6.141  18.642  0.00  0.00    +0.000 A 
ATOM     37  C   UNL     1       3.363   7.195  17.742  0.00  0.00    +0.000 A 
ATOM     38  C   UNL     1       2.622   8.344  18.035  0.00  0.00    +0.000 A 
ATOM     39  C   UNL     1       1.869   8.473  19.230  0.00  0.00    +0.000 A 
ENDBRANCH  27  30
ENDBRANCH   1  28
TORSDOF 6
ENDMDL
