MODEL 1
REMARK VINA RESULT:      -7.8      0.000      0.000
REMARK  Name = 
REMARK  7 active torsions:
REMARK  status: ('A' for Active; 'I' for Inactive)
REMARK    1  A    between atoms: C_1  and  C_2
REMARK    2  A    between atoms: C_2  and  N_3
REMARK    3  A    between atoms: C_5  and  C_6
REMARK    4  A    between atoms: C_5  and  N_9
REMARK    5  A    between atoms: C_6  and  C_7
REMARK    6  A    between atoms: C_11  and  C_12
REMARK    7  A    between atoms: C_27  and  C_29
REMARK                            x       y       z     vdW  Elec       q    Type
REMARK                         _______ _______ _______ _____ _____    ______ ____
ROOT
ATOM      1  N   UNL     1       1.165  12.878  19.834  0.00  0.00    +0.000 NA
ATOM      2  C   UNL     1       0.045  12.335  20.627  0.00  0.00    +0.000 C 
ATOM      3  C   UNL     1      -0.242  11.286  19.494  0.00  0.00    +0.000 C 
ATOM      4  C   UNL     1       0.598  12.306  18.609  0.00  0.00    +0.000 C 
ENDROOT
BRANCH   1   6
ATOM      5  C   UNL     1       0.088  15.200  19.944  0.00  0.00    +0.000 C 
ATOM      6  C   UNL     1       1.375  14.343  19.882  0.00  0.00    +0.000 C 
ATOM      7  C   UNL     1       2.262  14.678  21.119  0.00  0.00    +0.000 C 
ATOM      8  C   UNL     1       3.699  14.141  21.011  0.00  0.00    +0.000 C 
ATOM      9  N   UNL     1       4.344  14.581  19.770  0.00  0.00    +0.000 N 
ATOM     10  C   UNL     1       5.648  15.100  19.820  0.00  0.00    +0.000 C 
ATOM     11  O   UNL     1       6.276  15.152  20.870  0.00  0.00    +0.000 OA
ATOM     12  C   UNL     1       3.591  14.243  18.563  0.00  0.00    +0.000 C 
ATOM     13  C   UNL     1       2.175  14.812  18.629  0.00  0.00    +0.000 C 
BRANCH  10  14
ATOM     14  C   UNL     1       6.259  15.637  18.509  0.00  0.00    +0.000 C 
ATOM     15  C   UNL     1       7.104  16.903  18.722  0.00  0.00    +0.000 C 
ATOM     16  C   UNL     1       8.524  16.666  19.225  0.00  0.00    +0.000 C 
ATOM     17  C   UNL     1       9.270  15.576  18.466  0.00  0.00    +0.000 C 
ATOM     18  C   UNL     1       8.447  14.313  18.245  0.00  0.00    +0.000 C 
ATOM     19  C   UNL     1       7.038  14.581  17.718  0.00  0.00    +0.000 C 
ENDBRANCH  10  14
ENDBRANCH   1   6
BRANCH   3  20
ATOM     20  N   UNL     1       0.624  10.008  19.664  0.00  0.00    +0.000 N 
ATOM     21  C   UNL     1       1.170   9.227  18.623  0.00  0.00    +0.000 A 
ATOM     22  C   UNL     1       1.789   8.078  19.128  0.00  0.00    +0.000 A 
ATOM     23  C   UNL     1       1.608   8.290  20.520  0.00  0.00    +0.000 A 
ATOM     24  N   UNL     1       0.885   9.401  20.847  0.00  0.00    +0.000 NA
BRANCH  22  25
ATOM     25  C   UNL     1       2.580   7.114  18.282  0.00  0.00    +0.000 A 
ATOM     26  N   UNL     1       3.556   7.718  17.527  0.00  0.00    +0.000 NA
ATOM     27  C   UNL     1       4.623   6.992  17.139  0.00  0.00    +0.000 A 
ATOM     28  N   UNL     1       4.941   5.740  17.502  0.00  0.00    +0.000 NA
ATOM     29  C   UNL     1       3.861   5.125  17.998  0.00  0.00    +0.000 A 
ATOM     30  N   UNL     1       3.793   3.746  18.051  0.00  0.00    +0.000 N 
ATOM     31  C   UNL     1       2.509   3.446  17.643  0.00  0.00    +0.000 A 
ATOM     32  C   UNL     1       1.760   4.601  17.796  0.00  0.00    +0.000 A 
ATOM     33  C   UNL     1       2.606   5.680  18.259  0.00  0.00    +0.000 A 
ATOM     34  H   UNL     1       4.592   3.161  17.915  0.00  0.00    +0.000 HD
ENDBRANCH  22  25
ENDBRANCH   3  20
BRANCH   3  35
ATOM     35  C   UNL     1      -1.770  11.271  18.925  0.00  0.00    +0.000 C 
BRANCH  35  36
ATOM     36  C   UNL     1      -2.079  10.403  17.715  0.00  0.00    +0.000 C 
ATOM     37  N   UNL     1      -2.335   9.684  16.712  0.00  0.00    +0.000 NA
ENDBRANCH  35  36
ENDBRANCH   3  35
TORSDOF 6
ENDMDL
MODEL 2
REMARK VINA RESULT:      -7.6      1.180      1.235
REMARK  Name = 
REMARK  7 active torsions:
REMARK  status: ('A' for Active; 'I' for Inactive)
REMARK    1  A    between atoms: C_1  and  C_2
REMARK    2  A    between atoms: C_2  and  N_3
REMARK    3  A    between atoms: C_5  and  C_6
REMARK    4  A    between atoms: C_5  and  N_9
REMARK    5  A    between atoms: C_6  and  C_7
REMARK    6  A    between atoms: C_11  and  C_12
REMARK    7  A    between atoms: C_27  and  C_29
REMARK                            x       y       z     vdW  Elec       q    Type
REMARK                         _______ _______ _______ _____ _____    ______ ____
ROOT
ATOM      1  N   UNL     1       1.312  13.323  20.271  0.00  0.00    +0.000 NA
ATOM      2  C   UNL     1       0.128  13.013  21.094  0.00  0.00    +0.000 C 
ATOM      3  C   UNL     1      -0.222  11.821  20.133  0.00  0.00    +0.000 C 
ATOM      4  C   UNL     1       0.729  12.608  19.131  0.00  0.00    +0.000 C 
ENDROOT
BRANCH   1   6
ATOM      5  C   UNL     1       0.450  15.727  20.077  0.00  0.00    +0.000 C 
ATOM      6  C   UNL     1       1.652  14.753  20.091  0.00  0.00    +0.000 C 
ATOM      7  C   UNL     1       2.630  15.178  21.228  0.00  0.00    +0.000 C 
ATOM      8  C   UNL     1       4.007  14.498  21.144  0.00  0.00    +0.000 C 
ATOM      9  N   UNL     1       4.620  14.691  19.826  0.00  0.00    +0.000 N 
ATOM     10  C   UNL     1       5.966  15.087  19.746  0.00  0.00    +0.000 C 
ATOM     11  O   UNL     1       6.651  15.230  20.750  0.00  0.00    +0.000 OA
ATOM     12  C   UNL     1       3.778  14.255  18.714  0.00  0.00    +0.000 C 
ATOM     13  C   UNL     1       2.422  14.958  18.751  0.00  0.00    +0.000 C 
BRANCH  10  14
ATOM     14  C   UNL     1       6.549  15.368  18.346  0.00  0.00    +0.000 C 
ATOM     15  C   UNL     1       7.500  16.577  18.331  0.00  0.00    +0.000 C 
ATOM     16  C   UNL     1       8.921  16.299  18.810  0.00  0.00    +0.000 C 
ATOM     17  C   UNL     1       9.541  15.050  18.200  0.00  0.00    +0.000 C 
ATOM     18  C   UNL     1       8.614  13.841  18.205  0.00  0.00    +0.000 C 
ATOM     19  C   UNL     1       7.205  14.144  17.698  0.00  0.00    +0.000 C 
ENDBRANCH  10  14
ENDBRANCH   1   6
BRANCH   3  20
ATOM     20  N   UNL     1       0.521  10.519  20.541  0.00  0.00    +0.000 N 
ATOM     21  C   UNL     1       0.856   9.448  19.685  0.00  0.00    +0.000 A 
ATOM     22  C   UNL     1       1.408   8.383  20.406  0.00  0.00    +0.000 A 
ATOM     23  C   UNL     1       1.415   8.943  21.710  0.00  0.00    +0.000 A 
ATOM     24  N   UNL     1       0.856  10.184  21.811  0.00  0.00    +0.000 NA
BRANCH  22  25
ATOM     25  C   UNL     1       1.990   7.150  19.762  0.00  0.00    +0.000 A 
ATOM     26  N   UNL     1       2.650   7.405  18.585  0.00  0.00    +0.000 NA
ATOM     27  C   UNL     1       3.609   6.551  18.178  0.00  0.00    +0.000 A 
ATOM     28  N   UNL     1       4.118   5.506  18.849  0.00  0.00    +0.000 NA
ATOM     29  C   UNL     1       3.283   5.151  19.832  0.00  0.00    +0.000 A 
ATOM     30  N   UNL     1       3.343   3.889  20.392  0.00  0.00    +0.000 N 
ATOM     31  C   UNL     1       2.024   3.506  20.526  0.00  0.00    +0.000 A 
ATOM     32  C   UNL     1       1.264   4.663  20.475  0.00  0.00    +0.000 A 
ATOM     33  C   UNL     1       2.120   5.806  20.245  0.00  0.00    +0.000 A 
ATOM     34  H   UNL     1       4.110   3.267  20.238  0.00  0.00    +0.000 HD
ENDBRANCH  22  25
ENDBRANCH   3  20
BRANCH   3  35
ATOM     35  C   UNL     1      -1.729  11.842  19.512  0.00  0.00    +0.000 C 
BRANCH  35  36
ATOM     36  C   UNL     1      -2.096  10.790  18.477  0.00  0.00    +0.000 C 
ATOM     37  N   UNL     1      -2.401   9.918  17.619  0.00  0.00    +0.000 NA
ENDBRANCH  35  36
ENDBRANCH   3  35
TORSDOF 6
ENDMDL
MODEL 3
REMARK VINA RESULT:      -7.6      1.666      1.997
REMARK  Name = 
REMARK  7 active torsions:
REMARK  status: ('A' for Active; 'I' for Inactive)
REMARK    1  A    between atoms: C_1  and  C_2
REMARK    2  A    between atoms: C_2  and  N_3
REMARK    3  A    between atoms: C_5  and  C_6
REMARK    4  A    between atoms: C_5  and  N_9
REMARK    5  A    between atoms: C_6  and  C_7
REMARK    6  A    between atoms: C_11  and  C_12
REMARK    7  A    between atoms: C_27  and  C_29
REMARK                            x       y       z     vdW  Elec       q    Type
REMARK                         _______ _______ _______ _____ _____    ______ ____
ROOT
ATOM      1  N   UNL     1       1.461  13.613  20.283  0.00  0.00    +0.000 NA
ATOM      2  C   UNL     1       0.593  13.475  21.469  0.00  0.00    +0.000 C 
ATOM      3  C   UNL     1      -0.191  12.317  20.753  0.00  0.00    +0.000 C 
ATOM      4  C   UNL     1       0.453  12.954  19.447  0.00  0.00    +0.000 C 
ENDROOT
BRANCH   1   6
ATOM      5  C   UNL     1       0.737  16.016  19.770  0.00  0.00    +0.000 C 
ATOM      6  C   UNL     1       1.881  14.984  19.913  0.00  0.00    +0.000 C 
ATOM      7  C   UNL     1       2.892  15.500  20.981  0.00  0.00    +0.000 C 
ATOM      8  C   UNL     1       4.226  14.736  20.986  0.00  0.00    +0.000 C 
ATOM      9  N   UNL     1       4.838  14.714  19.654  0.00  0.00    +0.000 N 
ATOM     10  C   UNL     1       6.203  15.017  19.519  0.00  0.00    +0.000 C 
ATOM     11  O   UNL     1       6.904  15.253  20.494  0.00  0.00    +0.000 OA
ATOM     12  C   UNL     1       3.961  14.183  18.611  0.00  0.00    +0.000 C 
ATOM     13  C   UNL     1       2.648  14.963  18.556  0.00  0.00    +0.000 C 
BRANCH  10  14
ATOM     14  C   UNL     1       6.789  15.074  18.092  0.00  0.00    +0.000 C 
ATOM     15  C   UNL     1       7.907  16.120  17.951  0.00  0.00    +0.000 C 
ATOM     16  C   UNL     1       9.282  15.679  18.442  0.00  0.00    +0.000 C 
ATOM     17  C   UNL     1       9.696  14.299  17.951  0.00  0.00    +0.000 C 
ATOM     18  C   UNL     1       8.600  13.249  18.082  0.00  0.00    +0.000 C 
ATOM     19  C   UNL     1       7.240  13.710  17.561  0.00  0.00    +0.000 C 
ENDBRANCH  10  14
ENDBRANCH   1   6
BRANCH   3  20
ATOM     20  N   UNL     1       0.493  10.940  20.974  0.00  0.00    +0.000 N 
ATOM     21  C   UNL     1       0.815   9.999  19.972  0.00  0.00    +0.000 A 
ATOM     22  C   UNL     1       1.308   8.816  20.534  0.00  0.00    +0.000 A 
ATOM     23  C   UNL     1       1.297   9.170  21.909  0.00  0.00    +0.000 A 
ATOM     24  N   UNL     1       0.779  10.402  22.185  0.00  0.00    +0.000 NA
BRANCH  22  25
ATOM     25  C   UNL     1       1.864   7.674  19.723  0.00  0.00    +0.000 A 
ATOM     26  N   UNL     1       2.200   8.025  18.438  0.00  0.00    +0.000 NA
ATOM     27  C   UNL     1       3.132   7.301  17.787  0.00  0.00    +0.000 A 
ATOM     28  N   UNL     1       3.900   6.317  18.280  0.00  0.00    +0.000 NA
ATOM     29  C   UNL     1       3.362   5.847  19.411  0.00  0.00    +0.000 A 
ATOM     30  N   UNL     1       3.695   4.594  19.888  0.00  0.00    +0.000 N 
ATOM     31  C   UNL     1       2.497   4.050  20.302  0.00  0.00    +0.000 A 
ATOM     32  C   UNL     1       1.617   5.106  20.475  0.00  0.00    +0.000 A 
ATOM     33  C   UNL     1       2.258   6.349  20.105  0.00  0.00    +0.000 A 
ATOM     34  H   UNL     1       4.473   4.073  19.537  0.00  0.00    +0.000 HD
ENDBRANCH  22  25
ENDBRANCH   3  20
BRANCH   3  35
ATOM     35  C   UNL     1      -1.806  12.517  20.663  0.00  0.00    +0.000 C 
BRANCH  35  36
ATOM     36  C   UNL     1      -2.625  12.339  21.932  0.00  0.00    +0.000 C 
ATOM     37  N   UNL     1      -3.305  12.192  22.984  0.00  0.00    +0.000 NA
ENDBRANCH  35  36
ENDBRANCH   3  35
TORSDOF 6
ENDMDL
MODEL 4
REMARK VINA RESULT:      -7.6      1.521      2.221
REMARK  Name = 
REMARK  7 active torsions:
REMARK  status: ('A' for Active; 'I' for Inactive)
REMARK    1  A    between atoms: C_1  and  C_2
REMARK    2  A    between atoms: C_2  and  N_3
REMARK    3  A    between atoms: C_5  and  C_6
REMARK    4  A    between atoms: C_5  and  N_9
REMARK    5  A    between atoms: C_6  and  C_7
REMARK    6  A    between atoms: C_11  and  C_12
REMARK    7  A    between atoms: C_27  and  C_29
REMARK                            x       y       z     vdW  Elec       q    Type
REMARK                         _______ _______ _______ _____ _____    ______ ____
ROOT
ATOM      1  N   UNL     1       1.634  13.086  19.155  0.00  0.00    +0.000 NA
ATOM      2  C   UNL     1       1.610  12.409  20.466  0.00  0.00    +0.000 C 
ATOM      3  C   UNL     1       0.531  11.406  19.923  0.00  0.00    +0.000 C 
ATOM      4  C   UNL     1       0.313  12.540  18.830  0.00  0.00    +0.000 C 
ENDROOT
BRANCH   1   6
ATOM      5  C   UNL     1       0.488  15.370  18.984  0.00  0.00    +0.000 C 
ATOM      6  C   UNL     1       1.793  14.558  19.160  0.00  0.00    +0.000 C 
ATOM      7  C   UNL     1       2.470  14.980  20.500  0.00  0.00    +0.000 C 
ATOM      8  C   UNL     1       3.921  14.491  20.638  0.00  0.00    +0.000 C 
ATOM      9  N   UNL     1       4.736  14.897  19.488  0.00  0.00    +0.000 N 
ATOM     10  C   UNL     1       6.002  15.464  19.709  0.00  0.00    +0.000 C 
ATOM     11  O   UNL     1       6.460  15.585  20.838  0.00  0.00    +0.000 OA
ATOM     12  C   UNL     1       4.187  14.478  18.199  0.00  0.00    +0.000 C 
ATOM     13  C   UNL     1       2.762  14.998  18.021  0.00  0.00    +0.000 C 
BRANCH  10  14
ATOM     14  C   UNL     1       6.790  15.962  18.480  0.00  0.00    +0.000 C 
ATOM     15  C   UNL     1       7.571  17.257  18.760  0.00  0.00    +0.000 C 
ATOM     16  C   UNL     1       8.905  17.076  19.477  0.00  0.00    +0.000 C 
ATOM     17  C   UNL     1       9.775  15.975  18.886  0.00  0.00    +0.000 C 
ATOM     18  C   UNL     1       9.019  14.684  18.601  0.00  0.00    +0.000 C 
ATOM     19  C   UNL     1       7.699  14.895  17.861  0.00  0.00    +0.000 C 
ENDBRANCH  10  14
ENDBRANCH   1   6
BRANCH   3  20
ATOM     20  N   UNL     1       1.184  10.196  19.202  0.00  0.00    +0.000 N 
ATOM     21  C   UNL     1       1.355   8.901  19.736  0.00  0.00    +0.000 A 
ATOM     22  C   UNL     1       2.092   8.091  18.865  0.00  0.00    +0.000 A 
ATOM     23  C   UNL     1       2.275   8.992  17.784  0.00  0.00    +0.000 A 
ATOM     24  N   UNL     1       1.783  10.249  17.988  0.00  0.00    +0.000 NA
BRANCH  22  25
ATOM     25  C   UNL     1       2.328   6.619  19.089  0.00  0.00    +0.000 A 
ATOM     26  N   UNL     1       1.978   6.192  20.348  0.00  0.00    +0.000 NA
ATOM     27  C   UNL     1       1.657   4.896  20.530  0.00  0.00    +0.000 A 
ATOM     28  N   UNL     1       1.506   3.947  19.594  0.00  0.00    +0.000 NA
ATOM     29  C   UNL     1       2.103   4.332  18.460  0.00  0.00    +0.000 A 
ATOM     30  N   UNL     1       2.462   3.407  17.499  0.00  0.00    +0.000 N 
ATOM     31  C   UNL     1       3.718   3.804  17.086  0.00  0.00    +0.000 A 
ATOM     32  C   UNL     1       3.860   5.131  17.459  0.00  0.00    +0.000 A 
ATOM     33  C   UNL     1       2.684   5.571  18.178  0.00  0.00    +0.000 A 
ATOM     34  H   UNL     1       2.130   2.464  17.507  0.00  0.00    +0.000 HD
ENDBRANCH  22  25
ENDBRANCH   3  20
BRANCH   3  35
ATOM     35  C   UNL     1      -0.833  11.299  20.810  0.00  0.00    +0.000 C 
BRANCH  35  36
ATOM     36  C   UNL     1      -0.729  10.759  22.228  0.00  0.00    +0.000 C 
ATOM     37  N   UNL     1      -0.643  10.312  23.403  0.00  0.00    +0.000 NA
ENDBRANCH  35  36
ENDBRANCH   3  35
TORSDOF 6
ENDMDL
MODEL 5
REMARK VINA RESULT:      -7.6      1.567      2.287
REMARK  Name = 
REMARK  7 active torsions:
REMARK  status: ('A' for Active; 'I' for Inactive)
REMARK    1  A    between atoms: C_1  and  C_2
REMARK    2  A    between atoms: C_2  and  N_3
REMARK    3  A    between atoms: C_5  and  C_6
REMARK    4  A    between atoms: C_5  and  N_9
REMARK    5  A    between atoms: C_6  and  C_7
REMARK    6  A    between atoms: C_11  and  C_12
REMARK    7  A    between atoms: C_27  and  C_29
REMARK                            x       y       z     vdW  Elec       q    Type
REMARK                         _______ _______ _______ _____ _____    ______ ____
ROOT
ATOM      1  N   UNL     1       1.337  12.413  19.192  0.00  0.00    +0.000 NA
ATOM      2  C   UNL     1       1.614  11.764  20.488  0.00  0.00    +0.000 C 
ATOM      3  C   UNL     1       0.602  10.620  20.126  0.00  0.00    +0.000 C 
ATOM      4  C   UNL     1       0.064  11.693  19.084  0.00  0.00    +0.000 C 
ENDROOT
BRANCH   1   6
ATOM      5  C   UNL     1      -0.097  14.522  18.960  0.00  0.00    +0.000 C 
ATOM      6  C   UNL     1       1.300  13.893  19.173  0.00  0.00    +0.000 C 
ATOM      7  C   UNL     1       1.889  14.421  20.516  0.00  0.00    +0.000 C 
ATOM      8  C   UNL     1       3.389  14.131  20.689  0.00  0.00    +0.000 C 
ATOM      9  N   UNL     1       4.166  14.622  19.547  0.00  0.00    +0.000 N 
ATOM     10  C   UNL     1       5.342  15.355  19.779  0.00  0.00    +0.000 C 
ATOM     11  O   UNL     1       5.757  15.554  20.913  0.00  0.00    +0.000 OA
ATOM     12  C   UNL     1       3.703  14.115  18.256  0.00  0.00    +0.000 C 
ATOM     13  C   UNL     1       2.225  14.439  18.043  0.00  0.00    +0.000 C 
BRANCH  10  14
ATOM     14  C   UNL     1       6.081  15.935  18.555  0.00  0.00    +0.000 C 
ATOM     15  C   UNL     1       6.840  17.232  18.880  0.00  0.00    +0.000 C 
ATOM     16  C   UNL     1       8.199  17.046  19.547  0.00  0.00    +0.000 C 
ATOM     17  C   UNL     1       9.076  15.999  18.876  0.00  0.00    +0.000 C 
ATOM     18  C   UNL     1       8.340  14.706  18.546  0.00  0.00    +0.000 C 
ATOM     19  C   UNL     1       6.995  14.922  17.856  0.00  0.00    +0.000 C 
ENDBRANCH  10  14
ENDBRANCH   1   6
BRANCH   3  20
ATOM     20  N   UNL     1       1.284   9.490  19.307  0.00  0.00    +0.000 N 
ATOM     21  C   UNL     1       1.518   8.168  19.744  0.00  0.00    +0.000 A 
ATOM     22  C   UNL     1       2.264   7.452  18.802  0.00  0.00    +0.000 A 
ATOM     23  C   UNL     1       2.387   8.434  17.784  0.00  0.00    +0.000 A 
ATOM     24  N   UNL     1       1.852   9.652  18.087  0.00  0.00    +0.000 NA
BRANCH  22  25
ATOM     25  C   UNL     1       2.561   5.978  18.915  0.00  0.00    +0.000 A 
ATOM     26  N   UNL     1       3.481   5.531  17.998  0.00  0.00    +0.000 NA
ATOM     27  C   UNL     1       4.199   4.426  18.281  0.00  0.00    +0.000 A 
ATOM     28  N   UNL     1       4.231   3.740  19.433  0.00  0.00    +0.000 NA
ATOM     29  C   UNL     1       3.155   4.042  20.169  0.00  0.00    +0.000 A 
ATOM     30  N   UNL     1       2.724   3.197  21.174  0.00  0.00    +0.000 N 
ATOM     31  C   UNL     1       1.351   3.169  21.039  0.00  0.00    +0.000 A 
ATOM     32  C   UNL     1       0.999   4.287  20.300  0.00  0.00    +0.000 A 
ATOM     33  C   UNL     1       2.186   5.014  19.908  0.00  0.00    +0.000 A 
ATOM     34  H   UNL     1       3.283   2.446  21.524  0.00  0.00    +0.000 HD
ENDBRANCH  22  25
ENDBRANCH   3  20
BRANCH   3  35
ATOM     35  C   UNL     1      -0.575  10.353  21.222  0.00  0.00    +0.000 C 
BRANCH  35  36
ATOM     36  C   UNL     1      -0.169   9.960  22.634  0.00  0.00    +0.000 C 
ATOM     37  N   UNL     1       0.168   9.634  23.804  0.00  0.00    +0.000 NA
ENDBRANCH  35  36
ENDBRANCH   3  35
TORSDOF 6
ENDMDL
MODEL 6
REMARK VINA RESULT:      -7.4      1.165      1.653
REMARK  Name = 
REMARK  7 active torsions:
REMARK  status: ('A' for Active; 'I' for Inactive)
REMARK    1  A    between atoms: C_1  and  C_2
REMARK    2  A    between atoms: C_2  and  N_3
REMARK    3  A    between atoms: C_5  and  C_6
REMARK    4  A    between atoms: C_5  and  N_9
REMARK    5  A    between atoms: C_6  and  C_7
REMARK    6  A    between atoms: C_11  and  C_12
REMARK    7  A    between atoms: C_27  and  C_29
REMARK                            x       y       z     vdW  Elec       q    Type
REMARK                         _______ _______ _______ _____ _____    ______ ____
ROOT
ATOM      1  N   UNL     1       1.524  13.041  19.292  0.00  0.00    +0.000 NA
ATOM      2  C   UNL     1       0.867  12.226  20.333  0.00  0.00    +0.000 C 
ATOM      3  C   UNL     1       0.159  11.380  19.217  0.00  0.00    +0.000 C 
ATOM      4  C   UNL     1       0.508  12.641  18.314  0.00  0.00    +0.000 C 
ENDROOT
BRANCH   1   6
ATOM      5  C   UNL     1       0.374  15.294  19.692  0.00  0.00    +0.000 C 
ATOM      6  C   UNL     1       1.688  14.485  19.571  0.00  0.00    +0.000 C 
ATOM      7  C   UNL     1       2.500  14.648  20.892  0.00  0.00    +0.000 C 
ATOM      8  C   UNL     1       3.956  14.166  20.783  0.00  0.00    +0.000 C 
ATOM      9  N   UNL     1       4.650  14.803  19.660  0.00  0.00    +0.000 N 
ATOM     10  C   UNL     1       5.934  15.337  19.858  0.00  0.00    +0.000 C 
ATOM     11  O   UNL     1       6.505  15.243  20.937  0.00  0.00    +0.000 OA
ATOM     12  C   UNL     1       3.970  14.637  18.376  0.00  0.00    +0.000 C 
ATOM     13  C   UNL     1       2.536  15.157  18.449  0.00  0.00    +0.000 C 
BRANCH  10  14
ATOM     14  C   UNL     1       6.593  16.081  18.678  0.00  0.00    +0.000 C 
ATOM     15  C   UNL     1       7.360  17.337  19.122  0.00  0.00    +0.000 C 
ATOM     16  C   UNL     1       8.758  17.089  19.679  0.00  0.00    +0.000 C 
ATOM     17  C   UNL     1       9.601  16.151  18.827  0.00  0.00    +0.000 C 
ATOM     18  C   UNL     1       8.858  14.900  18.377  0.00  0.00    +0.000 C 
ATOM     19  C   UNL     1       7.471  15.181  17.801  0.00  0.00    +0.000 C 
ENDBRANCH  10  14
ENDBRANCH   1   6
BRANCH   3  20
ATOM     20  N   UNL     1       1.055  10.208  18.730  0.00  0.00    +0.000 N 
ATOM     21  C   UNL     1       1.142   8.927  19.315  0.00  0.00    +0.000 A 
ATOM     22  C   UNL     1       2.138   8.160  18.700  0.00  0.00    +0.000 A 
ATOM     23  C   UNL     1       2.566   9.068  17.696  0.00  0.00    +0.000 A 
ATOM     24  N   UNL     1       1.967  10.294  17.731  0.00  0.00    +0.000 NA
BRANCH  22  25
ATOM     25  C   UNL     1       2.383   6.705  19.008  0.00  0.00    +0.000 A 
ATOM     26  N   UNL     1       2.077   6.359  20.302  0.00  0.00    +0.000 NA
ATOM     27  C   UNL     1       1.764   5.077  20.577  0.00  0.00    +0.000 A 
ATOM     28  N   UNL     1       1.583   4.071  19.708  0.00  0.00    +0.000 NA
ATOM     29  C   UNL     1       2.141   4.383  18.533  0.00  0.00    +0.000 A 
ATOM     30  N   UNL     1       2.469   3.399  17.620  0.00  0.00    +0.000 N 
ATOM     31  C   UNL     1       3.710   3.769  17.141  0.00  0.00    +0.000 A 
ATOM     32  C   UNL     1       3.862   5.116  17.425  0.00  0.00    +0.000 A 
ATOM     33  C   UNL     1       2.711   5.601  18.154  0.00  0.00    +0.000 A 
ATOM     34  H   UNL     1       2.139   2.459  17.699  0.00  0.00    +0.000 HD
ENDBRANCH  22  25
ENDBRANCH   3  20
BRANCH   3  35
ATOM     35  C   UNL     1      -1.465  11.284  19.336  0.00  0.00    +0.000 C 
BRANCH  35  36
ATOM     36  C   UNL     1      -2.211  10.426  18.326  0.00  0.00    +0.000 C 
ATOM     37  N   UNL     1      -2.830   9.715  17.489  0.00  0.00    +0.000 NA
ENDBRANCH  35  36
ENDBRANCH   3  35
TORSDOF 6
ENDMDL
MODEL 7
REMARK VINA RESULT:      -7.4      3.132      8.639
REMARK  Name = 
REMARK  7 active torsions:
REMARK  status: ('A' for Active; 'I' for Inactive)
REMARK    1  A    between atoms: C_1  and  C_2
REMARK    2  A    between atoms: C_2  and  N_3
REMARK    3  A    between atoms: C_5  and  C_6
REMARK    4  A    between atoms: C_5  and  N_9
REMARK    5  A    between atoms: C_6  and  C_7
REMARK    6  A    between atoms: C_11  and  C_12
REMARK    7  A    between atoms: C_27  and  C_29
REMARK                            x       y       z     vdW  Elec       q    Type
REMARK                         _______ _______ _______ _____ _____    ______ ____
ROOT
ATOM      1  N   UNL     1       4.067   6.463  18.208  0.00  0.00    +0.000 NA
ATOM      2  C   UNL     1       4.934   5.298  18.472  0.00  0.00    +0.000 C 
ATOM      3  C   UNL     1       5.927   5.791  17.360  0.00  0.00    +0.000 C 
ATOM      4  C   UNL     1       4.663   6.627  16.878  0.00  0.00    +0.000 C 
ENDROOT
BRANCH   1   6
ATOM      5  C   UNL     1       2.107   4.864  17.807  0.00  0.00    +0.000 C 
ATOM      6  C   UNL     1       2.605   6.247  18.291  0.00  0.00    +0.000 C 
ATOM      7  C   UNL     1       2.155   6.454  19.769  0.00  0.00    +0.000 C 
ATOM      8  C   UNL     1       2.302   7.903  20.260  0.00  0.00    +0.000 C 
ATOM      9  N   UNL     1       1.620   8.845  19.368  0.00  0.00    +0.000 N 
ATOM     10  C   UNL     1       0.794   9.840  19.919  0.00  0.00    +0.000 C 
ATOM     11  O   UNL     1       0.668   9.966  21.130  0.00  0.00    +0.000 OA
ATOM     12  C   UNL     1       2.041   8.745  17.971  0.00  0.00    +0.000 C 
ATOM     13  C   UNL     1       1.854   7.322  17.448  0.00  0.00    +0.000 C 
BRANCH  10  14
ATOM     14  C   UNL     1       0.021  10.753  18.945  0.00  0.00    +0.000 C 
ATOM     15  C   UNL     1      -1.445  10.955  19.358  0.00  0.00    +0.000 C 
ATOM     16  C   UNL     1      -1.682  12.000  20.444  0.00  0.00    +0.000 C 
ATOM     17  C   UNL     1      -0.948  13.312  20.204  0.00  0.00    +0.000 C 
ATOM     18  C   UNL     1       0.507  13.132  19.792  0.00  0.00    +0.000 C 
ATOM     19  C   UNL     1       0.711  12.097  18.687  0.00  0.00    +0.000 C 
ENDBRANCH  10  14
ENDBRANCH   1   6
BRANCH   3  20
ATOM     20  N   UNL     1       6.959   6.807  17.922  0.00  0.00    +0.000 N 
ATOM     21  C   UNL     1       7.178   8.119  17.452  0.00  0.00    +0.000 A 
ATOM     22  C   UNL     1       8.265   8.712  18.103  0.00  0.00    +0.000 A 
ATOM     23  C   UNL     1       8.608   7.673  19.008  0.00  0.00    +0.000 A 
ATOM     24  N   UNL     1       7.874   6.530  18.882  0.00  0.00    +0.000 NA
BRANCH  22  25
ATOM     25  C   UNL     1       8.666  10.153  17.918  0.00  0.00    +0.000 A 
ATOM     26  N   UNL     1       7.754  10.889  17.202  0.00  0.00    +0.000 NA
ATOM     27  C   UNL     1       7.710  12.224  17.381  0.00  0.00    +0.000 A 
ATOM     28  N   UNL     1       8.376  12.954  18.289  0.00  0.00    +0.000 NA
ATOM     29  C   UNL     1       9.415  12.253  18.758  0.00  0.00    +0.000 A 
ATOM     30  N   UNL     1      10.482  12.887  19.364  0.00  0.00    +0.000 N 
ATOM     31  C   UNL     1      11.598  12.248  18.860  0.00  0.00    +0.000 A 
ATOM     32  C   UNL     1      11.168  11.030  18.360  0.00  0.00    +0.000 A 
ATOM     33  C   UNL     1       9.732  10.917  18.498  0.00  0.00    +0.000 A 
ATOM     34  H   UNL     1      10.449  13.844  19.652  0.00  0.00    +0.000 HD
ENDBRANCH  22  25
ENDBRANCH   3  20
BRANCH   3  35
ATOM     35  C   UNL     1       6.276   4.700  16.200  0.00  0.00    +0.000 C 
BRANCH  35  36
ATOM     36  C   UNL     1       7.144   5.143  15.032  0.00  0.00    +0.000 C 
ATOM     37  N   UNL     1       7.863   5.510  14.064  0.00  0.00    +0.000 NA
ENDBRANCH  35  36
ENDBRANCH   3  35
TORSDOF 6
ENDMDL
MODEL 8
REMARK VINA RESULT:      -7.4      1.061      1.121
REMARK  Name = 
REMARK  7 active torsions:
REMARK  status: ('A' for Active; 'I' for Inactive)
REMARK    1  A    between atoms: C_1  and  C_2
REMARK    2  A    between atoms: C_2  and  N_3
REMARK    3  A    between atoms: C_5  and  C_6
REMARK    4  A    between atoms: C_5  and  N_9
REMARK    5  A    between atoms: C_6  and  C_7
REMARK    6  A    between atoms: C_11  and  C_12
REMARK    7  A    between atoms: C_27  and  C_29
REMARK                            x       y       z     vdW  Elec       q    Type
REMARK                         _______ _______ _______ _____ _____    ______ ____
ROOT
ATOM      1  N   UNL     1       0.991  12.304  19.754  0.00  0.00    +0.000 NA
ATOM      2  C   UNL     1      -0.240  11.601  20.164  0.00  0.00    +0.000 C 
ATOM      3  C   UNL     1      -0.050  10.588  18.980  0.00  0.00    +0.000 C 
ATOM      4  C   UNL     1       0.886  11.738  18.406  0.00  0.00    +0.000 C 
ENDROOT
BRANCH   1   6
ATOM      5  C   UNL     1      -0.390  14.448  19.983  0.00  0.00    +0.000 C 
ATOM      6  C   UNL     1       1.001  13.778  19.888  0.00  0.00    +0.000 C 
ATOM      7  C   UNL     1       1.829  14.157  21.153  0.00  0.00    +0.000 C 
ATOM      8  C   UNL     1       3.326  13.827  21.032  0.00  0.00    +0.000 C 
ATOM      9  N   UNL     1       3.911  14.421  19.826  0.00  0.00    +0.000 N 
ATOM     10  C   UNL     1       5.133  15.108  19.921  0.00  0.00    +0.000 C 
ATOM     11  O   UNL     1       5.743  15.183  20.980  0.00  0.00    +0.000 OA
ATOM     12  C   UNL     1       3.216  14.056  18.592  0.00  0.00    +0.000 C 
ATOM     13  C   UNL     1       1.736  14.423  18.673  0.00  0.00    +0.000 C 
BRANCH  10  14
ATOM     14  C   UNL     1       5.670  15.797  18.650  0.00  0.00    +0.000 C 
ATOM     15  C   UNL     1       6.323  17.158  18.944  0.00  0.00    +0.000 C 
ATOM     16  C   UNL     1       7.758  17.100  19.456  0.00  0.00    +0.000 C 
ATOM     17  C   UNL     1       8.659  16.172  18.654  0.00  0.00    +0.000 C 
ATOM     18  C   UNL     1       8.029  14.818  18.352  0.00  0.00    +0.000 C 
ATOM     19  C   UNL     1       6.601  14.909  17.818  0.00  0.00    +0.000 C 
ENDBRANCH  10  14
ENDBRANCH   1   6
BRANCH   3  20
ATOM     20  N   UNL     1       0.873   9.405  19.381  0.00  0.00    +0.000 N 
ATOM     21  C   UNL     1       1.657   8.625  18.503  0.00  0.00    +0.000 A 
ATOM     22  C   UNL     1       2.268   7.565  19.182  0.00  0.00    +0.000 A 
ATOM     23  C   UNL     1       1.826   7.830  20.505  0.00  0.00    +0.000 A 
ATOM     24  N   UNL     1       0.969   8.885  20.629  0.00  0.00    +0.000 NA
BRANCH  22  25
ATOM     25  C   UNL     1       3.272   6.635  18.551  0.00  0.00    +0.000 A 
ATOM     26  N   UNL     1       3.930   7.185  17.477  0.00  0.00    +0.000 NA
ATOM     27  C   UNL     1       5.147   6.710  17.146  0.00  0.00    +0.000 A 
ATOM     28  N   UNL     1       5.893   5.820  17.819  0.00  0.00    +0.000 NA
ATOM     29  C   UNL     1       5.122   5.138  18.673  0.00  0.00    +0.000 A 
ATOM     30  N   UNL     1       5.525   3.913  19.169  0.00  0.00    +0.000 N 
ATOM     31  C   UNL     1       4.390   3.129  19.122  0.00  0.00    +0.000 A 
ATOM     32  C   UNL     1       3.310   3.993  19.040  0.00  0.00    +0.000 A 
ATOM     33  C   UNL     1       3.776   5.361  18.975  0.00  0.00    +0.000 A 
ATOM     34  H   UNL     1       6.461   3.576  19.078  0.00  0.00    +0.000 HD
ENDBRANCH  22  25
ENDBRANCH   3  20
BRANCH   3  35
ATOM     35  C   UNL     1      -1.327  10.435  17.977  0.00  0.00    +0.000 C 
BRANCH  35  36
ATOM     36  C   UNL     1      -2.614  11.160  18.337  0.00  0.00    +0.000 C 
ATOM     37  N   UNL     1      -3.682  11.760  18.634  0.00  0.00    +0.000 NA
ENDBRANCH  35  36
ENDBRANCH   3  35
TORSDOF 6
ENDMDL
MODEL 9
REMARK VINA RESULT:      -7.4      4.044      6.933
REMARK  Name = 
REMARK  7 active torsions:
REMARK  status: ('A' for Active; 'I' for Inactive)
REMARK    1  A    between atoms: C_1  and  C_2
REMARK    2  A    between atoms: C_2  and  N_3
REMARK    3  A    between atoms: C_5  and  C_6
REMARK    4  A    between atoms: C_5  and  N_9
REMARK    5  A    between atoms: C_6  and  C_7
REMARK    6  A    between atoms: C_11  and  C_12
REMARK    7  A    between atoms: C_27  and  C_29
REMARK                            x       y       z     vdW  Elec       q    Type
REMARK                         _______ _______ _______ _____ _____    ______ ____
ROOT
ATOM      1  N   UNL     1       0.589  11.475  19.270  0.00  0.00    +0.000 NA
ATOM      2  C   UNL     1       1.229  10.938  20.487  0.00  0.00    +0.000 C 
ATOM      3  C   UNL     1       0.629   9.522  20.171  0.00  0.00    +0.000 C 
ATOM      4  C   UNL     1      -0.367  10.363  19.261  0.00  0.00    +0.000 C 
ENDROOT
BRANCH   1   6
ATOM      5  C   UNL     1       0.877  13.932  18.606  0.00  0.00    +0.000 C 
ATOM      6  C   UNL     1       0.050  12.852  19.344  0.00  0.00    +0.000 C 
ATOM      7  C   UNL     1      -1.399  12.849  18.770  0.00  0.00    +0.000 C 
ATOM      8  C   UNL     1      -2.400  12.057  19.627  0.00  0.00    +0.000 C 
ATOM      9  N   UNL     1      -2.389  12.510  21.021  0.00  0.00    +0.000 N 
ATOM     10  C   UNL     1      -3.609  12.750  21.675  0.00  0.00    +0.000 C 
ATOM     11  O   UNL     1      -4.682  12.547  21.121  0.00  0.00    +0.000 OA
ATOM     12  C   UNL     1      -1.066  12.479  21.641  0.00  0.00    +0.000 C 
ATOM     13  C   UNL     1      -0.067  13.304  20.831  0.00  0.00    +0.000 C 
BRANCH  10  14
ATOM     14  C   UNL     1      -3.556  13.313  23.111  0.00  0.00    +0.000 C 
ATOM     15  C   UNL     1      -3.588  14.850  23.147  0.00  0.00    +0.000 C 
ATOM     16  C   UNL     1      -4.970  15.480  23.007  0.00  0.00    +0.000 C 
ATOM     17  C   UNL     1      -6.028  14.843  23.898  0.00  0.00    +0.000 C 
ATOM     18  C   UNL     1      -6.011  13.321  23.875  0.00  0.00    +0.000 C 
ATOM     19  C   UNL     1      -4.618  12.718  24.042  0.00  0.00    +0.000 C 
ENDBRANCH  10  14
ENDBRANCH   1   6
BRANCH   3  20
ATOM     20  N   UNL     1       1.546   8.711  19.216  0.00  0.00    +0.000 N 
ATOM     21  C   UNL     1       2.122   7.450  19.484  0.00  0.00    +0.000 A 
ATOM     22  C   UNL     1       2.993   7.067  18.458  0.00  0.00    +0.000 A 
ATOM     23  C   UNL     1       2.828   8.162  17.570  0.00  0.00    +0.000 A 
ATOM     24  N   UNL     1       2.012   9.158  18.024  0.00  0.00    +0.000 NA
BRANCH  22  25
ATOM     25  C   UNL     1       3.657   5.716  18.386  0.00  0.00    +0.000 A 
ATOM     26  N   UNL     1       5.022   5.766  18.534  0.00  0.00    +0.000 NA
ATOM     27  C   UNL     1       5.669   4.674  18.986  0.00  0.00    +0.000 A 
ATOM     28  N   UNL     1       5.133   3.533  19.448  0.00  0.00    +0.000 NA
ATOM     29  C   UNL     1       3.862   3.434  19.041  0.00  0.00    +0.000 A 
ATOM     30  N   UNL     1       3.222   2.211  19.009  0.00  0.00    +0.000 N 
ATOM     31  C   UNL     1       2.525   2.214  17.818  0.00  0.00    +0.000 A 
ATOM     32  C   UNL     1       2.411   3.537  17.425  0.00  0.00    +0.000 A 
ATOM     33  C   UNL     1       3.104   4.393  18.363  0.00  0.00    +0.000 A 
ATOM     34  H   UNL     1       3.590   1.397  19.458  0.00  0.00    +0.000 HD
ENDBRANCH  22  25
ENDBRANCH   3  20
BRANCH   3  35
ATOM     35  C   UNL     1      -0.242   8.847  21.373  0.00  0.00    +0.000 C 
BRANCH  35  36
ATOM     36  C   UNL     1       0.084   9.239  22.806  0.00  0.00    +0.000 C 
ATOM     37  N   UNL     1       0.355   9.563  23.994  0.00  0.00    +0.000 NA
ENDBRANCH  35  36
ENDBRANCH   3  35
TORSDOF 6
ENDMDL
