MODEL 1
REMARK VINA RESULT:      -8.2      0.000      0.000
REMARK  Name = 
REMARK  8 active torsions:
REMARK  status: ('A' for Active; 'I' for Inactive)
REMARK    1  A    between atoms: C_1  and  O_2
REMARK    2  A    between atoms: O_2  and  C_3
REMARK    3  A    between atoms: C_6  and  C_7
REMARK    4  A    between atoms: C_9  and  C_10
REMARK    5  A    between atoms: C_13  and  O_14
REMARK    6  A    between atoms: O_14  and  C_15
REMARK    7  A    between atoms: C_27  and  O_28
REMARK    8  A    between atoms: O_28  and  C_29
REMARK                            x       y       z     vdW  Elec       q    Type
REMARK                         _______ _______ _______ _____ _____    ______ ____
ROOT
ATOM      1  C   UNL     1       8.973  10.234  18.236  0.00  0.00    +0.000 A 
ATOM      2  N   UNL     1       8.149   9.521  17.499  0.00  0.00    +0.000 NA
ATOM      3  C   UNL     1       8.074   8.336  18.196  0.00  0.00    +0.000 A 
ATOM      4  N   UNL     1       8.816   8.313  19.315  0.00  0.00    +0.000 NA
ATOM      5  O   UNL     1       9.412   9.568  19.342  0.00  0.00    +0.000 OA
ENDROOT
BRANCH   1   9
ATOM      6  C   UNL     1      10.377  14.188  17.429  0.00  0.00    +0.000 A 
ATOM      7  C   UNL     1      11.201  13.079  17.174  0.00  0.00    +0.000 A 
ATOM      8  C   UNL     1      10.763  11.784  17.447  0.00  0.00    +0.000 A 
ATOM      9  C   UNL     1       9.504  11.569  18.014  0.00  0.00    +0.000 A 
ATOM     10  C   UNL     1       8.726  12.684  18.352  0.00  0.00    +0.000 A 
ATOM     11  C   UNL     1       9.149  13.994  18.075  0.00  0.00    +0.000 A 
BRANCH   6  13
ATOM     12  C   UNL     1      11.776  16.030  17.921  0.00  0.00    +0.000 C 
ATOM     13  O   UNL     1      10.777  15.450  17.081  0.00  0.00    +0.000 OA
ENDBRANCH   6  13
BRANCH  11  14
ATOM     14  O   UNL     1       8.226  14.922  18.474  0.00  0.00    +0.000 OA
ATOM     15  C   UNL     1       7.031  15.075  17.726  0.00  0.00    +0.000 C 
ENDBRANCH  11  14
ENDBRANCH   1   9
BRANCH   3  16
ATOM     16  C   UNL     1       7.272   7.209  17.734  0.00  0.00    +0.000 A 
ATOM     17  C   UNL     1       7.590   5.898  18.113  0.00  0.00    +0.000 A 
ATOM     18  C   UNL     1       6.791   4.830  17.703  0.00  0.00    +0.000 A 
ATOM     19  C   UNL     1       5.668   5.058  16.906  0.00  0.00    +0.000 A 
ATOM     20  C   UNL     1       5.387   6.352  16.462  0.00  0.00    +0.000 A 
ATOM     21  C   UNL     1       6.165   7.425  16.901  0.00  0.00    +0.000 A 
BRANCH  19  22
ATOM     22  O   UNL     1       4.931   3.948  16.566  0.00  0.00    +0.000 OA
BRANCH  22  23
ATOM     23  C   UNL     1       3.764   3.670  17.240  0.00  0.00    +0.000 A 
ATOM     24  C   UNL     1       3.603   2.345  17.657  0.00  0.00    +0.000 A 
ATOM     25  C   UNL     1       2.450   1.961  18.343  0.00  0.00    +0.000 A 
ATOM     26  C   UNL     1       1.466   2.905  18.608  0.00  0.00    +0.000 A 
ATOM     27  F   UNL     1       0.347   2.532  19.244  0.00  0.00    +0.000 F 
ATOM     28  C   UNL     1       1.627   4.233  18.232  0.00  0.00    +0.000 A 
ATOM     29  C   UNL     1       2.793   4.624  17.572  0.00  0.00    +0.000 A 
ENDBRANCH  22  23
ENDBRANCH  19  22
ENDBRANCH   3  16
TORSDOF 6
ENDMDL
MODEL 2
REMARK VINA RESULT:      -8.2      8.268      9.932
REMARK  Name = 
REMARK  8 active torsions:
REMARK  status: ('A' for Active; 'I' for Inactive)
REMARK    1  A    between atoms: C_1  and  O_2
REMARK    2  A    between atoms: O_2  and  C_3
REMARK    3  A    between atoms: C_6  and  C_7
REMARK    4  A    between atoms: C_9  and  C_10
REMARK    5  A    between atoms: C_13  and  O_14
REMARK    6  A    between atoms: O_14  and  C_15
REMARK    7  A    between atoms: C_27  and  O_28
REMARK    8  A    between atoms: O_28  and  C_29
REMARK                            x       y       z     vdW  Elec       q    Type
REMARK                         _______ _______ _______ _____ _____    ______ ____
ROOT
ATOM      1  C   UNL     1      -1.024  11.416  22.528  0.00  0.00    +0.000 A 
ATOM      2  N   UNL     1      -0.677  10.931  21.357  0.00  0.00    +0.000 NA
ATOM      3  C   UNL     1       0.234   9.956  21.694  0.00  0.00    +0.000 A 
ATOM      4  N   UNL     1       0.444   9.839  23.016  0.00  0.00    +0.000 NA
ATOM      5  O   UNL     1      -0.388  10.806  23.569  0.00  0.00    +0.000 OA
ENDROOT
BRANCH   1   9
ATOM      6  C   UNL     1      -3.634  14.589  23.703  0.00  0.00    +0.000 A 
ATOM      7  C   UNL     1      -4.130  13.503  22.963  0.00  0.00    +0.000 A 
ATOM      8  C   UNL     1      -3.287  12.468  22.559  0.00  0.00    +0.000 A 
ATOM      9  C   UNL     1      -1.922  12.513  22.855  0.00  0.00    +0.000 A 
ATOM     10  C   UNL     1      -1.419  13.643  23.511  0.00  0.00    +0.000 A 
ATOM     11  C   UNL     1      -2.255  14.688  23.933  0.00  0.00    +0.000 A 
BRANCH   6  13
ATOM     12  C   UNL     1      -5.842  15.434  23.763  0.00  0.00    +0.000 C 
ATOM     13  O   UNL     1      -4.479  15.560  24.170  0.00  0.00    +0.000 OA
ENDBRANCH   6  13
BRANCH  11  14
ATOM     14  O   UNL     1      -1.553  15.678  24.565  0.00  0.00    +0.000 OA
ATOM     15  C   UNL     1      -1.358  15.599  25.968  0.00  0.00    +0.000 C 
ENDBRANCH  11  14
ENDBRANCH   1   9
BRANCH   3  16
ATOM     16  C   UNL     1       0.917   9.146  20.692  0.00  0.00    +0.000 A 
ATOM     17  C   UNL     1       1.031   9.588  19.367  0.00  0.00    +0.000 A 
ATOM     18  C   UNL     1       1.724   8.827  18.425  0.00  0.00    +0.000 A 
ATOM     19  C   UNL     1       2.308   7.614  18.794  0.00  0.00    +0.000 A 
ATOM     20  C   UNL     1       2.136   7.131  20.094  0.00  0.00    +0.000 A 
ATOM     21  C   UNL     1       1.473   7.908  21.045  0.00  0.00    +0.000 A 
BRANCH  19  22
ATOM     22  O   UNL     1       2.988   6.942  17.805  0.00  0.00    +0.000 OA
BRANCH  22  23
ATOM     23  C   UNL     1       3.014   5.566  17.806  0.00  0.00    +0.000 A 
ATOM     24  C   UNL     1       4.283   4.982  17.868  0.00  0.00    +0.000 A 
ATOM     25  C   UNL     1       4.416   3.593  17.867  0.00  0.00    +0.000 A 
ATOM     26  C   UNL     1       3.278   2.797  17.806  0.00  0.00    +0.000 A 
ATOM     27  F   UNL     1       3.405   1.464  17.780  0.00  0.00    +0.000 F 
ATOM     28  C   UNL     1       2.009   3.362  17.781  0.00  0.00    +0.000 A 
ATOM     29  C   UNL     1       1.874   4.752  17.811  0.00  0.00    +0.000 A 
ENDBRANCH  22  23
ENDBRANCH  19  22
ENDBRANCH   3  16
TORSDOF 6
ENDMDL
MODEL 3
REMARK VINA RESULT:      -8.1      8.377     10.083
REMARK  Name = 
REMARK  8 active torsions:
REMARK  status: ('A' for Active; 'I' for Inactive)
REMARK    1  A    between atoms: C_1  and  O_2
REMARK    2  A    between atoms: O_2  and  C_3
REMARK    3  A    between atoms: C_6  and  C_7
REMARK    4  A    between atoms: C_9  and  C_10
REMARK    5  A    between atoms: C_13  and  O_14
REMARK    6  A    between atoms: O_14  and  C_15
REMARK    7  A    between atoms: C_27  and  O_28
REMARK    8  A    between atoms: O_28  and  C_29
REMARK                            x       y       z     vdW  Elec       q    Type
REMARK                         _______ _______ _______ _____ _____    ______ ____
ROOT
ATOM      1  C   UNL     1      -0.959  11.177  22.609  0.00  0.00    +0.000 A 
ATOM      2  N   UNL     1      -0.580  10.784  21.414  0.00  0.00    +0.000 NA
ATOM      3  C   UNL     1       0.316   9.778  21.700  0.00  0.00    +0.000 A 
ATOM      4  N   UNL     1       0.485   9.555  23.014  0.00  0.00    +0.000 NA
ATOM      5  O   UNL     1      -0.358  10.482  23.617  0.00  0.00    +0.000 OA
ENDROOT
BRANCH   1   9
ATOM      6  C   UNL     1      -3.751  14.261  23.587  0.00  0.00    +0.000 A 
ATOM      7  C   UNL     1      -2.492  14.589  23.057  0.00  0.00    +0.000 A 
ATOM      8  C   UNL     1      -1.564  13.595  22.748  0.00  0.00    +0.000 A 
ATOM      9  C   UNL     1      -1.860  12.251  22.995  0.00  0.00    +0.000 A 
ATOM     10  C   UNL     1      -3.079  11.940  23.610  0.00  0.00    +0.000 A 
ATOM     11  C   UNL     1      -4.028  12.928  23.918  0.00  0.00    +0.000 A 
BRANCH   6  13
ATOM     12  C   UNL     1      -4.936  16.110  22.710  0.00  0.00    +0.000 C 
ATOM     13  O   UNL     1      -4.690  15.232  23.809  0.00  0.00    +0.000 OA
ENDBRANCH   6  13
BRANCH  11  14
ATOM     14  O   UNL     1      -5.148  12.395  24.496  0.00  0.00    +0.000 OA
ATOM     15  C   UNL     1      -6.406  12.587  23.871  0.00  0.00    +0.000 C 
ENDBRANCH  11  14
ENDBRANCH   1   9
BRANCH   3  16
ATOM     16  C   UNL     1       1.024   9.044  20.659  0.00  0.00    +0.000 A 
ATOM     17  C   UNL     1       1.602   7.796  20.926  0.00  0.00    +0.000 A 
ATOM     18  C   UNL     1       2.241   7.080  19.912  0.00  0.00    +0.000 A 
ATOM     19  C   UNL     1       2.312   7.604  18.620  0.00  0.00    +0.000 A 
ATOM     20  C   UNL     1       1.804   8.879  18.362  0.00  0.00    +0.000 A 
ATOM     21  C   UNL     1       1.135   9.580  19.367  0.00  0.00    +0.000 A 
BRANCH  19  22
ATOM     22  O   UNL     1       2.942   6.821  17.682  0.00  0.00    +0.000 OA
BRANCH  22  23
ATOM     23  C   UNL     1       2.923   5.451  17.811  0.00  0.00    +0.000 A 
ATOM     24  C   UNL     1       4.161   4.845  18.045  0.00  0.00    +0.000 A 
ATOM     25  C   UNL     1       4.249   3.459  18.184  0.00  0.00    +0.000 A 
ATOM     26  C   UNL     1       3.096   2.688  18.088  0.00  0.00    +0.000 A 
ATOM     27  F   UNL     1       3.182   1.356  18.195  0.00  0.00    +0.000 F 
ATOM     28  C   UNL     1       1.854   3.279  17.891  0.00  0.00    +0.000 A 
ATOM     29  C   UNL     1       1.762   4.668  17.782  0.00  0.00    +0.000 A 
ENDBRANCH  22  23
ENDBRANCH  19  22
ENDBRANCH   3  16
TORSDOF 6
ENDMDL
MODEL 4
REMARK VINA RESULT:      -8.1      8.172      9.847
REMARK  Name = 
REMARK  8 active torsions:
REMARK  status: ('A' for Active; 'I' for Inactive)
REMARK    1  A    between atoms: C_1  and  O_2
REMARK    2  A    between atoms: O_2  and  C_3
REMARK    3  A    between atoms: C_6  and  C_7
REMARK    4  A    between atoms: C_9  and  C_10
REMARK    5  A    between atoms: C_13  and  O_14
REMARK    6  A    between atoms: O_14  and  C_15
REMARK    7  A    between atoms: C_27  and  O_28
REMARK    8  A    between atoms: O_28  and  C_29
REMARK                            x       y       z     vdW  Elec       q    Type
REMARK                         _______ _______ _______ _____ _____    ______ ____
ROOT
ATOM      1  C   UNL     1      -0.809  11.307  22.445  0.00  0.00    +0.000 A 
ATOM      2  N   UNL     1      -0.455  10.816  21.278  0.00  0.00    +0.000 NA
ATOM      3  C   UNL     1       0.372   9.773  21.631  0.00  0.00    +0.000 A 
ATOM      4  N   UNL     1       0.523   9.622  22.957  0.00  0.00    +0.000 NA
ATOM      5  O   UNL     1      -0.257  10.637  23.497  0.00  0.00    +0.000 OA
ENDROOT
BRANCH   1   9
ATOM      6  C   UNL     1      -3.320  14.691  23.157  0.00  0.00    +0.000 A 
ATOM      7  C   UNL     1      -1.924  14.818  23.235  0.00  0.00    +0.000 A 
ATOM      8  C   UNL     1      -1.092  13.720  23.021  0.00  0.00    +0.000 A 
ATOM      9  C   UNL     1      -1.638  12.460  22.759  0.00  0.00    +0.000 A 
ATOM     10  C   UNL     1      -3.031  12.322  22.775  0.00  0.00    +0.000 A 
ATOM     11  C   UNL     1      -3.883  13.419  22.979  0.00  0.00    +0.000 A 
BRANCH   6  13
ATOM     12  C   UNL     1      -4.398  16.200  24.623  0.00  0.00    +0.000 C 
ATOM     13  O   UNL     1      -4.130  15.787  23.283  0.00  0.00    +0.000 OA
ENDBRANCH   6  13
BRANCH  11  14
ATOM     14  O   UNL     1      -5.201  13.056  22.938  0.00  0.00    +0.000 OA
ATOM     15  C   UNL     1      -5.826  12.864  21.679  0.00  0.00    +0.000 C 
ENDBRANCH  11  14
ENDBRANCH   1   9
BRANCH   3  16
ATOM     16  C   UNL     1       1.032   8.931  20.641  0.00  0.00    +0.000 A 
ATOM     17  C   UNL     1       1.230   9.384  19.330  0.00  0.00    +0.000 A 
ATOM     18  C   UNL     1       1.901   8.590  18.400  0.00  0.00    +0.000 A 
ATOM     19  C   UNL     1       2.381   7.331  18.768  0.00  0.00    +0.000 A 
ATOM     20  C   UNL     1       2.124   6.842  20.050  0.00  0.00    +0.000 A 
ATOM     21  C   UNL     1       1.483   7.650  20.991  0.00  0.00    +0.000 A 
BRANCH  19  22
ATOM     22  O   UNL     1       3.047   6.628  17.792  0.00  0.00    +0.000 OA
BRANCH  22  23
ATOM     23  C   UNL     1       3.112   5.255  17.862  0.00  0.00    +0.000 A 
ATOM     24  C   UNL     1       4.347   4.724  18.247  0.00  0.00    +0.000 A 
ATOM     25  C   UNL     1       4.516   3.342  18.342  0.00  0.00    +0.000 A 
ATOM     26  C   UNL     1       3.449   2.500  18.052  0.00  0.00    +0.000 A 
ATOM     27  F   UNL     1       3.617   1.173  18.118  0.00  0.00    +0.000 F 
ATOM     28  C   UNL     1       2.206   3.014  17.703  0.00  0.00    +0.000 A 
ATOM     29  C   UNL     1       2.028   4.397  17.636  0.00  0.00    +0.000 A 
ENDBRANCH  22  23
ENDBRANCH  19  22
ENDBRANCH   3  16
TORSDOF 6
ENDMDL
MODEL 5
REMARK VINA RESULT:      -8.0      8.127      9.817
REMARK  Name = 
REMARK  8 active torsions:
REMARK  status: ('A' for Active; 'I' for Inactive)
REMARK    1  A    between atoms: C_1  and  O_2
REMARK    2  A    between atoms: O_2  and  C_3
REMARK    3  A    between atoms: C_6  and  C_7
REMARK    4  A    between atoms: C_9  and  C_10
REMARK    5  A    between atoms: C_13  and  O_14
REMARK    6  A    between atoms: O_14  and  C_15
REMARK    7  A    between atoms: C_27  and  O_28
REMARK    8  A    between atoms: O_28  and  C_29
REMARK                            x       y       z     vdW  Elec       q    Type
REMARK                         _______ _______ _______ _____ _____    ______ ____
ROOT
ATOM      1  C   UNL     1      -1.131  11.378  22.428  0.00  0.00    +0.000 A 
ATOM      2  N   UNL     1      -0.785  10.857  21.272  0.00  0.00    +0.000 NA
ATOM      3  C   UNL     1       0.195   9.958  21.630  0.00  0.00    +0.000 A 
ATOM      4  N   UNL     1       0.445   9.921  22.950  0.00  0.00    +0.000 NA
ATOM      5  O   UNL     1      -0.431  10.861  23.479  0.00  0.00    +0.000 OA
ENDROOT
BRANCH   1   9
ATOM      6  C   UNL     1      -3.783  14.579  23.419  0.00  0.00    +0.000 A 
ATOM      7  C   UNL     1      -4.033  13.281  23.895  0.00  0.00    +0.000 A 
ATOM      8  C   UNL     1      -3.185  12.223  23.567  0.00  0.00    +0.000 A 
ATOM      9  C   UNL     1      -2.088  12.432  22.727  0.00  0.00    +0.000 A 
ATOM     10  C   UNL     1      -1.899  13.707  22.181  0.00  0.00    +0.000 A 
ATOM     11  C   UNL     1      -2.738  14.785  22.509  0.00  0.00    +0.000 A 
BRANCH   6  13
ATOM     12  C   UNL     1      -4.076  16.381  24.921  0.00  0.00    +0.000 C 
ATOM     13  O   UNL     1      -4.568  15.629  23.812  0.00  0.00    +0.000 OA
ENDBRANCH   6  13
BRANCH  11  14
ATOM     14  O   UNL     1      -2.358  15.937  21.875  0.00  0.00    +0.000 OA
ATOM     15  C   UNL     1      -3.059  16.349  20.714  0.00  0.00    +0.000 C 
ENDBRANCH  11  14
ENDBRANCH   1   9
BRANCH   3  16
ATOM     16  C   UNL     1       0.901   9.142  20.651  0.00  0.00    +0.000 A 
ATOM     17  C   UNL     1       1.042   9.573  19.325  0.00  0.00    +0.000 A 
ATOM     18  C   UNL     1       1.757   8.806  18.404  0.00  0.00    +0.000 A 
ATOM     19  C   UNL     1       2.338   7.599  18.795  0.00  0.00    +0.000 A 
ATOM     20  C   UNL     1       2.140   7.126  20.095  0.00  0.00    +0.000 A 
ATOM     21  C   UNL     1       1.454   7.908  21.025  0.00  0.00    +0.000 A 
BRANCH  19  22
ATOM     22  O   UNL     1       3.040   6.921  17.827  0.00  0.00    +0.000 OA
BRANCH  22  23
ATOM     23  C   UNL     1       3.050   5.545  17.825  0.00  0.00    +0.000 A 
ATOM     24  C   UNL     1       4.310   4.947  17.922  0.00  0.00    +0.000 A 
ATOM     25  C   UNL     1       4.427   3.556  17.922  0.00  0.00    +0.000 A 
ATOM     26  C   UNL     1       3.283   2.773  17.827  0.00  0.00    +0.000 A 
ATOM     27  F   UNL     1       3.396   1.438  17.801  0.00  0.00    +0.000 F 
ATOM     28  C   UNL     1       2.021   3.353  17.766  0.00  0.00    +0.000 A 
ATOM     29  C   UNL     1       1.902   4.744  17.795  0.00  0.00    +0.000 A 
ENDBRANCH  22  23
ENDBRANCH  19  22
ENDBRANCH   3  16
TORSDOF 6
ENDMDL
MODEL 6
REMARK VINA RESULT:      -8.0      7.927      9.579
REMARK  Name = 
REMARK  8 active torsions:
REMARK  status: ('A' for Active; 'I' for Inactive)
REMARK    1  A    between atoms: C_1  and  O_2
REMARK    2  A    between atoms: O_2  and  C_3
REMARK    3  A    between atoms: C_6  and  C_7
REMARK    4  A    between atoms: C_9  and  C_10
REMARK    5  A    between atoms: C_13  and  O_14
REMARK    6  A    between atoms: O_14  and  C_15
REMARK    7  A    between atoms: C_27  and  O_28
REMARK    8  A    between atoms: O_28  and  C_29
REMARK                            x       y       z     vdW  Elec       q    Type
REMARK                         _______ _______ _______ _____ _____    ______ ____
ROOT
ATOM      1  C   UNL     1      -0.819  11.131  22.668  0.00  0.00    +0.000 A 
ATOM      2  N   UNL     1      -0.437  10.767  21.464  0.00  0.00    +0.000 NA
ATOM      3  C   UNL     1       0.387   9.695  21.723  0.00  0.00    +0.000 A 
ATOM      4  N   UNL     1       0.510   9.405  23.029  0.00  0.00    +0.000 NA
ATOM      5  O   UNL     1      -0.288  10.355  23.655  0.00  0.00    +0.000 OA
ENDROOT
BRANCH   1   9
ATOM      6  C   UNL     1      -3.175  14.408  24.073  0.00  0.00    +0.000 A 
ATOM      7  C   UNL     1      -3.759  13.144  23.892  0.00  0.00    +0.000 A 
ATOM      8  C   UNL     1      -3.007  12.069  23.419  0.00  0.00    +0.000 A 
ATOM      9  C   UNL     1      -1.662  12.242  23.083  0.00  0.00    +0.000 A 
ATOM     10  C   UNL     1      -1.111  13.525  23.177  0.00  0.00    +0.000 A 
ATOM     11  C   UNL     1      -1.852  14.616  23.661  0.00  0.00    +0.000 A 
BRANCH   6  13
ATOM     12  C   UNL     1      -5.127  15.738  23.963  0.00  0.00    +0.000 C 
ATOM     13  O   UNL     1      -3.894  15.438  24.617  0.00  0.00    +0.000 OA
ENDBRANCH   6  13
BRANCH  11  14
ATOM     14  O   UNL     1      -1.110  15.766  23.683  0.00  0.00    +0.000 OA
ATOM     15  C   UNL     1      -0.188  16.013  22.635  0.00  0.00    +0.000 C 
ENDBRANCH  11  14
ENDBRANCH   1   9
BRANCH   3  16
ATOM     16  C   UNL     1       1.074   8.965  20.664  0.00  0.00    +0.000 A 
ATOM     17  C   UNL     1       1.675   7.726  20.919  0.00  0.00    +0.000 A 
ATOM     18  C   UNL     1       2.292   7.013  19.890  0.00  0.00    +0.000 A 
ATOM     19  C   UNL     1       2.318   7.532  18.595  0.00  0.00    +0.000 A 
ATOM     20  C   UNL     1       1.787   8.799  18.347  0.00  0.00    +0.000 A 
ATOM     21  C   UNL     1       1.139   9.497  19.367  0.00  0.00    +0.000 A 
BRANCH  19  22
ATOM     22  O   UNL     1       2.930   6.752  17.642  0.00  0.00    +0.000 OA
BRANCH  22  23
ATOM     23  C   UNL     1       2.942   5.383  17.783  0.00  0.00    +0.000 A 
ATOM     24  C   UNL     1       4.197   4.806  18.005  0.00  0.00    +0.000 A 
ATOM     25  C   UNL     1       4.316   3.423  18.155  0.00  0.00    +0.000 A 
ATOM     26  C   UNL     1       3.179   2.627  18.083  0.00  0.00    +0.000 A 
ATOM     27  F   UNL     1       3.295   1.298  18.202  0.00  0.00    +0.000 F 
ATOM     28  C   UNL     1       1.921   3.189  17.899  0.00  0.00    +0.000 A 
ATOM     29  C   UNL     1       1.798   4.575  17.778  0.00  0.00    +0.000 A 
ENDBRANCH  22  23
ENDBRANCH  19  22
ENDBRANCH   3  16
TORSDOF 6
ENDMDL
MODEL 7
REMARK VINA RESULT:      -8.0      8.035     11.605
REMARK  Name = 
REMARK  8 active torsions:
REMARK  status: ('A' for Active; 'I' for Inactive)
REMARK    1  A    between atoms: C_1  and  O_2
REMARK    2  A    between atoms: O_2  and  C_3
REMARK    3  A    between atoms: C_6  and  C_7
REMARK    4  A    between atoms: C_9  and  C_10
REMARK    5  A    between atoms: C_13  and  O_14
REMARK    6  A    between atoms: O_14  and  C_15
REMARK    7  A    between atoms: C_27  and  O_28
REMARK    8  A    between atoms: O_28  and  C_29
REMARK                            x       y       z     vdW  Elec       q    Type
REMARK                         _______ _______ _______ _____ _____    ______ ____
ROOT
ATOM      1  C   UNL     1       1.842   7.628  19.640  0.00  0.00    +0.000 A 
ATOM      2  N   UNL     1       1.159   8.085  20.667  0.00  0.00    +0.000 NA
ATOM      3  C   UNL     1       0.924   9.394  20.310  0.00  0.00    +0.000 A 
ATOM      4  N   UNL     1       1.436   9.734  19.115  0.00  0.00    +0.000 NA
ATOM      5  O   UNL     1       2.044   8.566  18.672  0.00  0.00    +0.000 OA
ENDROOT
BRANCH   1   9
ATOM      6  C   UNL     1       3.728   3.821  19.177  0.00  0.00    +0.000 A 
ATOM      7  C   UNL     1       3.805   4.778  18.152  0.00  0.00    +0.000 A 
ATOM      8  C   UNL     1       3.182   6.019  18.282  0.00  0.00    +0.000 A 
ATOM      9  C   UNL     1       2.436   6.318  19.426  0.00  0.00    +0.000 A 
ATOM     10  C   UNL     1       2.286   5.325  20.401  0.00  0.00    +0.000 A 
ATOM     11  C   UNL     1       2.915   4.075  20.290  0.00  0.00    +0.000 A 
BRANCH   6  13
ATOM     12  C   UNL     1       3.665   1.540  18.558  0.00  0.00    +0.000 C 
ATOM     13  O   UNL     1       4.411   2.639  19.082  0.00  0.00    +0.000 OA
ENDBRANCH   6  13
BRANCH  11  14
ATOM     14  O   UNL     1       2.643   3.271  21.364  0.00  0.00    +0.000 OA
ATOM     15  C   UNL     1       1.354   2.693  21.485  0.00  0.00    +0.000 C 
ENDBRANCH  11  14
ENDBRANCH   1   9
BRANCH   3  16
ATOM     16  C   UNL     1       0.201  10.320  21.173  0.00  0.00    +0.000 A 
ATOM     17  C   UNL     1       0.119  11.683  20.856  0.00  0.00    +0.000 A 
ATOM     18  C   UNL     1      -0.612  12.554  21.664  0.00  0.00    +0.000 A 
ATOM     19  C   UNL     1      -1.269  12.076  22.799  0.00  0.00    +0.000 A 
ATOM     20  C   UNL     1      -1.132  10.734  23.162  0.00  0.00    +0.000 A 
ATOM     21  C   UNL     1      -0.430   9.855  22.336  0.00  0.00    +0.000 A 
BRANCH  19  22
ATOM     22  O   UNL     1      -1.981  13.002  23.523  0.00  0.00    +0.000 OA
BRANCH  22  23
ATOM     23  C   UNL     1      -3.355  13.010  23.461  0.00  0.00    +0.000 A 
ATOM     24  C   UNL     1      -4.018  12.497  24.580  0.00  0.00    +0.000 A 
ATOM     25  C   UNL     1      -5.413  12.455  24.611  0.00  0.00    +0.000 A 
ATOM     26  C   UNL     1      -6.135  12.928  23.522  0.00  0.00    +0.000 A 
ATOM     27  F   UNL     1      -7.474  12.866  23.540  0.00  0.00    +0.000 F 
ATOM     28  C   UNL     1      -5.492  13.474  22.418  0.00  0.00    +0.000 A 
ATOM     29  C   UNL     1      -4.098  13.543  22.399  0.00  0.00    +0.000 A 
ENDBRANCH  22  23
ENDBRANCH  19  22
ENDBRANCH   3  16
TORSDOF 6
ENDMDL
MODEL 8
REMARK VINA RESULT:      -8.0      7.095     10.423
REMARK  Name = 
REMARK  8 active torsions:
REMARK  status: ('A' for Active; 'I' for Inactive)
REMARK    1  A    between atoms: C_1  and  O_2
REMARK    2  A    between atoms: O_2  and  C_3
REMARK    3  A    between atoms: C_6  and  C_7
REMARK    4  A    between atoms: C_9  and  C_10
REMARK    5  A    between atoms: C_13  and  O_14
REMARK    6  A    between atoms: O_14  and  C_15
REMARK    7  A    between atoms: C_27  and  O_28
REMARK    8  A    between atoms: O_28  and  C_29
REMARK                            x       y       z     vdW  Elec       q    Type
REMARK                         _______ _______ _______ _____ _____    ______ ____
ROOT
ATOM      1  C   UNL     1       2.695   7.242  18.663  0.00  0.00    +0.000 A 
ATOM      2  N   UNL     1       2.020   8.324  18.343  0.00  0.00    +0.000 NA
ATOM      3  C   UNL     1       1.367   8.627  19.516  0.00  0.00    +0.000 A 
ATOM      4  N   UNL     1       1.625   7.773  20.521  0.00  0.00    +0.000 NA
ATOM      5  O   UNL     1       2.504   6.856  19.956  0.00  0.00    +0.000 OA
ENDROOT
BRANCH   1   9
ATOM      6  C   UNL     1       5.305   4.696  16.433  0.00  0.00    +0.000 A 
ATOM      7  C   UNL     1       5.359   6.090  16.261  0.00  0.00    +0.000 A 
ATOM      8  C   UNL     1       4.502   6.932  16.969  0.00  0.00    +0.000 A 
ATOM      9  C   UNL     1       3.549   6.399  17.841  0.00  0.00    +0.000 A 
ATOM     10  C   UNL     1       3.438   5.007  17.936  0.00  0.00    +0.000 A 
ATOM     11  C   UNL     1       4.298   4.145  17.238  0.00  0.00    +0.000 A 
BRANCH   6  13
ATOM     12  C   UNL     1       6.154   3.904  14.373  0.00  0.00    +0.000 C 
ATOM     13  O   UNL     1       6.202   3.879  15.800  0.00  0.00    +0.000 OA
ENDBRANCH   6  13
BRANCH  11  14
ATOM     14  O   UNL     1       4.020   2.830  17.493  0.00  0.00    +0.000 OA
ATOM     15  C   UNL     1       3.484   2.470  18.756  0.00  0.00    +0.000 C 
ENDBRANCH  11  14
ENDBRANCH   1   9
BRANCH   3  16
ATOM     16  C   UNL     1       0.463   9.765  19.635  0.00  0.00    +0.000 A 
ATOM     17  C   UNL     1      -0.115  10.344  18.498  0.00  0.00    +0.000 A 
ATOM     18  C   UNL     1      -1.014  11.405  18.623  0.00  0.00    +0.000 A 
ATOM     19  C   UNL     1      -1.343  11.901  19.886  0.00  0.00    +0.000 A 
ATOM     20  C   UNL     1      -0.716  11.378  21.019  0.00  0.00    +0.000 A 
ATOM     21  C   UNL     1       0.156  10.295  20.897  0.00  0.00    +0.000 A 
BRANCH  19  22
ATOM     22  O   UNL     1      -2.251  12.933  19.913  0.00  0.00    +0.000 OA
BRANCH  22  23
ATOM     23  C   UNL     1      -3.572  12.674  20.198  0.00  0.00    +0.000 A 
ATOM     24  C   UNL     1      -3.994  13.016  21.487  0.00  0.00    +0.000 A 
ATOM     25  C   UNL     1      -5.315  12.787  21.876  0.00  0.00    +0.000 A 
ATOM     26  C   UNL     1      -6.205  12.219  20.972  0.00  0.00    +0.000 A 
ATOM     27  F   UNL     1      -7.467  11.975  21.352  0.00  0.00    +0.000 F 
ATOM     28  C   UNL     1      -5.810  11.907  19.677  0.00  0.00    +0.000 A 
ATOM     29  C   UNL     1      -4.496  12.163  19.279  0.00  0.00    +0.000 A 
ENDBRANCH  22  23
ENDBRANCH  19  22
ENDBRANCH   3  16
TORSDOF 6
ENDMDL
MODEL 9
REMARK VINA RESULT:      -8.0      6.943      9.896
REMARK  Name = 
REMARK  8 active torsions:
REMARK  status: ('A' for Active; 'I' for Inactive)
REMARK    1  A    between atoms: C_1  and  O_2
REMARK    2  A    between atoms: O_2  and  C_3
REMARK    3  A    between atoms: C_6  and  C_7
REMARK    4  A    between atoms: C_9  and  C_10
REMARK    5  A    between atoms: C_13  and  O_14
REMARK    6  A    between atoms: O_14  and  C_15
REMARK    7  A    between atoms: C_27  and  O_28
REMARK    8  A    between atoms: O_28  and  C_29
REMARK                            x       y       z     vdW  Elec       q    Type
REMARK                         _______ _______ _______ _____ _____    ______ ____
ROOT
ATOM      1  C   UNL     1       2.928   7.018  18.663  0.00  0.00    +0.000 A 
ATOM      2  N   UNL     1       2.330   8.137  18.318  0.00  0.00    +0.000 NA
ATOM      3  C   UNL     1       1.538   8.402  19.413  0.00  0.00    +0.000 A 
ATOM      4  N   UNL     1       1.639   7.489  20.393  0.00  0.00    +0.000 NA
ATOM      5  O   UNL     1       2.559   6.573  19.898  0.00  0.00    +0.000 OA
ENDROOT
BRANCH   1   9
ATOM      6  C   UNL     1       5.632   4.717  16.284  0.00  0.00    +0.000 A 
ATOM      7  C   UNL     1       4.435   4.147  16.745  0.00  0.00    +0.000 A 
ATOM      8  C   UNL     1       3.550   4.880  17.536  0.00  0.00    +0.000 A 
ATOM      9  C   UNL     1       3.859   6.190  17.913  0.00  0.00    +0.000 A 
ATOM     10  C   UNL     1       5.096   6.720  17.528  0.00  0.00    +0.000 A 
ATOM     11  C   UNL     1       5.994   5.998  16.724  0.00  0.00    +0.000 A 
BRANCH   6  13
ATOM     12  C   UNL     1       6.041   3.983  14.074  0.00  0.00    +0.000 C 
ATOM     13  O   UNL     1       6.457   4.024  15.440  0.00  0.00    +0.000 OA
ENDBRANCH   6  13
BRANCH  11  14
ATOM     14  O   UNL     1       7.128   6.715  16.458  0.00  0.00    +0.000 OA
ATOM     15  C   UNL     1       7.648   7.581  17.453  0.00  0.00    +0.000 C 
ENDBRANCH  11  14
ENDBRANCH   1   9
BRANCH   3  16
ATOM     16  C   UNL     1       0.657   9.562  19.476  0.00  0.00    +0.000 A 
ATOM     17  C   UNL     1       0.023  10.046  18.324  0.00  0.00    +0.000 A 
ATOM     18  C   UNL     1      -0.853  11.130  18.400  0.00  0.00    +0.000 A 
ATOM     19  C   UNL     1      -1.103  11.745  19.628  0.00  0.00    +0.000 A 
ATOM     20  C   UNL     1      -0.420  11.316  20.768  0.00  0.00    +0.000 A 
ATOM     21  C   UNL     1       0.429  10.211  20.699  0.00  0.00    +0.000 A 
BRANCH  19  22
ATOM     22  O   UNL     1      -1.995  12.792  19.611  0.00  0.00    +0.000 OA
BRANCH  22  23
ATOM     23  C   UNL     1      -3.313  12.573  19.940  0.00  0.00    +0.000 A 
ATOM     24  C   UNL     1      -3.678  12.914  21.246  0.00  0.00    +0.000 A 
ATOM     25  C   UNL     1      -4.991  12.724  21.679  0.00  0.00    +0.000 A 
ATOM     26  C   UNL     1      -5.931  12.196  20.802  0.00  0.00    +0.000 A 
ATOM     27  F   UNL     1      -7.186  11.989  21.224  0.00  0.00    +0.000 F 
ATOM     28  C   UNL     1      -5.592  11.885  19.491  0.00  0.00    +0.000 A 
ATOM     29  C   UNL     1      -4.285  12.102  19.049  0.00  0.00    +0.000 A 
ENDBRANCH  22  23
ENDBRANCH  19  22
ENDBRANCH   3  16
TORSDOF 6
ENDMDL
