MODEL 1
REMARK VINA RESULT:      -6.6      0.000      0.000
REMARK  Name = 
REMARK  4 active torsions:
REMARK  status: ('A' for Active; 'I' for Inactive)
REMARK    1  A    between atoms: C_1  and  C_2
REMARK    2  A    between atoms: C_5  and  C_6
REMARK    3  A    between atoms: C_11  and  C_12
REMARK    4  A    between atoms: C_18  and  N_19
REMARK                            x       y       z     vdW  Elec       q    Type
REMARK                         _______ _______ _______ _____ _____    ______ ____
ROOT
ATOM      1  C   UNL     1       6.198   4.308  16.990  0.00  0.00    +0.000 C 
ATOM      2  C   UNL     1       7.309   4.331  18.065  0.00  0.00    +0.000 C 
ATOM      3  C   UNL     1       7.271   5.568  18.942  0.00  0.00    +0.000 C 
ATOM      4  O   UNL     1       7.556   5.495  20.138  0.00  0.00    +0.000 OA
ATOM      5  C   UNL     1       7.119   6.911  18.253  0.00  0.00    +0.000 C 
ATOM      6  C   UNL     1       6.020   6.920  17.167  0.00  0.00    +0.000 C 
ATOM      7  C   UNL     1       6.204   5.678  16.277  0.00  0.00    +0.000 C 
ENDROOT
BRANCH   1  12
ATOM      8  C   UNL     1       1.091   2.937  19.427  0.00  0.00    +0.000 C 
ATOM      9  C   UNL     1       2.408   3.045  18.719  0.00  0.00    +0.000 A 
ATOM     10  C   UNL     1       2.459   3.469  17.392  0.00  0.00    +0.000 A 
ATOM     11  C   UNL     1       3.683   3.790  16.795  0.00  0.00    +0.000 A 
ATOM     12  C   UNL     1       4.893   3.695  17.499  0.00  0.00    +0.000 A 
ATOM     13  C   UNL     1       4.829   3.179  18.805  0.00  0.00    +0.000 A 
ATOM     14  C   UNL     1       3.607   2.861  19.408  0.00  0.00    +0.000 A 
ENDBRANCH   1  12
BRANCH   6  15
ATOM     15  C   UNL     1       4.650   7.160  17.775  0.00  0.00    +0.000 A 
ATOM     16  C   UNL     1       4.239   6.480  18.920  0.00  0.00    +0.000 A 
ATOM     17  C   UNL     1       2.934   6.642  19.381  0.00  0.00    +0.000 A 
ATOM     18  C   UNL     1       2.063   7.472  18.688  0.00  0.00    +0.000 A 
ATOM     19  C   UNL     1       2.544   8.115  17.567  0.00  0.00    +0.000 A 
ATOM     20  N   UNL     1       3.808   7.972  17.099  0.00  0.00    +0.000 NA
ENDBRANCH   6  15
BRANCH   7  21
ATOM     21  N   UNL     1       5.410   5.717  14.993  0.00  0.00    +0.000 N 
ATOM     22  O   UNL     1       5.007   6.819  14.598  0.00  0.00    +0.000 OA
ATOM     23  O   UNL     1       5.353   4.682  14.314  0.00  0.00    +0.000 OA
ENDBRANCH   7  21
TORSDOF 3
ENDMDL
MODEL 2
REMARK VINA RESULT:      -6.6      0.599      1.002
REMARK  Name = 
REMARK  4 active torsions:
REMARK  status: ('A' for Active; 'I' for Inactive)
REMARK    1  A    between atoms: C_1  and  C_2
REMARK    2  A    between atoms: C_5  and  C_6
REMARK    3  A    between atoms: C_11  and  C_12
REMARK    4  A    between atoms: C_18  and  N_19
REMARK                            x       y       z     vdW  Elec       q    Type
REMARK                         _______ _______ _______ _____ _____    ______ ____
ROOT
ATOM      1  C   UNL     1       6.232   4.294  16.966  0.00  0.00    +0.000 C 
ATOM      2  C   UNL     1       7.321   4.351  18.062  0.00  0.00    +0.000 C 
ATOM      3  C   UNL     1       7.213   5.573  18.953  0.00  0.00    +0.000 C 
ATOM      4  O   UNL     1       7.479   5.496  20.154  0.00  0.00    +0.000 OA
ATOM      5  C   UNL     1       7.017   6.918  18.278  0.00  0.00    +0.000 C 
ATOM      6  C   UNL     1       5.940   6.893  17.170  0.00  0.00    +0.000 C 
ATOM      7  C   UNL     1       6.193   5.672  16.270  0.00  0.00    +0.000 C 
ENDROOT
BRANCH   1  12
ATOM      8  C   UNL     1       1.148   2.673  19.292  0.00  0.00    +0.000 C 
ATOM      9  C   UNL     1       2.470   2.847  18.609  0.00  0.00    +0.000 A 
ATOM     10  C   UNL     1       2.524   3.300  17.291  0.00  0.00    +0.000 A 
ATOM     11  C   UNL     1       3.744   3.680  16.720  0.00  0.00    +0.000 A 
ATOM     12  C   UNL     1       4.945   3.620  17.441  0.00  0.00    +0.000 A 
ATOM     13  C   UNL     1       4.882   3.076  18.736  0.00  0.00    +0.000 A 
ATOM     14  C   UNL     1       3.664   2.697  19.313  0.00  0.00    +0.000 A 
ENDBRANCH   1  12
BRANCH   6  15
ATOM     15  C   UNL     1       4.549   7.067  17.755  0.00  0.00    +0.000 A 
ATOM     16  C   UNL     1       3.670   8.024  17.254  0.00  0.00    +0.000 A 
ATOM     17  C   UNL     1       2.447   8.232  17.891  0.00  0.00    +0.000 A 
ATOM     18  C   UNL     1       2.130   7.486  19.018  0.00  0.00    +0.000 A 
ATOM     19  C   UNL     1       3.049   6.553  19.451  0.00  0.00    +0.000 A 
ATOM     20  N   UNL     1       4.244   6.335  18.849  0.00  0.00    +0.000 NA
ENDBRANCH   6  15
BRANCH   7  21
ATOM     21  N   UNL     1       5.423   5.694  14.971  0.00  0.00    +0.000 N 
ATOM     22  O   UNL     1       4.998   6.786  14.572  0.00  0.00    +0.000 OA
ATOM     23  O   UNL     1       5.408   4.661  14.288  0.00  0.00    +0.000 OA
ENDBRANCH   7  21
TORSDOF 3
ENDMDL
MODEL 3
REMARK VINA RESULT:      -6.0      2.331      4.404
REMARK  Name = 
REMARK  4 active torsions:
REMARK  status: ('A' for Active; 'I' for Inactive)
REMARK    1  A    between atoms: C_1  and  C_2
REMARK    2  A    between atoms: C_5  and  C_6
REMARK    3  A    between atoms: C_11  and  C_12
REMARK    4  A    between atoms: C_18  and  N_19
REMARK                            x       y       z     vdW  Elec       q    Type
REMARK                         _______ _______ _______ _____ _____    ______ ____
ROOT
ATOM      1  C   UNL     1       6.002   6.503  16.980  0.00  0.00    +0.000 C 
ATOM      2  C   UNL     1       7.403   6.377  17.620  0.00  0.00    +0.000 C 
ATOM      3  C   UNL     1       7.460   5.360  18.744  0.00  0.00    +0.000 C 
ATOM      4  O   UNL     1       8.465   4.666  18.908  0.00  0.00    +0.000 OA
ATOM      5  C   UNL     1       6.361   5.406  19.788  0.00  0.00    +0.000 C 
ATOM      6  C   UNL     1       4.947   5.541  19.180  0.00  0.00    +0.000 C 
ATOM      7  C   UNL     1       4.975   6.657  18.121  0.00  0.00    +0.000 C 
ENDROOT
BRANCH   1  12
ATOM      8  C   UNL     1       6.038   3.119  12.242  0.00  0.00    +0.000 C 
ATOM      9  C   UNL     1       5.804   3.875  13.515  0.00  0.00    +0.000 A 
ATOM     10  C   UNL     1       6.321   3.399  14.719  0.00  0.00    +0.000 A 
ATOM     11  C   UNL     1       6.305   4.201  15.865  0.00  0.00    +0.000 A 
ATOM     12  C   UNL     1       5.774   5.499  15.849  0.00  0.00    +0.000 A 
ATOM     13  C   UNL     1       5.176   5.926  14.650  0.00  0.00    +0.000 A 
ATOM     14  C   UNL     1       5.192   5.129  13.499  0.00  0.00    +0.000 A 
ENDBRANCH   1  12
BRANCH   6  15
ATOM     15  C   UNL     1       4.397   4.186  18.768  0.00  0.00    +0.000 A 
ATOM     16  C   UNL     1       3.417   4.073  17.785  0.00  0.00    +0.000 A 
ATOM     17  C   UNL     1       2.856   2.826  17.516  0.00  0.00    +0.000 A 
ATOM     18  C   UNL     1       3.278   1.719  18.239  0.00  0.00    +0.000 A 
ATOM     19  C   UNL     1       4.256   1.908  19.193  0.00  0.00    +0.000 A 
ATOM     20  N   UNL     1       4.814   3.111  19.472  0.00  0.00    +0.000 NA
ENDBRANCH   6  15
BRANCH   7  21
ATOM     21  N   UNL     1       3.607   7.115  17.673  0.00  0.00    +0.000 N 
ATOM     22  O   UNL     1       2.666   6.981  18.466  0.00  0.00    +0.000 OA
ATOM     23  O   UNL     1       3.527   7.757  16.617  0.00  0.00    +0.000 OA
ENDBRANCH   7  21
TORSDOF 3
ENDMDL
MODEL 4
REMARK VINA RESULT:      -6.0      1.831      4.605
REMARK  Name = 
REMARK  4 active torsions:
REMARK  status: ('A' for Active; 'I' for Inactive)
REMARK    1  A    between atoms: C_1  and  C_2
REMARK    2  A    between atoms: C_5  and  C_6
REMARK    3  A    between atoms: C_11  and  C_12
REMARK    4  A    between atoms: C_18  and  N_19
REMARK                            x       y       z     vdW  Elec       q    Type
REMARK                         _______ _______ _______ _____ _____    ______ ____
ROOT
ATOM      1  C   UNL     1       5.569   6.154  17.484  0.00  0.00    +0.000 C 
ATOM      2  C   UNL     1       5.826   6.208  15.961  0.00  0.00    +0.000 C 
ATOM      3  C   UNL     1       5.299   4.994  15.219  0.00  0.00    +0.000 C 
ATOM      4  O   UNL     1       4.817   5.112  14.092  0.00  0.00    +0.000 OA
ATOM      5  C   UNL     1       5.613   3.628  15.799  0.00  0.00    +0.000 C 
ATOM      6  C   UNL     1       5.375   3.543  17.323  0.00  0.00    +0.000 C 
ATOM      7  C   UNL     1       6.025   4.768  17.989  0.00  0.00    +0.000 C 
ENDROOT
BRANCH   1  12
ATOM      8  C   UNL     1       0.958   9.039  19.561  0.00  0.00    +0.000 C 
ATOM      9  C   UNL     1       1.971   8.135  18.925  0.00  0.00    +0.000 A 
ATOM     10  C   UNL     1       2.452   8.412  17.646  0.00  0.00    +0.000 A 
ATOM     11  C   UNL     1       3.552   7.716  17.134  0.00  0.00    +0.000 A 
ATOM     12  C   UNL     1       4.205   6.721  17.877  0.00  0.00    +0.000 A 
ATOM     13  C   UNL     1       3.649   6.395  19.127  0.00  0.00    +0.000 A 
ATOM     14  C   UNL     1       2.551   7.091  19.645  0.00  0.00    +0.000 A 
ENDBRANCH   1  12
BRANCH   6  15
ATOM     15  C   UNL     1       3.916   3.258  17.634  0.00  0.00    +0.000 A 
ATOM     16  C   UNL     1       2.897   4.047  17.105  0.00  0.00    +0.000 A 
ATOM     17  C   UNL     1       1.580   3.825  17.504  0.00  0.00    +0.000 A 
ATOM     18  C   UNL     1       1.307   2.826  18.429  0.00  0.00    +0.000 A 
ATOM     19  C   UNL     1       2.367   2.083  18.904  0.00  0.00    +0.000 A 
ATOM     20  N   UNL     1       3.655   2.281  18.531  0.00  0.00    +0.000 NA
ENDBRANCH   6  15
BRANCH   7  21
ATOM     21  N   UNL     1       6.149   4.659  19.490  0.00  0.00    +0.000 N 
ATOM     22  O   UNL     1       5.519   3.757  20.057  0.00  0.00    +0.000 OA
ATOM     23  O   UNL     1       7.004   5.357  20.054  0.00  0.00    +0.000 OA
ENDBRANCH   7  21
TORSDOF 3
ENDMDL
MODEL 5
REMARK VINA RESULT:      -6.0      8.040     10.674
REMARK  Name = 
REMARK  4 active torsions:
REMARK  status: ('A' for Active; 'I' for Inactive)
REMARK    1  A    between atoms: C_1  and  C_2
REMARK    2  A    between atoms: C_5  and  C_6
REMARK    3  A    between atoms: C_11  and  C_12
REMARK    4  A    between atoms: C_18  and  N_19
REMARK                            x       y       z     vdW  Elec       q    Type
REMARK                         _______ _______ _______ _____ _____    ______ ____
ROOT
ATOM      1  C   UNL     1      -2.624  13.573  20.702  0.00  0.00    +0.000 C 
ATOM      2  C   UNL     1      -1.618  14.683  20.323  0.00  0.00    +0.000 C 
ATOM      3  C   UNL     1      -0.229  14.453  20.888  0.00  0.00    +0.000 C 
ATOM      4  O   UNL     1       0.769  14.768  20.238  0.00  0.00    +0.000 OA
ATOM      5  C   UNL     1      -0.123  14.065  22.350  0.00  0.00    +0.000 C 
ATOM      6  C   UNL     1      -1.122  12.962  22.764  0.00  0.00    +0.000 C 
ATOM      7  C   UNL     1      -2.513  13.336  22.223  0.00  0.00    +0.000 C 
ENDROOT
BRANCH   1  12
ATOM      8  C   UNL     1      -2.620   9.878  16.202  0.00  0.00    +0.000 C 
ATOM      9  C   UNL     1      -2.631  10.617  17.506  0.00  0.00    +0.000 A 
ATOM     10  C   UNL     1      -1.431  10.972  18.121  0.00  0.00    +0.000 A 
ATOM     11  C   UNL     1      -1.424  11.850  19.210  0.00  0.00    +0.000 A 
ATOM     12  C   UNL     1      -2.609  12.399  19.722  0.00  0.00    +0.000 A 
ATOM     13  C   UNL     1      -3.814  11.957  19.147  0.00  0.00    +0.000 A 
ATOM     14  C   UNL     1      -3.826  11.082  18.054  0.00  0.00    +0.000 A 
ENDBRANCH   1  12
BRANCH   6  15
ATOM     15  C   UNL     1      -0.581  11.582  22.435  0.00  0.00    +0.000 A 
ATOM     16  C   UNL     1      -1.078  10.442  23.063  0.00  0.00    +0.000 A 
ATOM     17  C   UNL     1      -0.477   9.208  22.820  0.00  0.00    +0.000 A 
ATOM     18  C   UNL     1       0.611   9.137  21.962  0.00  0.00    +0.000 A 
ATOM     19  C   UNL     1       1.043  10.307  21.373  0.00  0.00    +0.000 A 
ATOM     20  N   UNL     1       0.476  11.518  21.595  0.00  0.00    +0.000 NA
ENDBRANCH   6  15
BRANCH   7  21
ATOM     21  N   UNL     1      -3.642  12.523  22.813  0.00  0.00    +0.000 N 
ATOM     22  O   UNL     1      -4.635  12.317  22.104  0.00  0.00    +0.000 OA
ATOM     23  O   UNL     1      -3.445  11.960  23.899  0.00  0.00    +0.000 OA
ENDBRANCH   7  21
TORSDOF 3
ENDMDL
MODEL 6
REMARK VINA RESULT:      -5.8      2.615      4.973
REMARK  Name = 
REMARK  4 active torsions:
REMARK  status: ('A' for Active; 'I' for Inactive)
REMARK    1  A    between atoms: C_1  and  C_2
REMARK    2  A    between atoms: C_5  and  C_6
REMARK    3  A    between atoms: C_11  and  C_12
REMARK    4  A    between atoms: C_18  and  N_19
REMARK                            x       y       z     vdW  Elec       q    Type
REMARK                         _______ _______ _______ _____ _____    ______ ____
ROOT
ATOM      1  C   UNL     1       3.144   4.004  17.563  0.00  0.00    +0.000 C 
ATOM      2  C   UNL     1       2.083   5.128  17.547  0.00  0.00    +0.000 C 
ATOM      3  C   UNL     1       2.503   6.361  18.325  0.00  0.00    +0.000 C 
ATOM      4  O   UNL     1       2.191   7.485  17.928  0.00  0.00    +0.000 OA
ATOM      5  C   UNL     1       3.088   6.152  19.709  0.00  0.00    +0.000 C 
ATOM      6  C   UNL     1       4.146   5.027  19.761  0.00  0.00    +0.000 C 
ATOM      7  C   UNL     1       3.588   3.796  19.027  0.00  0.00    +0.000 C 
ENDROOT
BRANCH   1  12
ATOM      8  C   UNL     1       7.618   5.160  14.022  0.00  0.00    +0.000 C 
ATOM      9  C   UNL     1       6.363   4.744  14.729  0.00  0.00    +0.000 A 
ATOM     10  C   UNL     1       6.320   3.541  15.431  0.00  0.00    +0.000 A 
ATOM     11  C   UNL     1       5.242   3.250  16.275  0.00  0.00    +0.000 A 
ATOM     12  C   UNL     1       4.176   4.145  16.444  0.00  0.00    +0.000 A 
ATOM     13  C   UNL     1       4.195   5.311  15.658  0.00  0.00    +0.000 A 
ATOM     14  C   UNL     1       5.272   5.609  14.815  0.00  0.00    +0.000 A 
ENDBRANCH   1  12
BRANCH   6  15
ATOM     15  C   UNL     1       5.512   5.543  19.342  0.00  0.00    +0.000 A 
ATOM     16  C   UNL     1       5.656   6.420  18.270  0.00  0.00    +0.000 A 
ATOM     17  C   UNL     1       6.934   6.780  17.845  0.00  0.00    +0.000 A 
ATOM     18  C   UNL     1       8.042   6.251  18.492  0.00  0.00    +0.000 A 
ATOM     19  C   UNL     1       7.820   5.393  19.550  0.00  0.00    +0.000 A 
ATOM     20  N   UNL     1       6.588   5.029  19.979  0.00  0.00    +0.000 NA
ENDBRANCH   6  15
BRANCH   7  21
ATOM     21  N   UNL     1       4.371   2.527  19.269  0.00  0.00    +0.000 N 
ATOM     22  O   UNL     1       5.180   2.519  20.205  0.00  0.00    +0.000 OA
ATOM     23  O   UNL     1       4.042   1.513  18.638  0.00  0.00    +0.000 OA
ENDBRANCH   7  21
TORSDOF 3
ENDMDL
MODEL 7
REMARK VINA RESULT:      -5.6      8.397     10.999
REMARK  Name = 
REMARK  4 active torsions:
REMARK  status: ('A' for Active; 'I' for Inactive)
REMARK    1  A    between atoms: C_1  and  C_2
REMARK    2  A    between atoms: C_5  and  C_6
REMARK    3  A    between atoms: C_11  and  C_12
REMARK    4  A    between atoms: C_18  and  N_19
REMARK                            x       y       z     vdW  Elec       q    Type
REMARK                         _______ _______ _______ _____ _____    ______ ____
ROOT
ATOM      1  C   UNL     1      -2.814  13.772  20.901  0.00  0.00    +0.000 C 
ATOM      2  C   UNL     1      -1.887  14.987  20.670  0.00  0.00    +0.000 C 
ATOM      3  C   UNL     1      -0.502  14.807  21.264  0.00  0.00    +0.000 C 
ATOM      4  O   UNL     1       0.488  15.259  20.687  0.00  0.00    +0.000 OA
ATOM      5  C   UNL     1      -0.411  14.285  22.685  0.00  0.00    +0.000 C 
ATOM      6  C   UNL     1      -1.334  13.075  22.952  0.00  0.00    +0.000 C 
ATOM      7  C   UNL     1      -2.733  13.395  22.396  0.00  0.00    +0.000 C 
ENDROOT
BRANCH   1  12
ATOM      8  C   UNL     1      -2.644  10.498  16.090  0.00  0.00    +0.000 C 
ATOM      9  C   UNL     1      -2.625  11.123  17.452  0.00  0.00    +0.000 A 
ATOM     10  C   UNL     1      -1.461  11.723  17.932  0.00  0.00    +0.000 A 
ATOM     11  C   UNL     1      -1.490  12.502  19.094  0.00  0.00    +0.000 A 
ATOM     12  C   UNL     1      -2.677  12.705  19.815  0.00  0.00    +0.000 A 
ATOM     13  C   UNL     1      -3.819  12.019  19.366  0.00  0.00    +0.000 A 
ATOM     14  C   UNL     1      -3.795  11.241  18.202  0.00  0.00    +0.000 A 
ENDBRANCH   1  12
BRANCH   6  15
ATOM     15  C   UNL     1      -0.676  11.778  22.513  0.00  0.00    +0.000 A 
ATOM     16  C   UNL     1       0.268  11.758  21.489  0.00  0.00    +0.000 A 
ATOM     17  C   UNL     1       0.764  10.536  21.037  0.00  0.00    +0.000 A 
ATOM     18  C   UNL     1       0.302   9.360  21.610  0.00  0.00    +0.000 A 
ATOM     19  C   UNL     1      -0.629   9.460  22.623  0.00  0.00    +0.000 A 
ATOM     20  N   UNL     1      -1.126  10.636  23.077  0.00  0.00    +0.000 NA
ENDBRANCH   6  15
BRANCH   7  21
ATOM     21  N   UNL     1      -3.812  12.446  22.861  0.00  0.00    +0.000 N 
ATOM     22  O   UNL     1      -3.674  11.917  23.971  0.00  0.00    +0.000 OA
ATOM     23  O   UNL     1      -4.854  12.382  22.195  0.00  0.00    +0.000 OA
ENDBRANCH   7  21
TORSDOF 3
ENDMDL
MODEL 8
REMARK VINA RESULT:      -5.6      5.599      8.470
REMARK  Name = 
REMARK  4 active torsions:
REMARK  status: ('A' for Active; 'I' for Inactive)
REMARK    1  A    between atoms: C_1  and  C_2
REMARK    2  A    between atoms: C_5  and  C_6
REMARK    3  A    between atoms: C_11  and  C_12
REMARK    4  A    between atoms: C_18  and  N_19
REMARK                            x       y       z     vdW  Elec       q    Type
REMARK                         _______ _______ _______ _____ _____    ______ ____
ROOT
ATOM      1  C   UNL     1      -0.814  10.039  20.019  0.00  0.00    +0.000 C 
ATOM      2  C   UNL     1      -1.863  10.258  18.905  0.00  0.00    +0.000 C 
ATOM      3  C   UNL     1      -1.768  11.624  18.252  0.00  0.00    +0.000 C 
ATOM      4  O   UNL     1      -1.986  11.756  17.046  0.00  0.00    +0.000 OA
ATOM      5  C   UNL     1      -1.648  12.830  19.163  0.00  0.00    +0.000 C 
ATOM      6  C   UNL     1      -0.612  12.640  20.294  0.00  0.00    +0.000 C 
ATOM      7  C   UNL     1      -0.852  11.269  20.951  0.00  0.00    +0.000 C 
ENDROOT
BRANCH   1  12
ATOM      8  C   UNL     1       3.637   7.163  17.607  0.00  0.00    +0.000 C 
ATOM      9  C   UNL     1       2.672   8.063  18.318  0.00  0.00    +0.000 A 
ATOM     10  C   UNL     1       2.080   9.130  17.643  0.00  0.00    +0.000 A 
ATOM     11  C   UNL     1       1.018   9.834  18.221  0.00  0.00    +0.000 A 
ATOM     12  C   UNL     1       0.515   9.500  19.487  0.00  0.00    +0.000 A 
ATOM     13  C   UNL     1       1.184   8.482  20.188  0.00  0.00    +0.000 A 
ATOM     14  C   UNL     1       2.245   7.772  19.613  0.00  0.00    +0.000 A 
ENDBRANCH   1  12
BRANCH   6  15
ATOM     15  C   UNL     1       0.791  12.959  19.810  0.00  0.00    +0.000 A 
ATOM     16  C   UNL     1       1.798  13.320  20.703  0.00  0.00    +0.000 A 
ATOM     17  C   UNL     1       3.041  13.716  20.210  0.00  0.00    +0.000 A 
ATOM     18  C   UNL     1       3.251  13.752  18.839  0.00  0.00    +0.000 A 
ATOM     19  C   UNL     1       2.208  13.375  18.019  0.00  0.00    +0.000 A 
ATOM     20  N   UNL     1       0.992  12.988  18.474  0.00  0.00    +0.000 NA
ENDBRANCH   6  15
BRANCH   7  21
ATOM     21  N   UNL     1      -0.132  11.081  22.265  0.00  0.00    +0.000 N 
ATOM     22  O   UNL     1      -0.730  11.398  23.301  0.00  0.00    +0.000 OA
ATOM     23  O   UNL     1       0.941  10.461  22.255  0.00  0.00    +0.000 OA
ENDBRANCH   7  21
TORSDOF 3
ENDMDL
MODEL 9
REMARK VINA RESULT:      -5.6      8.765     10.363
REMARK  Name = 
REMARK  4 active torsions:
REMARK  status: ('A' for Active; 'I' for Inactive)
REMARK    1  A    between atoms: C_1  and  C_2
REMARK    2  A    between atoms: C_5  and  C_6
REMARK    3  A    between atoms: C_11  and  C_12
REMARK    4  A    between atoms: C_18  and  N_19
REMARK                            x       y       z     vdW  Elec       q    Type
REMARK                         _______ _______ _______ _____ _____    ______ ____
ROOT
ATOM      1  C   UNL     1      10.914  12.816  20.073  0.00  0.00    +0.000 C 
ATOM      2  C   UNL     1      12.090  13.749  19.704  0.00  0.00    +0.000 C 
ATOM      3  C   UNL     1      11.745  14.747  18.615  0.00  0.00    +0.000 C 
ATOM      4  O   UNL     1      12.209  15.888  18.643  0.00  0.00    +0.000 OA
ATOM      5  C   UNL     1      11.028  14.223  17.385  0.00  0.00    +0.000 C 
ATOM      6  C   UNL     1       9.852  13.278  17.720  0.00  0.00    +0.000 C 
ATOM      7  C   UNL     1      10.331  12.251  18.760  0.00  0.00    +0.000 C 
ENDROOT
BRANCH   1  12
ATOM      8  C   UNL     1       7.043  15.685  23.341  0.00  0.00    +0.000 C 
ATOM      9  C   UNL     1       8.116  14.840  22.722  0.00  0.00    +0.000 A 
ATOM     10  C   UNL     1       7.814  13.571  22.232  0.00  0.00    +0.000 A 
ATOM     11  C   UNL     1       8.743  12.869  21.456  0.00  0.00    +0.000 A 
ATOM     12  C   UNL     1      10.000  13.408  21.146  0.00  0.00    +0.000 A 
ATOM     13  C   UNL     1      10.319  14.649  21.725  0.00  0.00    +0.000 A 
ATOM     14  C   UNL     1       9.392  15.357  22.499  0.00  0.00    +0.000 A 
ENDBRANCH   1  12
BRANCH   6  15
ATOM     15  C   UNL     1       8.590  14.065  18.028  0.00  0.00    +0.000 A 
ATOM     16  C   UNL     1       7.331  13.571  17.692  0.00  0.00    +0.000 A 
ATOM     17  C   UNL     1       6.207  14.372  17.887  0.00  0.00    +0.000 A 
ATOM     18  C   UNL     1       6.361  15.650  18.405  0.00  0.00    +0.000 A 
ATOM     19  C   UNL     1       7.638  16.067  18.719  0.00  0.00    +0.000 A 
ATOM     20  N   UNL     1       8.746  15.307  18.537  0.00  0.00    +0.000 NA
ENDBRANCH   6  15
BRANCH   7  21
ATOM     21  N   UNL     1       9.396  11.080  18.945  0.00  0.00    +0.000 N 
ATOM     22  O   UNL     1       8.625  10.806  18.016  0.00  0.00    +0.000 OA
ATOM     23  O   UNL     1       9.568  10.350  19.931  0.00  0.00    +0.000 OA
ENDBRANCH   7  21
TORSDOF 3
ENDMDL
