MODEL 1
REMARK VINA RESULT:      -8.4      0.000      0.000
REMARK  Name = 
REMARK  4 active torsions:
REMARK  status: ('A' for Active; 'I' for Inactive)
REMARK    1  A    between atoms: C_1  and  C_2
REMARK    2  A    between atoms: C_3  and  C_4
REMARK    3  A    between atoms: C_5  and  C_6
REMARK    4  A    between atoms: C_7  and  C_8
REMARK                            x       y       z     vdW  Elec       q    Type
REMARK                         _______ _______ _______ _____ _____    ______ ____
ROOT
ATOM      1  C   UNL     1       7.035   5.941  16.695  0.00  0.00    +0.000 A 
ATOM      2  N   UNL     1       7.572   5.847  15.513  0.00  0.00    +0.000 NA
ATOM      3  C   UNL     1       6.965   5.036  14.534  0.00  0.00    +0.000 A 
ATOM      4  C   UNL     1       7.568   4.952  13.278  0.00  0.00    +0.000 A 
ATOM      5  C   UNL     1       7.009   4.161  12.271  0.00  0.00    +0.000 A 
ATOM      6  C   UNL     1       5.837   3.443  12.514  0.00  0.00    +0.000 A 
ATOM      7  C   UNL     1       5.216   3.511  13.762  0.00  0.00    +0.000 A 
ATOM      8  C   UNL     1       5.787   4.307  14.761  0.00  0.00    +0.000 A 
ATOM      9  N   UNL     1       5.227   4.429  16.047  0.00  0.00    +0.000 N 
ATOM     10  C   UNL     1       4.097   3.850  16.569  0.00  0.00    +0.000 A 
ATOM     11  C   UNL     1       3.958   4.273  17.873  0.00  0.00    +0.000 A 
ATOM     12  C   UNL     1       5.042   5.138  18.152  0.00  0.00    +0.000 A 
ATOM     13  C   UNL     1       5.817   5.222  17.010  0.00  0.00    +0.000 A 
ENDROOT
BRANCH   1  15
ATOM     14  C   UNL     1       7.856   8.099  17.564  0.00  0.00    +0.000 C 
ATOM     15  C   UNL     1       7.655   6.787  17.756  0.00  0.00    +0.000 C 
BRANCH  14  17
ATOM     16  C   UNL     1       8.994  10.145  18.270  0.00  0.00    +0.000 C 
ATOM     17  C   UNL     1       8.462   8.950  18.564  0.00  0.00    +0.000 C 
BRANCH  16  20
ATOM     18  C   UNL     1      11.505  12.294  20.212  0.00  0.00    +0.000 C 
ATOM     19  C   UNL     1      10.872  11.425  19.176  0.00  0.00    +0.000 C 
ATOM     20  C   UNL     1       9.607  10.991  19.268  0.00  0.00    +0.000 C 
ENDBRANCH  16  20
ENDBRANCH  14  17
ENDBRANCH   1  15
TORSDOF 3
ENDMDL
MODEL 2
REMARK VINA RESULT:      -8.0      1.296      3.726
REMARK  Name = 
REMARK  4 active torsions:
REMARK  status: ('A' for Active; 'I' for Inactive)
REMARK    1  A    between atoms: C_1  and  C_2
REMARK    2  A    between atoms: C_3  and  C_4
REMARK    3  A    between atoms: C_5  and  C_6
REMARK    4  A    between atoms: C_7  and  C_8
REMARK                            x       y       z     vdW  Elec       q    Type
REMARK                         _______ _______ _______ _____ _____    ______ ____
ROOT
ATOM      1  C   UNL     1       6.275   5.780  17.952  0.00  0.00    +0.000 A 
ATOM      2  N   UNL     1       5.318   5.655  18.825  0.00  0.00    +0.000 NA
ATOM      3  C   UNL     1       4.199   4.854  18.522  0.00  0.00    +0.000 A 
ATOM      4  C   UNL     1       3.187   4.743  19.477  0.00  0.00    +0.000 A 
ATOM      5  C   UNL     1       2.054   3.963  19.228  0.00  0.00    +0.000 A 
ATOM      6  C   UNL     1       1.924   3.286  18.015  0.00  0.00    +0.000 A 
ATOM      7  C   UNL     1       2.923   3.382  17.045  0.00  0.00    +0.000 A 
ATOM      8  C   UNL     1       4.050   4.166  17.308  0.00  0.00    +0.000 A 
ATOM      9  N   UNL     1       5.102   4.318  16.384  0.00  0.00    +0.000 N 
ATOM     10  C   UNL     1       5.250   3.781  15.128  0.00  0.00    +0.000 A 
ATOM     11  C   UNL     1       6.448   4.220  14.609  0.00  0.00    +0.000 A 
ATOM     12  C   UNL     1       7.049   5.052  15.583  0.00  0.00    +0.000 A 
ATOM     13  C   UNL     1       6.200   5.101  16.675  0.00  0.00    +0.000 A 
ENDROOT
BRANCH   1  15
ATOM     14  C   UNL     1       7.523   7.905  17.847  0.00  0.00    +0.000 C 
ATOM     15  C   UNL     1       7.471   6.624  18.240  0.00  0.00    +0.000 C 
BRANCH  14  17
ATOM     16  C   UNL     1       8.555  10.066  18.342  0.00  0.00    +0.000 C 
ATOM     17  C   UNL     1       8.668   8.753  18.099  0.00  0.00    +0.000 C 
BRANCH  16  20
ATOM     18  C   UNL     1      11.332  12.070  20.064  0.00  0.00    +0.000 C 
ATOM     19  C   UNL     1      10.153  11.188  19.816  0.00  0.00    +0.000 C 
ATOM     20  C   UNL     1       9.698  10.914  18.585  0.00  0.00    +0.000 C 
ENDBRANCH  16  20
ENDBRANCH  14  17
ENDBRANCH   1  15
TORSDOF 3
ENDMDL
MODEL 3
REMARK VINA RESULT:      -7.8      5.289      6.993
REMARK  Name = 
REMARK  4 active torsions:
REMARK  status: ('A' for Active; 'I' for Inactive)
REMARK    1  A    between atoms: C_1  and  C_2
REMARK    2  A    between atoms: C_3  and  C_4
REMARK    3  A    between atoms: C_5  and  C_6
REMARK    4  A    between atoms: C_7  and  C_8
REMARK                            x       y       z     vdW  Elec       q    Type
REMARK                         _______ _______ _______ _____ _____    ______ ____
ROOT
ATOM      1  C   UNL     1       2.327   6.453  19.614  0.00  0.00    +0.000 A 
ATOM      2  N   UNL     1       3.167   6.881  18.716  0.00  0.00    +0.000 NA
ATOM      3  C   UNL     1       3.770   5.964  17.832  0.00  0.00    +0.000 A 
ATOM      4  C   UNL     1       4.669   6.453  16.884  0.00  0.00    +0.000 A 
ATOM      5  C   UNL     1       5.298   5.588  15.984  0.00  0.00    +0.000 A 
ATOM      6  C   UNL     1       5.029   4.219  16.027  0.00  0.00    +0.000 A 
ATOM      7  C   UNL     1       4.133   3.707  16.967  0.00  0.00    +0.000 A 
ATOM      8  C   UNL     1       3.513   4.584  17.861  0.00  0.00    +0.000 A 
ATOM      9  N   UNL     1       2.599   4.151  18.840  0.00  0.00    +0.000 N 
ATOM     10  C   UNL     1       2.148   2.884  19.117  0.00  0.00    +0.000 A 
ATOM     11  C   UNL     1       1.259   2.962  20.168  0.00  0.00    +0.000 A 
ATOM     12  C   UNL     1       1.169   4.323  20.541  0.00  0.00    +0.000 A 
ATOM     13  C   UNL     1       2.005   5.044  19.708  0.00  0.00    +0.000 A 
ENDROOT
BRANCH   1  15
ATOM     14  C   UNL     1       1.350   8.643  20.194  0.00  0.00    +0.000 C 
ATOM     15  C   UNL     1       1.675   7.397  20.568  0.00  0.00    +0.000 C 
BRANCH  14  17
ATOM     16  C   UNL     1      -0.114   9.214  22.067  0.00  0.00    +0.000 C 
ATOM     17  C   UNL     1       0.726   9.589  21.091  0.00  0.00    +0.000 C 
BRANCH  16  20
ATOM     18  C   UNL     1      -1.901  12.305  23.462  0.00  0.00    +0.000 C 
ATOM     19  C   UNL     1      -1.255  11.326  22.538  0.00  0.00    +0.000 C 
ATOM     20  C   UNL     1      -0.745  10.160  22.957  0.00  0.00    +0.000 C 
ENDBRANCH  16  20
ENDBRANCH  14  17
ENDBRANCH   1  15
TORSDOF 3
ENDMDL
MODEL 4
REMARK VINA RESULT:      -7.8      4.560      7.682
REMARK  Name = 
REMARK  4 active torsions:
REMARK  status: ('A' for Active; 'I' for Inactive)
REMARK    1  A    between atoms: C_1  and  C_2
REMARK    2  A    between atoms: C_3  and  C_4
REMARK    3  A    between atoms: C_5  and  C_6
REMARK    4  A    between atoms: C_7  and  C_8
REMARK                            x       y       z     vdW  Elec       q    Type
REMARK                         _______ _______ _______ _____ _____    ______ ____
ROOT
ATOM      1  C   UNL     1       3.820   4.746  17.657  0.00  0.00    +0.000 A 
ATOM      2  N   UNL     1       3.496   5.995  17.483  0.00  0.00    +0.000 NA
ATOM      3  C   UNL     1       2.797   6.681  18.496  0.00  0.00    +0.000 A 
ATOM      4  C   UNL     1       2.461   8.018  18.278  0.00  0.00    +0.000 A 
ATOM      5  C   UNL     1       1.765   8.746  19.248  0.00  0.00    +0.000 A 
ATOM      6  C   UNL     1       1.399   8.137  20.449  0.00  0.00    +0.000 A 
ATOM      7  C   UNL     1       1.725   6.802  20.690  0.00  0.00    +0.000 A 
ATOM      8  C   UNL     1       2.420   6.086  19.710  0.00  0.00    +0.000 A 
ATOM      9  N   UNL     1       2.785   4.736  19.871  0.00  0.00    +0.000 N 
ATOM     10  C   UNL     1       2.563   3.889  20.928  0.00  0.00    +0.000 A 
ATOM     11  C   UNL     1       3.109   2.661  20.620  0.00  0.00    +0.000 A 
ATOM     12  C   UNL     1       3.680   2.767  19.331  0.00  0.00    +0.000 A 
ATOM     13  C   UNL     1       3.470   4.059  18.882  0.00  0.00    +0.000 A 
ENDROOT
BRANCH   1  15
ATOM     14  C   UNL     1       5.296   4.627  15.684  0.00  0.00    +0.000 C 
ATOM     15  C   UNL     1       4.556   3.990  16.602  0.00  0.00    +0.000 C 
BRANCH  14  17
ATOM     16  C   UNL     1       5.728   4.077  13.341  0.00  0.00    +0.000 C 
ATOM     17  C   UNL     1       6.017   3.930  14.642  0.00  0.00    +0.000 C 
BRANCH  16  20
ATOM     18  C   UNL     1       6.827   1.431  10.794  0.00  0.00    +0.000 C 
ATOM     19  C   UNL     1       6.082   2.159  11.865  0.00  0.00    +0.000 C 
ATOM     20  C   UNL     1       6.442   3.374  12.301  0.00  0.00    +0.000 C 
ENDBRANCH  16  20
ENDBRANCH  14  17
ENDBRANCH   1  15
TORSDOF 3
ENDMDL
MODEL 5
REMARK VINA RESULT:      -7.4      4.458      6.044
REMARK  Name = 
REMARK  4 active torsions:
REMARK  status: ('A' for Active; 'I' for Inactive)
REMARK    1  A    between atoms: C_1  and  C_2
REMARK    2  A    between atoms: C_3  and  C_4
REMARK    3  A    between atoms: C_5  and  C_6
REMARK    4  A    between atoms: C_7  and  C_8
REMARK                            x       y       z     vdW  Elec       q    Type
REMARK                         _______ _______ _______ _____ _____    ______ ____
ROOT
ATOM      1  C   UNL     1       3.116   6.477  18.142  0.00  0.00    +0.000 A 
ATOM      2  N   UNL     1       4.215   6.817  17.531  0.00  0.00    +0.000 NA
ATOM      3  C   UNL     1       4.948   5.843  16.824  0.00  0.00    +0.000 A 
ATOM      4  C   UNL     1       6.124   6.236  16.183  0.00  0.00    +0.000 A 
ATOM      5  C   UNL     1       6.891   5.311  15.469  0.00  0.00    +0.000 A 
ATOM      6  C   UNL     1       6.484   3.979  15.391  0.00  0.00    +0.000 A 
ATOM      7  C   UNL     1       5.312   3.562  16.023  0.00  0.00    +0.000 A 
ATOM      8  C   UNL     1       4.556   4.498  16.735  0.00  0.00    +0.000 A 
ATOM      9  N   UNL     1       3.363   4.161  17.403  0.00  0.00    +0.000 N 
ATOM     10  C   UNL     1       2.726   2.948  17.501  0.00  0.00    +0.000 A 
ATOM     11  C   UNL     1       1.589   3.117  18.261  0.00  0.00    +0.000 A 
ATOM     12  C   UNL     1       1.534   4.480  18.637  0.00  0.00    +0.000 A 
ATOM     13  C   UNL     1       2.641   5.110  18.097  0.00  0.00    +0.000 A 
ENDROOT
BRANCH   1  15
ATOM     14  C   UNL     1       1.916   8.624  18.328  0.00  0.00    +0.000 C 
ATOM     15  C   UNL     1       2.320   7.483  18.904  0.00  0.00    +0.000 C 
BRANCH  14  17
ATOM     16  C   UNL     1       0.640   9.417  20.258  0.00  0.00    +0.000 C 
ATOM     17  C   UNL     1       1.150   9.626  19.036  0.00  0.00    +0.000 C 
BRANCH  16  20
ATOM     18  C   UNL     1      -1.249  11.342  22.982  0.00  0.00    +0.000 C 
ATOM     19  C   UNL     1      -0.444  10.312  22.260  0.00  0.00    +0.000 C 
ATOM     20  C   UNL     1      -0.133  10.414  20.961  0.00  0.00    +0.000 C 
ENDBRANCH  16  20
ENDBRANCH  14  17
ENDBRANCH   1  15
TORSDOF 3
ENDMDL
MODEL 6
REMARK VINA RESULT:      -7.4      4.390      7.670
REMARK  Name = 
REMARK  4 active torsions:
REMARK  status: ('A' for Active; 'I' for Inactive)
REMARK    1  A    between atoms: C_1  and  C_2
REMARK    2  A    between atoms: C_3  and  C_4
REMARK    3  A    between atoms: C_5  and  C_6
REMARK    4  A    between atoms: C_7  and  C_8
REMARK                            x       y       z     vdW  Elec       q    Type
REMARK                         _______ _______ _______ _____ _____    ______ ____
ROOT
ATOM      1  C   UNL     1       3.671   6.062  17.750  0.00  0.00    +0.000 A 
ATOM      2  N   UNL     1       3.351   7.286  17.440  0.00  0.00    +0.000 NA
ATOM      3  C   UNL     1       2.522   8.029  18.303  0.00  0.00    +0.000 A 
ATOM      4  C   UNL     1       2.193   9.337  17.941  0.00  0.00    +0.000 A 
ATOM      5  C   UNL     1       1.372  10.118  18.759  0.00  0.00    +0.000 A 
ATOM      6  C   UNL     1       0.872   9.594  19.952  0.00  0.00    +0.000 A 
ATOM      7  C   UNL     1       1.187   8.289  20.335  0.00  0.00    +0.000 A 
ATOM      8  C   UNL     1       2.008   7.519  19.506  0.00  0.00    +0.000 A 
ATOM      9  N   UNL     1       2.373   6.195  19.816  0.00  0.00    +0.000 N 
ATOM     10  C   UNL     1       2.037   5.426  20.903  0.00  0.00    +0.000 A 
ATOM     11  C   UNL     1       2.636   4.193  20.761  0.00  0.00    +0.000 A 
ATOM     12  C   UNL     1       3.359   4.214  19.546  0.00  0.00    +0.000 A 
ATOM     13  C   UNL     1       3.185   5.462  18.975  0.00  0.00    +0.000 A 
ENDROOT
BRANCH   1  15
ATOM     14  C   UNL     1       5.182   5.805  15.817  0.00  0.00    +0.000 C 
ATOM     15  C   UNL     1       4.543   5.247  16.855  0.00  0.00    +0.000 C 
BRANCH  14  17
ATOM     16  C   UNL     1       5.542   4.340  13.892  0.00  0.00    +0.000 C 
ATOM     17  C   UNL     1       6.029   5.046  14.923  0.00  0.00    +0.000 C 
BRANCH  16  20
ATOM     18  C   UNL     1       6.776   1.967  11.146  0.00  0.00    +0.000 C 
ATOM     19  C   UNL     1       5.900   2.761  12.058  0.00  0.00    +0.000 C 
ATOM     20  C   UNL     1       6.387   3.575  13.005  0.00  0.00    +0.000 C 
ENDBRANCH  16  20
ENDBRANCH  14  17
ENDBRANCH   1  15
TORSDOF 3
ENDMDL
MODEL 7
REMARK VINA RESULT:      -7.4      4.629      6.403
REMARK  Name = 
REMARK  4 active torsions:
REMARK  status: ('A' for Active; 'I' for Inactive)
REMARK    1  A    between atoms: C_1  and  C_2
REMARK    2  A    between atoms: C_3  and  C_4
REMARK    3  A    between atoms: C_5  and  C_6
REMARK    4  A    between atoms: C_7  and  C_8
REMARK                            x       y       z     vdW  Elec       q    Type
REMARK                         _______ _______ _______ _____ _____    ______ ____
ROOT
ATOM      1  C   UNL     1       2.750   6.023  18.921  0.00  0.00    +0.000 A 
ATOM      2  N   UNL     1       3.771   6.518  18.283  0.00  0.00    +0.000 NA
ATOM      3  C   UNL     1       4.506   5.700  17.402  0.00  0.00    +0.000 A 
ATOM      4  C   UNL     1       5.597   6.259  16.736  0.00  0.00    +0.000 A 
ATOM      5  C   UNL     1       6.363   5.493  15.852  0.00  0.00    +0.000 A 
ATOM      6  C   UNL     1       6.039   4.154  15.628  0.00  0.00    +0.000 A 
ATOM      7  C   UNL     1       4.952   3.573  16.283  0.00  0.00    +0.000 A 
ATOM      8  C   UNL     1       4.196   4.352  17.164  0.00  0.00    +0.000 A 
ATOM      9  N   UNL     1       3.087   3.844  17.866  0.00  0.00    +0.000 N 
ATOM     10  C   UNL     1       2.541   2.584  17.848  0.00  0.00    +0.000 A 
ATOM     11  C   UNL     1       1.460   2.569  18.704  0.00  0.00    +0.000 A 
ATOM     12  C   UNL     1       1.347   3.865  19.261  0.00  0.00    +0.000 A 
ATOM     13  C   UNL     1       2.363   4.640  18.730  0.00  0.00    +0.000 A 
ENDROOT
BRANCH   1  15
ATOM     14  C   UNL     1       1.824   8.181  19.675  0.00  0.00    +0.000 C 
ATOM     15  C   UNL     1       1.954   6.860  19.865  0.00  0.00    +0.000 C 
BRANCH  14  17
ATOM     16  C   UNL     1       0.785   8.673  21.833  0.00  0.00    +0.000 C 
ATOM     17  C   UNL     1       1.068   9.028  20.572  0.00  0.00    +0.000 C 
BRANCH  16  20
ATOM     18  C   UNL     1      -1.457  11.451  23.231  0.00  0.00    +0.000 C 
ATOM     19  C   UNL     1      -0.675  10.579  22.304  0.00  0.00    +0.000 C 
ATOM     20  C   UNL     1       0.022   9.515  22.726  0.00  0.00    +0.000 C 
ENDBRANCH  16  20
ENDBRANCH  14  17
ENDBRANCH   1  15
TORSDOF 3
ENDMDL
MODEL 8
REMARK VINA RESULT:      -7.3      5.255      7.434
REMARK  Name = 
REMARK  4 active torsions:
REMARK  status: ('A' for Active; 'I' for Inactive)
REMARK    1  A    between atoms: C_1  and  C_2
REMARK    2  A    between atoms: C_3  and  C_4
REMARK    3  A    between atoms: C_5  and  C_6
REMARK    4  A    between atoms: C_7  and  C_8
REMARK                            x       y       z     vdW  Elec       q    Type
REMARK                         _______ _______ _______ _____ _____    ______ ____
ROOT
ATOM      1  C   UNL     1       2.371   6.434  19.389  0.00  0.00    +0.000 A 
ATOM      2  N   UNL     1       1.935   5.308  19.877  0.00  0.00    +0.000 NA
ATOM      3  C   UNL     1       2.397   4.090  19.338  0.00  0.00    +0.000 A 
ATOM      4  C   UNL     1       1.908   2.900  19.879  0.00  0.00    +0.000 A 
ATOM      5  C   UNL     1       2.331   1.664  19.382  0.00  0.00    +0.000 A 
ATOM      6  C   UNL     1       3.251   1.610  18.334  0.00  0.00    +0.000 A 
ATOM      7  C   UNL     1       3.754   2.787  17.778  0.00  0.00    +0.000 A 
ATOM      8  C   UNL     1       3.322   4.016  18.285  0.00  0.00    +0.000 A 
ATOM      9  N   UNL     1       3.777   5.249  17.780  0.00  0.00    +0.000 N 
ATOM     10  C   UNL     1       4.668   5.505  16.767  0.00  0.00    +0.000 A 
ATOM     11  C   UNL     1       4.794   6.871  16.638  0.00  0.00    +0.000 A 
ATOM     12  C   UNL     1       3.950   7.464  17.605  0.00  0.00    +0.000 A 
ATOM     13  C   UNL     1       3.328   6.444  18.303  0.00  0.00    +0.000 A 
ENDROOT
BRANCH   1  15
ATOM     14  C   UNL     1       1.178   7.798  21.063  0.00  0.00    +0.000 C 
ATOM     15  C   UNL     1       1.897   7.740  19.933  0.00  0.00    +0.000 C 
BRANCH  14  17
ATOM     16  C   UNL     1      -0.307   9.099  22.506  0.00  0.00    +0.000 C 
ATOM     17  C   UNL     1       0.695   9.044  21.617  0.00  0.00    +0.000 C 
BRANCH  16  20
ATOM     18  C   UNL     1      -1.172  12.803  22.984  0.00  0.00    +0.000 C 
ATOM     19  C   UNL     1      -0.672  11.517  22.414  0.00  0.00    +0.000 C 
ATOM     20  C   UNL     1      -0.795  10.344  23.052  0.00  0.00    +0.000 C 
ENDBRANCH  16  20
ENDBRANCH  14  17
ENDBRANCH   1  15
TORSDOF 3
ENDMDL
MODEL 9
REMARK VINA RESULT:      -7.3      4.700      6.604
REMARK  Name = 
REMARK  4 active torsions:
REMARK  status: ('A' for Active; 'I' for Inactive)
REMARK    1  A    between atoms: C_1  and  C_2
REMARK    2  A    between atoms: C_3  and  C_4
REMARK    3  A    between atoms: C_5  and  C_6
REMARK    4  A    between atoms: C_7  and  C_8
REMARK                            x       y       z     vdW  Elec       q    Type
REMARK                         _______ _______ _______ _____ _____    ______ ____
ROOT
ATOM      1  C   UNL     1       3.139   6.523  17.884  0.00  0.00    +0.000 A 
ATOM      2  N   UNL     1       2.329   5.814  18.617  0.00  0.00    +0.000 NA
ATOM      3  C   UNL     1       2.441   4.409  18.619  0.00  0.00    +0.000 A 
ATOM      4  C   UNL     1       1.556   3.677  19.412  0.00  0.00    +0.000 A 
ATOM      5  C   UNL     1       1.620   2.281  19.450  0.00  0.00    +0.000 A 
ATOM      6  C   UNL     1       2.576   1.604  18.691  0.00  0.00    +0.000 A 
ATOM      7  C   UNL     1       3.472   2.315  17.891  0.00  0.00    +0.000 A 
ATOM      8  C   UNL     1       3.395   3.711  17.862  0.00  0.00    +0.000 A 
ATOM      9  N   UNL     1       4.257   4.503  17.081  0.00  0.00    +0.000 N 
ATOM     10  C   UNL     1       5.279   4.124  16.245  0.00  0.00    +0.000 A 
ATOM     11  C   UNL     1       5.835   5.261  15.699  0.00  0.00    +0.000 A 
ATOM     12  C   UNL     1       5.126   6.368  16.221  0.00  0.00    +0.000 A 
ATOM     13  C   UNL     1       4.153   5.880  17.075  0.00  0.00    +0.000 A 
ENDROOT
BRANCH   1  15
ATOM     14  C   UNL     1       1.869   8.632  18.033  0.00  0.00    +0.000 C 
ATOM     15  C   UNL     1       3.044   8.012  17.855  0.00  0.00    +0.000 C 
BRANCH  14  17
ATOM     16  C   UNL     1       1.187  10.768  19.010  0.00  0.00    +0.000 C 
ATOM     17  C   UNL     1       1.736  10.072  18.004  0.00  0.00    +0.000 C 
BRANCH  16  20
ATOM     18  C   UNL     1      -0.259  14.302  18.671  0.00  0.00    +0.000 C 
ATOM     19  C   UNL     1      -0.117  12.816  18.711  0.00  0.00    +0.000 C 
ATOM     20  C   UNL     1       1.046  12.205  18.976  0.00  0.00    +0.000 C 
ENDBRANCH  16  20
ENDBRANCH  14  17
ENDBRANCH   1  15
TORSDOF 3
ENDMDL
