MODEL 1
REMARK VINA RESULT:      -7.5      0.000      0.000
REMARK  Name = 
REMARK  12 active torsions:
REMARK  status: ('A' for Active; 'I' for Inactive)
REMARK    1  A    between atoms: C_1  and  C_2
REMARK    2  A    between atoms: C_2  and  C_3
REMARK    3  A    between atoms: C_2  and  C_4
REMARK    4  A    between atoms: C_2  and  O_5
REMARK    5  A    between atoms: O_5  and  C_6
REMARK    6  A    between atoms: C_11  and  C_12
REMARK    7  A    between atoms: C_12  and  N_13
REMARK    8  A    between atoms: N_13  and  C_14
REMARK    9  A    between atoms: N_13  and  C_22
REMARK   10  A    between atoms: C_14  and  C_15
REMARK   11  A    between atoms: C_22  and  C_23
REMARK   12  A    between atoms: C_26  and  N_27
REMARK                            x       y       z     vdW  Elec       q    Type
REMARK                         _______ _______ _______ _____ _____    ______ ____
ROOT
ATOM      1  N   UNL     1       2.073   6.881  20.334  0.00  0.00    +0.000 NA
ENDROOT
BRANCH   1   2
ATOM      2  C   UNL     1       1.666   8.159  20.939  0.00  0.00    +0.000 C 
BRANCH   2   8
ATOM      3  C   UNL     1      -1.527  12.062  21.584  0.00  0.00    +0.000 C 
ATOM      4  O   UNL     1      -1.640  12.781  20.602  0.00  0.00    +0.000 OA
ATOM      5  N   UNL     1      -0.398  11.276  21.798  0.00  0.00    +0.000 N 
ATOM      6  C   UNL     1       0.524  11.139  20.691  0.00  0.00    +0.000 C 
ATOM      7  C   UNL     1       0.140   9.887  19.907  0.00  0.00    +0.000 C 
ATOM      8  C   UNL     1       0.193   8.616  20.790  0.00  0.00    +0.000 C 
ATOM      9  C   UNL     1      -0.568   8.838  22.121  0.00  0.00    +0.000 C 
ATOM     10  C   UNL     1      -0.328  10.201  22.783  0.00  0.00    +0.000 C 
BRANCH   3  11
ATOM     11  O   UNL     1      -2.481  11.922  22.543  0.00  0.00    +0.000 OA
BRANCH  11  13
ATOM     12  C   UNL     1      -3.909  13.914  22.286  0.00  0.00    +0.000 C 
ATOM     13  C   UNL     1      -2.976  13.119  23.211  0.00  0.00    +0.000 C 
ATOM     14  C   UNL     1      -1.819  13.965  23.761  0.00  0.00    +0.000 C 
ATOM     15  C   UNL     1      -3.810  12.628  24.405  0.00  0.00    +0.000 C 
ENDBRANCH  11  13
ENDBRANCH   3  11
ENDBRANCH   2   8
ENDBRANCH   1   2
BRANCH   1  16
ATOM     16  C   UNL     1       1.071   5.802  20.428  0.00  0.00    +0.000 C 
BRANCH  16  17
ATOM     17  C   UNL     1       1.612   4.441  20.011  0.00  0.00    +0.000 A 
ATOM     18  C   UNL     1       2.392   3.679  20.897  0.00  0.00    +0.000 A 
ATOM     19  C   UNL     1       3.049   2.528  20.451  0.00  0.00    +0.000 A 
ATOM     20  C   UNL     1       2.941   2.139  19.119  0.00  0.00    +0.000 A 
ATOM     21 CL   UNL     1       3.869   0.813  18.532  0.00  0.00    +0.000 Cl
ATOM     22  C   UNL     1       2.103   2.832  18.252  0.00  0.00    +0.000 A 
ATOM     23  C   UNL     1       1.412   3.954  18.711  0.00  0.00    +0.000 A 
ENDBRANCH  16  17
ENDBRANCH   1  16
BRANCH   1  24
ATOM     24  C   UNL     1       2.611   7.090  18.964  0.00  0.00    +0.000 C 
BRANCH  24  25
ATOM     25  C   UNL     1       3.934   6.426  18.622  0.00  0.00    +0.000 A 
ATOM     26  C   UNL     1       4.746   5.637  19.423  0.00  0.00    +0.000 A 
ATOM     27  C   UNL     1       5.894   5.137  18.731  0.00  0.00    +0.000 A 
ATOM     28  C   UNL     1       5.913   5.564  17.421  0.00  0.00    +0.000 A 
ATOM     29  S   UNL     1       4.551   6.479  17.021  0.00  0.00    +0.000 S 
BRANCH  28  30
ATOM     30  N   UNL     1       6.921   5.282  16.431  0.00  0.00    +0.000 N 
ATOM     31  O   UNL     1       6.773   5.827  15.328  0.00  0.00    +0.000 OA
ATOM     32  O   UNL     1       7.845   4.517  16.734  0.00  0.00    +0.000 OA
ENDBRANCH  28  30
ENDBRANCH  24  25
ENDBRANCH   1  24
TORSDOF 9
ENDMDL
MODEL 2
REMARK VINA RESULT:      -7.1      0.869      1.162
REMARK  Name = 
REMARK  12 active torsions:
REMARK  status: ('A' for Active; 'I' for Inactive)
REMARK    1  A    between atoms: C_1  and  C_2
REMARK    2  A    between atoms: C_2  and  C_3
REMARK    3  A    between atoms: C_2  and  C_4
REMARK    4  A    between atoms: C_2  and  O_5
REMARK    5  A    between atoms: O_5  and  C_6
REMARK    6  A    between atoms: C_11  and  C_12
REMARK    7  A    between atoms: C_12  and  N_13
REMARK    8  A    between atoms: N_13  and  C_14
REMARK    9  A    between atoms: N_13  and  C_22
REMARK   10  A    between atoms: C_14  and  C_15
REMARK   11  A    between atoms: C_22  and  C_23
REMARK   12  A    between atoms: C_26  and  N_27
REMARK                            x       y       z     vdW  Elec       q    Type
REMARK                         _______ _______ _______ _____ _____    ______ ____
ROOT
ATOM      1  N   UNL     1       2.197   6.817  20.057  0.00  0.00    +0.000 NA
ENDROOT
BRANCH   1   2
ATOM      2  C   UNL     1       1.839   8.066  20.747  0.00  0.00    +0.000 C 
BRANCH   2   8
ATOM      3  C   UNL     1      -1.074  12.151  21.565  0.00  0.00    +0.000 C 
ATOM      4  O   UNL     1      -0.979  13.011  20.701  0.00  0.00    +0.000 OA
ATOM      5  N   UNL     1      -0.059  11.228  21.801  0.00  0.00    +0.000 N 
ATOM      6  C   UNL     1       1.001  11.154  20.819  0.00  0.00    +0.000 C 
ATOM      7  C   UNL     1       0.633  10.075  19.805  0.00  0.00    +0.000 C 
ATOM      8  C   UNL     1       0.448   8.692  20.478  0.00  0.00    +0.000 C 
ATOM      9  C   UNL     1      -0.479   8.801  21.713  0.00  0.00    +0.000 C 
ATOM     10  C   UNL     1      -0.225  10.022  22.607  0.00  0.00    +0.000 C 
BRANCH   3  11
ATOM     11  O   UNL     1      -2.167  11.978  22.355  0.00  0.00    +0.000 OA
BRANCH  11  13
ATOM     12  C   UNL     1      -3.561  13.996  22.123  0.00  0.00    +0.000 C 
ATOM     13  C   UNL     1      -2.705  13.133  23.061  0.00  0.00    +0.000 C 
ATOM     14  C   UNL     1      -1.589  13.930  23.752  0.00  0.00    +0.000 C 
ATOM     15  C   UNL     1      -3.630  12.574  24.154  0.00  0.00    +0.000 C 
ENDBRANCH  11  13
ENDBRANCH   3  11
ENDBRANCH   2   8
ENDBRANCH   1   2
BRANCH   1  16
ATOM     16  C   UNL     1       1.255   5.699  20.268  0.00  0.00    +0.000 C 
BRANCH  16  17
ATOM     17  C   UNL     1       1.828   4.347  19.863  0.00  0.00    +0.000 A 
ATOM     18  C   UNL     1       2.783   3.705  20.668  0.00  0.00    +0.000 A 
ATOM     19  C   UNL     1       3.450   2.566  20.204  0.00  0.00    +0.000 A 
ATOM     20  C   UNL     1       3.177   2.072  18.932  0.00  0.00    +0.000 A 
ATOM     21 CL   UNL     1       4.102   0.767  18.299  0.00  0.00    +0.000 Cl
ATOM     22  C   UNL     1       2.172   2.645  18.159  0.00  0.00    +0.000 A 
ATOM     23  C   UNL     1       1.475   3.753  18.643  0.00  0.00    +0.000 A 
ENDBRANCH  16  17
ENDBRANCH   1  16
BRANCH   1  24
ATOM     24  C   UNL     1       2.522   7.074  18.629  0.00  0.00    +0.000 C 
BRANCH  24  25
ATOM     25  C   UNL     1       3.815   6.489  18.090  0.00  0.00    +0.000 A 
ATOM     26  C   UNL     1       4.238   6.374  16.774  0.00  0.00    +0.000 A 
ATOM     27  C   UNL     1       5.551   5.815  16.658  0.00  0.00    +0.000 A 
ATOM     28  C   UNL     1       6.083   5.527  17.896  0.00  0.00    +0.000 A 
ATOM     29  S   UNL     1       5.059   5.982  19.160  0.00  0.00    +0.000 S 
BRANCH  28  30
ATOM     30  N   UNL     1       7.368   4.937  18.172  0.00  0.00    +0.000 N 
ATOM     31  O   UNL     1       7.773   5.028  19.340  0.00  0.00    +0.000 OA
ATOM     32  O   UNL     1       7.980   4.398  17.241  0.00  0.00    +0.000 OA
ENDBRANCH  28  30
ENDBRANCH  24  25
ENDBRANCH   1  24
TORSDOF 9
ENDMDL
MODEL 3
REMARK VINA RESULT:      -7.0      1.852      2.518
REMARK  Name = 
REMARK  12 active torsions:
REMARK  status: ('A' for Active; 'I' for Inactive)
REMARK    1  A    between atoms: C_1  and  C_2
REMARK    2  A    between atoms: C_2  and  C_3
REMARK    3  A    between atoms: C_2  and  C_4
REMARK    4  A    between atoms: C_2  and  O_5
REMARK    5  A    between atoms: O_5  and  C_6
REMARK    6  A    between atoms: C_11  and  C_12
REMARK    7  A    between atoms: C_12  and  N_13
REMARK    8  A    between atoms: N_13  and  C_14
REMARK    9  A    between atoms: N_13  and  C_22
REMARK   10  A    between atoms: C_14  and  C_15
REMARK   11  A    between atoms: C_22  and  C_23
REMARK   12  A    between atoms: C_26  and  N_27
REMARK                            x       y       z     vdW  Elec       q    Type
REMARK                         _______ _______ _______ _____ _____    ______ ____
ROOT
ATOM      1  N   UNL     1       2.528   7.381  18.217  0.00  0.00    +0.000 NA
ENDROOT
BRANCH   1   2
ATOM      2  C   UNL     1       1.526   8.413  17.909  0.00  0.00    +0.000 C 
BRANCH   2   8
ATOM      3  C   UNL     1      -0.640  10.806  21.837  0.00  0.00    +0.000 C 
ATOM      4  O   UNL     1      -0.079  10.616  22.906  0.00  0.00    +0.000 OA
ATOM      5  N   UNL     1      -0.534   9.907  20.779  0.00  0.00    +0.000 N 
ATOM      6  C   UNL     1       0.470   8.872  20.896  0.00  0.00    +0.000 C 
ATOM      7  C   UNL     1       1.749   9.377  20.233  0.00  0.00    +0.000 C 
ATOM      8  C   UNL     1       1.526   9.721  18.740  0.00  0.00    +0.000 C 
ATOM      9  C   UNL     1       0.276  10.617  18.562  0.00  0.00    +0.000 C 
ATOM     10  C   UNL     1      -0.937  10.210  19.409  0.00  0.00    +0.000 C 
BRANCH   3  11
ATOM     11  O   UNL     1      -1.388  11.905  21.550  0.00  0.00    +0.000 OA
BRANCH  11  13
ATOM     12  C   UNL     1      -1.421  14.105  20.441  0.00  0.00    +0.000 C 
ATOM     13  C   UNL     1      -0.719  13.197  21.461  0.00  0.00    +0.000 C 
ATOM     14  C   UNL     1       0.780  13.026  21.176  0.00  0.00    +0.000 C 
ATOM     15  C   UNL     1      -0.865  13.849  22.845  0.00  0.00    +0.000 C 
ENDBRANCH  11  13
ENDBRANCH   3  11
ENDBRANCH   2   8
ENDBRANCH   1   2
BRANCH   1  16
ATOM     16  C   UNL     1       2.177   6.020  17.765  0.00  0.00    +0.000 C 
BRANCH  16  17
ATOM     17  C   UNL     1       1.851   5.071  18.911  0.00  0.00    +0.000 A 
ATOM     18  C   UNL     1       2.198   5.400  20.231  0.00  0.00    +0.000 A 
ATOM     19  C   UNL     1       2.078   4.452  21.253  0.00  0.00    +0.000 A 
ATOM     20  C   UNL     1       1.624   3.169  20.959  0.00  0.00    +0.000 A 
ATOM     21 CL   UNL     1       1.620   1.956  22.180  0.00  0.00    +0.000 Cl
ATOM     22  C   UNL     1       1.195   2.855  19.673  0.00  0.00    +0.000 A 
ATOM     23  C   UNL     1       1.272   3.818  18.666  0.00  0.00    +0.000 A 
ENDBRANCH  16  17
ENDBRANCH   1  16
BRANCH   1  24
ATOM     24  C   UNL     1       3.888   7.823  17.808  0.00  0.00    +0.000 C 
BRANCH  24  25
ATOM     25  C   UNL     1       4.843   6.761  17.291  0.00  0.00    +0.000 A 
ATOM     26  C   UNL     1       5.471   5.739  17.988  0.00  0.00    +0.000 A 
ATOM     27  C   UNL     1       6.261   4.894  17.146  0.00  0.00    +0.000 A 
ATOM     28  C   UNL     1       6.203   5.303  15.832  0.00  0.00    +0.000 A 
ATOM     29  S   UNL     1       5.171   6.622  15.612  0.00  0.00    +0.000 S 
BRANCH  28  30
ATOM     30  N   UNL     1       6.885   4.713  14.708  0.00  0.00    +0.000 N 
ATOM     31  O   UNL     1       6.459   3.615  14.323  0.00  0.00    +0.000 OA
ATOM     32  O   UNL     1       7.843   5.323  14.216  0.00  0.00    +0.000 OA
ENDBRANCH  28  30
ENDBRANCH  24  25
ENDBRANCH   1  24
TORSDOF 9
ENDMDL
MODEL 4
REMARK VINA RESULT:      -6.9      2.028      2.841
REMARK  Name = 
REMARK  12 active torsions:
REMARK  status: ('A' for Active; 'I' for Inactive)
REMARK    1  A    between atoms: C_1  and  C_2
REMARK    2  A    between atoms: C_2  and  C_3
REMARK    3  A    between atoms: C_2  and  C_4
REMARK    4  A    between atoms: C_2  and  O_5
REMARK    5  A    between atoms: O_5  and  C_6
REMARK    6  A    between atoms: C_11  and  C_12
REMARK    7  A    between atoms: C_12  and  N_13
REMARK    8  A    between atoms: N_13  and  C_14
REMARK    9  A    between atoms: N_13  and  C_22
REMARK   10  A    between atoms: C_14  and  C_15
REMARK   11  A    between atoms: C_22  and  C_23
REMARK   12  A    between atoms: C_26  and  N_27
REMARK                            x       y       z     vdW  Elec       q    Type
REMARK                         _______ _______ _______ _____ _____    ______ ____
ROOT
ATOM      1  N   UNL     1       2.608   7.103  18.261  0.00  0.00    +0.000 NA
ENDROOT
BRANCH   1   2
ATOM      2  C   UNL     1       1.566   8.110  18.003  0.00  0.00    +0.000 C 
BRANCH   2   8
ATOM      3  C   UNL     1      -0.486  11.045  21.611  0.00  0.00    +0.000 C 
ATOM      4  O   UNL     1       0.018  10.903  22.715  0.00  0.00    +0.000 OA
ATOM      5  N   UNL     1      -0.433  10.047  20.641  0.00  0.00    +0.000 N 
ATOM      6  C   UNL     1       0.462   8.938  20.891  0.00  0.00    +0.000 C 
ATOM      7  C   UNL     1       1.805   9.258  20.241  0.00  0.00    +0.000 C 
ATOM      8  C   UNL     1       1.666   9.483  18.715  0.00  0.00    +0.000 C 
ATOM      9  C   UNL     1       0.515  10.472  18.407  0.00  0.00    +0.000 C 
ATOM     10  C   UNL     1      -0.759  10.259  19.235  0.00  0.00    +0.000 C 
BRANCH   3  11
ATOM     11  O   UNL     1      -1.114  12.178  21.197  0.00  0.00    +0.000 OA
BRANCH  11  13
ATOM     12  C   UNL     1      -0.354  14.196  22.389  0.00  0.00    +0.000 C 
ATOM     13  C   UNL     1      -0.331  13.402  21.076  0.00  0.00    +0.000 C 
ATOM     14  C   UNL     1      -0.786  14.232  19.868  0.00  0.00    +0.000 C 
ATOM     15  C   UNL     1       1.119  12.958  20.824  0.00  0.00    +0.000 C 
ENDBRANCH  11  13
ENDBRANCH   3  11
ENDBRANCH   2   8
ENDBRANCH   1   2
BRANCH   1  16
ATOM     16  C   UNL     1       2.287   5.742  17.788  0.00  0.00    +0.000 C 
BRANCH  16  17
ATOM     17  C   UNL     1       2.145   4.731  18.917  0.00  0.00    +0.000 A 
ATOM     18  C   UNL     1       1.490   3.507  18.703  0.00  0.00    +0.000 A 
ATOM     19  C   UNL     1       1.187   2.668  19.780  0.00  0.00    +0.000 A 
ATOM     20  C   UNL     1       1.524   3.051  21.075  0.00  0.00    +0.000 A 
ATOM     21 CL   UNL     1       1.019   2.096  22.415  0.00  0.00    +0.000 Cl
ATOM     22  C   UNL     1       2.250   4.217  21.294  0.00  0.00    +0.000 A 
ATOM     23  C   UNL     1       2.592   5.031  20.212  0.00  0.00    +0.000 A 
ENDBRANCH  16  17
ENDBRANCH   1  16
BRANCH   1  24
ATOM     24  C   UNL     1       3.942   7.597  17.829  0.00  0.00    +0.000 C 
BRANCH  24  25
ATOM     25  C   UNL     1       4.914   6.578  17.260  0.00  0.00    +0.000 A 
ATOM     26  C   UNL     1       5.593   5.561  17.915  0.00  0.00    +0.000 A 
ATOM     27  C   UNL     1       6.385   4.761  17.031  0.00  0.00    +0.000 A 
ATOM     28  C   UNL     1       6.276   5.198  15.729  0.00  0.00    +0.000 A 
ATOM     29  S   UNL     1       5.198   6.488  15.569  0.00  0.00    +0.000 S 
BRANCH  28  30
ATOM     30  N   UNL     1       6.943   4.656  14.573  0.00  0.00    +0.000 N 
ATOM     31  O   UNL     1       7.950   5.265  14.185  0.00  0.00    +0.000 OA
ATOM     32  O   UNL     1       6.470   3.643  14.042  0.00  0.00    +0.000 OA
ENDBRANCH  28  30
ENDBRANCH  24  25
ENDBRANCH   1  24
TORSDOF 9
ENDMDL
MODEL 5
REMARK VINA RESULT:      -6.8      2.314      3.061
REMARK  Name = 
REMARK  12 active torsions:
REMARK  status: ('A' for Active; 'I' for Inactive)
REMARK    1  A    between atoms: C_1  and  C_2
REMARK    2  A    between atoms: C_2  and  C_3
REMARK    3  A    between atoms: C_2  and  C_4
REMARK    4  A    between atoms: C_2  and  O_5
REMARK    5  A    between atoms: O_5  and  C_6
REMARK    6  A    between atoms: C_11  and  C_12
REMARK    7  A    between atoms: C_12  and  N_13
REMARK    8  A    between atoms: N_13  and  C_14
REMARK    9  A    between atoms: N_13  and  C_22
REMARK   10  A    between atoms: C_14  and  C_15
REMARK   11  A    between atoms: C_22  and  C_23
REMARK   12  A    between atoms: C_26  and  N_27
REMARK                            x       y       z     vdW  Elec       q    Type
REMARK                         _______ _______ _______ _____ _____    ______ ____
ROOT
ATOM      1  N   UNL     1       4.025   6.466  18.139  0.00  0.00    +0.000 NA
ENDROOT
BRANCH   1   2
ATOM      2  C   UNL     1       3.396   7.792  18.036  0.00  0.00    +0.000 C 
BRANCH   2   8
ATOM      3  C   UNL     1      -0.229  10.968  19.653  0.00  0.00    +0.000 C 
ATOM      4  O   UNL     1      -0.776  11.597  18.758  0.00  0.00    +0.000 OA
ATOM      5  N   UNL     1       1.054  10.448  19.511  0.00  0.00    +0.000 N 
ATOM      6  C   UNL     1       1.619  10.451  18.179  0.00  0.00    +0.000 C 
ATOM      7  C   UNL     1       1.301   9.108  17.526  0.00  0.00    +0.000 C 
ATOM      8  C   UNL     1       1.882   7.923  18.337  0.00  0.00    +0.000 C 
ATOM      9  C   UNL     1       1.514   8.048  19.836  0.00  0.00    +0.000 C 
ATOM     10  C   UNL     1       1.639   9.463  20.416  0.00  0.00    +0.000 C 
BRANCH   3  11
ATOM     11  O   UNL     1      -0.808  10.681  20.849  0.00  0.00    +0.000 OA
BRANCH  11  13
ATOM     12  C   UNL     1      -2.536  12.378  21.302  0.00  0.00    +0.000 C 
ATOM     13  C   UNL     1      -1.183  11.786  21.723  0.00  0.00    +0.000 C 
ATOM     14  C   UNL     1      -0.067  12.837  21.797  0.00  0.00    +0.000 C 
ATOM     15  C   UNL     1      -1.354  11.181  23.126  0.00  0.00    +0.000 C 
ENDBRANCH  11  13
ENDBRANCH   3  11
ENDBRANCH   2   8
ENDBRANCH   1   2
BRANCH   1  16
ATOM     16  C   UNL     1       3.224   5.355  17.588  0.00  0.00    +0.000 C 
BRANCH  16  17
ATOM     17  C   UNL     1       2.729   4.385  18.654  0.00  0.00    +0.000 A 
ATOM     18  C   UNL     1       1.356   4.148  18.822  0.00  0.00    +0.000 A 
ATOM     19  C   UNL     1       0.892   3.415  19.920  0.00  0.00    +0.000 A 
ATOM     20  C   UNL     1       1.796   2.928  20.860  0.00  0.00    +0.000 A 
ATOM     21 CL   UNL     1       1.221   2.160  22.289  0.00  0.00    +0.000 Cl
ATOM     22  C   UNL     1       3.164   3.080  20.661  0.00  0.00    +0.000 A 
ATOM     23  C   UNL     1       3.626   3.771  19.540  0.00  0.00    +0.000 A 
ENDBRANCH  16  17
ENDBRANCH   1  16
BRANCH   1  24
ATOM     24  C   UNL     1       5.428   6.504  17.647  0.00  0.00    +0.000 C 
BRANCH  24  25
ATOM     25  C   UNL     1       5.822   5.499  16.579  0.00  0.00    +0.000 A 
ATOM     26  C   UNL     1       6.242   4.185  16.731  0.00  0.00    +0.000 A 
ATOM     27  C   UNL     1       6.473   3.527  15.481  0.00  0.00    +0.000 A 
ATOM     28  C   UNL     1       6.216   4.366  14.419  0.00  0.00    +0.000 A 
ATOM     29  S   UNL     1       5.647   5.878  14.914  0.00  0.00    +0.000 S 
BRANCH  28  30
ATOM     30  N   UNL     1       6.359   4.062  13.018  0.00  0.00    +0.000 N 
ATOM     31  O   UNL     1       5.527   3.280  12.539  0.00  0.00    +0.000 OA
ATOM     32  O   UNL     1       7.295   4.582  12.396  0.00  0.00    +0.000 OA
ENDBRANCH  28  30
ENDBRANCH  24  25
ENDBRANCH   1  24
TORSDOF 9
ENDMDL
MODEL 6
REMARK VINA RESULT:      -6.8      3.016      9.581
REMARK  Name = 
REMARK  12 active torsions:
REMARK  status: ('A' for Active; 'I' for Inactive)
REMARK    1  A    between atoms: C_1  and  C_2
REMARK    2  A    between atoms: C_2  and  C_3
REMARK    3  A    between atoms: C_2  and  C_4
REMARK    4  A    between atoms: C_2  and  O_5
REMARK    5  A    between atoms: O_5  and  C_6
REMARK    6  A    between atoms: C_11  and  C_12
REMARK    7  A    between atoms: C_12  and  N_13
REMARK    8  A    between atoms: N_13  and  C_14
REMARK    9  A    between atoms: N_13  and  C_22
REMARK   10  A    between atoms: C_14  and  C_15
REMARK   11  A    between atoms: C_22  and  C_23
REMARK   12  A    between atoms: C_26  and  N_27
REMARK                            x       y       z     vdW  Elec       q    Type
REMARK                         _______ _______ _______ _____ _____    ______ ____
ROOT
ATOM      1  N   UNL     1       3.279   6.297  17.828  0.00  0.00    +0.000 NA
ENDROOT
BRANCH   1   2
ATOM      2  C   UNL     1       4.253   5.605  18.687  0.00  0.00    +0.000 C 
BRANCH   2   8
ATOM      3  C   UNL     1       6.771   4.698  14.366  0.00  0.00    +0.000 C 
ATOM      4  O   UNL     1       7.821   5.315  14.262  0.00  0.00    +0.000 OA
ATOM      5  N   UNL     1       5.732   5.141  15.179  0.00  0.00    +0.000 N 
ATOM      6  C   UNL     1       6.032   6.217  16.098  0.00  0.00    +0.000 C 
ATOM      7  C   UNL     1       6.445   5.600  17.432  0.00  0.00    +0.000 C 
ATOM      8  C   UNL     1       5.325   4.707  18.022  0.00  0.00    +0.000 C 
ATOM      9  C   UNL     1       4.792   3.717  16.958  0.00  0.00    +0.000 C 
ATOM     10  C   UNL     1       4.588   4.319  15.561  0.00  0.00    +0.000 C 
BRANCH   3  11
ATOM     11  O   UNL     1       6.513   3.518  13.741  0.00  0.00    +0.000 OA
BRANCH  11  13
ATOM     12  C   UNL     1       6.798   2.145  11.715  0.00  0.00    +0.000 C 
ATOM     13  C   UNL     1       6.396   3.512  12.288  0.00  0.00    +0.000 C 
ATOM     14  C   UNL     1       7.180   4.675  11.664  0.00  0.00    +0.000 C 
ATOM     15  C   UNL     1       4.906   3.728  11.979  0.00  0.00    +0.000 C 
ENDBRANCH  11  13
ENDBRANCH   3  11
ENDBRANCH   2   8
ENDBRANCH   1   2
BRANCH   1  16
ATOM     16  C   UNL     1       1.911   5.742  17.869  0.00  0.00    +0.000 C 
BRANCH  16  17
ATOM     17  C   UNL     1       1.719   4.697  18.961  0.00  0.00    +0.000 A 
ATOM     18  C   UNL     1       1.788   5.057  20.316  0.00  0.00    +0.000 A 
ATOM     19  C   UNL     1       1.808   4.074  21.311  0.00  0.00    +0.000 A 
ATOM     20  C   UNL     1       1.772   2.729  20.957  0.00  0.00    +0.000 A 
ATOM     21 CL   UNL     1       1.950   1.516  22.165  0.00  0.00    +0.000 Cl
ATOM     22  C   UNL     1       1.616   2.358  19.625  0.00  0.00    +0.000 A 
ATOM     23  C   UNL     1       1.549   3.343  18.638  0.00  0.00    +0.000 A 
ENDBRANCH  16  17
ENDBRANCH   1  16
BRANCH   1  24
ATOM     24  C   UNL     1       3.342   7.768  18.032  0.00  0.00    +0.000 C 
BRANCH  24  25
ATOM     25  C   UNL     1       2.171   8.428  18.739  0.00  0.00    +0.000 A 
ATOM     26  C   UNL     1       1.802   8.348  20.073  0.00  0.00    +0.000 A 
ATOM     27  C   UNL     1       0.664   9.159  20.385  0.00  0.00    +0.000 A 
ATOM     28  C   UNL     1       0.210   9.832  19.273  0.00  0.00    +0.000 A 
ATOM     29  S   UNL     1       1.168   9.549  17.911  0.00  0.00    +0.000 S 
BRANCH  28  30
ATOM     30  N   UNL     1      -0.923  10.719  19.197  0.00  0.00    +0.000 N 
ATOM     31  O   UNL     1      -0.808  11.807  19.778  0.00  0.00    +0.000 OA
ATOM     32  O   UNL     1      -1.926  10.340  18.579  0.00  0.00    +0.000 OA
ENDBRANCH  28  30
ENDBRANCH  24  25
ENDBRANCH   1  24
TORSDOF 9
ENDMDL
MODEL 7
REMARK VINA RESULT:      -6.7      2.158      2.907
REMARK  Name = 
REMARK  12 active torsions:
REMARK  status: ('A' for Active; 'I' for Inactive)
REMARK    1  A    between atoms: C_1  and  C_2
REMARK    2  A    between atoms: C_2  and  C_3
REMARK    3  A    between atoms: C_2  and  C_4
REMARK    4  A    between atoms: C_2  and  O_5
REMARK    5  A    between atoms: O_5  and  C_6
REMARK    6  A    between atoms: C_11  and  C_12
REMARK    7  A    between atoms: C_12  and  N_13
REMARK    8  A    between atoms: N_13  and  C_14
REMARK    9  A    between atoms: N_13  and  C_22
REMARK   10  A    between atoms: C_14  and  C_15
REMARK   11  A    between atoms: C_22  and  C_23
REMARK   12  A    between atoms: C_26  and  N_27
REMARK                            x       y       z     vdW  Elec       q    Type
REMARK                         _______ _______ _______ _____ _____    ______ ____
ROOT
ATOM      1  N   UNL     1       2.704   6.932  18.452  0.00  0.00    +0.000 NA
ENDROOT
BRANCH   1   2
ATOM      2  C   UNL     1       1.527   7.806  18.571  0.00  0.00    +0.000 C 
BRANCH   2   8
ATOM      3  C   UNL     1      -0.828  11.629  20.955  0.00  0.00    +0.000 C 
ATOM      4  O   UNL     1      -0.763  11.571  22.174  0.00  0.00    +0.000 OA
ATOM      5  N   UNL     1      -0.701  10.497  20.155  0.00  0.00    +0.000 N 
ATOM      6  C   UNL     1      -0.230   9.289  20.798  0.00  0.00    +0.000 C 
ATOM      7  C   UNL     1       1.287   9.231  20.643  0.00  0.00    +0.000 C 
ATOM      8  C   UNL     1       1.713   9.230  19.154  0.00  0.00    +0.000 C 
ATOM      9  C   UNL     1       0.999  10.362  18.376  0.00  0.00    +0.000 C 
ATOM     10  C   UNL     1      -0.488  10.538  18.712  0.00  0.00    +0.000 C 
BRANCH   3  11
ATOM     11  O   UNL     1      -0.995  12.781  20.252  0.00  0.00    +0.000 OA
BRANCH  11  13
ATOM     12  C   UNL     1       0.142  14.541  18.956  0.00  0.00    +0.000 C 
ATOM     13  C   UNL     1       0.068  13.776  20.286  0.00  0.00    +0.000 C 
ATOM     14  C   UNL     1       1.408  13.142  20.684  0.00  0.00    +0.000 C 
ATOM     15  C   UNL     1      -0.321  14.781  21.382  0.00  0.00    +0.000 C 
ENDBRANCH  11  13
ENDBRANCH   3  11
ENDBRANCH   2   8
ENDBRANCH   1   2
BRANCH   1  16
ATOM     16  C   UNL     1       2.420   5.572  17.953  0.00  0.00    +0.000 C 
BRANCH  16  17
ATOM     17  C   UNL     1       2.201   4.557  19.068  0.00  0.00    +0.000 A 
ATOM     18  C   UNL     1       1.366   3.446  18.869  0.00  0.00    +0.000 A 
ATOM     19  C   UNL     1       1.010   2.625  19.945  0.00  0.00    +0.000 A 
ATOM     20  C   UNL     1       1.476   2.918  21.224  0.00  0.00    +0.000 A 
ATOM     21 CL   UNL     1       0.919   2.004  22.572  0.00  0.00    +0.000 Cl
ATOM     22  C   UNL     1       2.373   3.962  21.421  0.00  0.00    +0.000 A 
ATOM     23  C   UNL     1       2.763   4.751  20.338  0.00  0.00    +0.000 A 
ENDBRANCH  16  17
ENDBRANCH   1  16
BRANCH   1  24
ATOM     24  C   UNL     1       3.807   7.622  17.732  0.00  0.00    +0.000 C 
BRANCH  24  25
ATOM     25  C   UNL     1       4.947   6.765  17.210  0.00  0.00    +0.000 A 
ATOM     26  C   UNL     1       5.930   6.093  17.921  0.00  0.00    +0.000 A 
ATOM     27  C   UNL     1       6.806   5.336  17.081  0.00  0.00    +0.000 A 
ATOM     28  C   UNL     1       6.455   5.456  15.754  0.00  0.00    +0.000 A 
ATOM     29  S   UNL     1       5.068   6.396  15.537  0.00  0.00    +0.000 S 
BRANCH  28  30
ATOM     30  N   UNL     1       7.117   4.859  14.623  0.00  0.00    +0.000 N 
ATOM     31  O   UNL     1       8.089   5.477  14.167  0.00  0.00    +0.000 OA
ATOM     32  O   UNL     1       6.673   3.793  14.178  0.00  0.00    +0.000 OA
ENDBRANCH  28  30
ENDBRANCH  24  25
ENDBRANCH   1  24
TORSDOF 9
ENDMDL
MODEL 8
REMARK VINA RESULT:      -6.7      4.631      9.169
REMARK  Name = 
REMARK  12 active torsions:
REMARK  status: ('A' for Active; 'I' for Inactive)
REMARK    1  A    between atoms: C_1  and  C_2
REMARK    2  A    between atoms: C_2  and  C_3
REMARK    3  A    between atoms: C_2  and  C_4
REMARK    4  A    between atoms: C_2  and  O_5
REMARK    5  A    between atoms: O_5  and  C_6
REMARK    6  A    between atoms: C_11  and  C_12
REMARK    7  A    between atoms: C_12  and  N_13
REMARK    8  A    between atoms: N_13  and  C_14
REMARK    9  A    between atoms: N_13  and  C_22
REMARK   10  A    between atoms: C_14  and  C_15
REMARK   11  A    between atoms: C_22  and  C_23
REMARK   12  A    between atoms: C_26  and  N_27
REMARK                            x       y       z     vdW  Elec       q    Type
REMARK                         _______ _______ _______ _____ _____    ______ ____
ROOT
ATOM      1  N   UNL     1      -1.150  12.442  20.585  0.00  0.00    +0.000 NA
ENDROOT
BRANCH   1   2
ATOM      2  C   UNL     1      -0.651  11.339  21.421  0.00  0.00    +0.000 C 
BRANCH   2   8
ATOM      3  C   UNL     1       2.251   7.919  19.028  0.00  0.00    +0.000 C 
ATOM      4  O   UNL     1       2.662   8.290  17.938  0.00  0.00    +0.000 OA
ATOM      5  N   UNL     1       1.100   8.451  19.603  0.00  0.00    +0.000 N 
ATOM      6  C   UNL     1       0.550   9.640  18.988  0.00  0.00    +0.000 C 
ATOM      7  C   UNL     1       1.136  10.856  19.702  0.00  0.00    +0.000 C 
ATOM      8  C   UNL     1       0.804  10.849  21.215  0.00  0.00    +0.000 C 
ATOM      9  C   UNL     1       1.134   9.473  21.845  0.00  0.00    +0.000 C 
ATOM     10  C   UNL     1       0.724   8.260  21.000  0.00  0.00    +0.000 C 
BRANCH   3  11
ATOM     11  O   UNL     1       2.872   6.990  19.804  0.00  0.00    +0.000 OA
BRANCH  11  13
ATOM     12  C   UNL     1       4.517   5.409  18.873  0.00  0.00    +0.000 C 
ATOM     13  C   UNL     1       3.053   5.646  19.270  0.00  0.00    +0.000 C 
ATOM     14  C   UNL     1       2.071   5.370  18.123  0.00  0.00    +0.000 C 
ATOM     15  C   UNL     1       2.718   4.682  20.419  0.00  0.00    +0.000 C 
ENDBRANCH  11  13
ENDBRANCH   3  11
ENDBRANCH   2   8
ENDBRANCH   1   2
BRANCH   1  16
ATOM     16  C   UNL     1      -2.602  12.411  20.317  0.00  0.00    +0.000 C 
BRANCH  16  17
ATOM     17  C   UNL     1      -2.940  12.025  18.883  0.00  0.00    +0.000 A 
ATOM     18  C   UNL     1      -4.266  11.756  18.509  0.00  0.00    +0.000 A 
ATOM     19  C   UNL     1      -4.552  11.215  17.251  0.00  0.00    +0.000 A 
ATOM     20  C   UNL     1      -3.516  10.929  16.367  0.00  0.00    +0.000 A 
ATOM     21 CL   UNL     1      -3.848  10.123  14.883  0.00  0.00    +0.000 Cl
ATOM     22  C   UNL     1      -2.206  11.271  16.689  0.00  0.00    +0.000 A 
ATOM     23  C   UNL     1      -1.929  11.854  17.926  0.00  0.00    +0.000 A 
ENDBRANCH  16  17
ENDBRANCH   1  16
BRANCH   1  24
ATOM     24  C   UNL     1      -0.654  13.752  21.083  0.00  0.00    +0.000 C 
BRANCH  24  25
ATOM     25  C   UNL     1      -0.063  14.710  20.064  0.00  0.00    +0.000 A 
ATOM     26  C   UNL     1      -0.679  15.752  19.386  0.00  0.00    +0.000 A 
ATOM     27  C   UNL     1       0.221  16.475  18.540  0.00  0.00    +0.000 A 
ATOM     28  C   UNL     1       1.496  15.957  18.607  0.00  0.00    +0.000 A 
ATOM     29  S   UNL     1       1.617  14.683  19.710  0.00  0.00    +0.000 S 
BRANCH  28  30
ATOM     30  N   UNL     1       2.655  16.408  17.881  0.00  0.00    +0.000 N 
ATOM     31  O   UNL     1       2.639  17.586  17.498  0.00  0.00    +0.000 OA
ATOM     32  O   UNL     1       3.572  15.601  17.677  0.00  0.00    +0.000 OA
ENDBRANCH  28  30
ENDBRANCH  24  25
ENDBRANCH   1  24
TORSDOF 9
ENDMDL
MODEL 9
REMARK VINA RESULT:      -6.7      7.214      9.402
REMARK  Name = 
REMARK  12 active torsions:
REMARK  status: ('A' for Active; 'I' for Inactive)
REMARK    1  A    between atoms: C_1  and  C_2
REMARK    2  A    between atoms: C_2  and  C_3
REMARK    3  A    between atoms: C_2  and  C_4
REMARK    4  A    between atoms: C_2  and  O_5
REMARK    5  A    between atoms: O_5  and  C_6
REMARK    6  A    between atoms: C_11  and  C_12
REMARK    7  A    between atoms: C_12  and  N_13
REMARK    8  A    between atoms: N_13  and  C_14
REMARK    9  A    between atoms: N_13  and  C_22
REMARK   10  A    between atoms: C_14  and  C_15
REMARK   11  A    between atoms: C_22  and  C_23
REMARK   12  A    between atoms: C_26  and  N_27
REMARK                            x       y       z     vdW  Elec       q    Type
REMARK                         _______ _______ _______ _____ _____    ______ ____
ROOT
ATOM      1  N   UNL     1       6.136  16.122  19.240  0.00  0.00    +0.000 NA
ENDROOT
BRANCH   1   2
ATOM      2  C   UNL     1       4.888  16.817  18.889  0.00  0.00    +0.000 C 
BRANCH   2   8
ATOM      3  C   UNL     1       0.624  14.049  18.858  0.00  0.00    +0.000 C 
ATOM      4  O   UNL     1      -0.399  14.712  18.779  0.00  0.00    +0.000 OA
ATOM      5  N   UNL     1       1.810  14.578  19.361  0.00  0.00    +0.000 N 
ATOM      6  C   UNL     1       1.860  16.013  19.545  0.00  0.00    +0.000 C 
ATOM      7  C   UNL     1       2.444  16.633  18.278  0.00  0.00    +0.000 C 
ATOM      8  C   UNL     1       3.865  16.095  17.977  0.00  0.00    +0.000 C 
ATOM      9  C   UNL     1       3.894  14.548  18.046  0.00  0.00    +0.000 C 
ATOM     10  C   UNL     1       3.114  13.939  19.218  0.00  0.00    +0.000 C 
BRANCH   3  11
ATOM     11  O   UNL     1       0.733  12.759  18.443  0.00  0.00    +0.000 OA
BRANCH  11  13
ATOM     12  C   UNL     1       0.035  12.188  20.736  0.00  0.00    +0.000 C 
ATOM     13  C   UNL     1       0.173  11.708  19.284  0.00  0.00    +0.000 C 
ATOM     14  C   UNL     1       0.980  10.409  19.159  0.00  0.00    +0.000 C 
ATOM     15  C   UNL     1      -1.241  11.438  18.745  0.00  0.00    +0.000 C 
ENDBRANCH  11  13
ENDBRANCH   3  11
ENDBRANCH   2   8
ENDBRANCH   1   2
BRANCH   1  16
ATOM     16  C   UNL     1       7.294  16.455  18.387  0.00  0.00    +0.000 C 
BRANCH  16  17
ATOM     17  C   UNL     1       8.131  15.240  18.008  0.00  0.00    +0.000 A 
ATOM     18  C   UNL     1       7.516  14.011  17.719  0.00  0.00    +0.000 A 
ATOM     19  C   UNL     1       8.286  12.853  17.565  0.00  0.00    +0.000 A 
ATOM     20  C   UNL     1       9.669  12.915  17.710  0.00  0.00    +0.000 A 
ATOM     21 CL   UNL     1      10.604  11.470  17.672  0.00  0.00    +0.000 Cl
ATOM     22  C   UNL     1      10.299  14.139  17.908  0.00  0.00    +0.000 A 
ATOM     23  C   UNL     1       9.532  15.300  18.016  0.00  0.00    +0.000 A 
ENDBRANCH  16  17
ENDBRANCH   1  16
BRANCH   1  24
ATOM     24  C   UNL     1       6.408  16.224  20.698  0.00  0.00    +0.000 C 
BRANCH  24  25
ATOM     25  C   UNL     1       6.883  14.969  21.411  0.00  0.00    +0.000 A 
ATOM     26  C   UNL     1       8.164  14.443  21.490  0.00  0.00    +0.000 A 
ATOM     27  C   UNL     1       8.233  13.268  22.304  0.00  0.00    +0.000 A 
ATOM     28  C   UNL     1       6.998  12.943  22.820  0.00  0.00    +0.000 A 
ATOM     29  S   UNL     1       5.806  14.061  22.393  0.00  0.00    +0.000 S 
BRANCH  28  30
ATOM     30  N   UNL     1       6.676  11.818  23.660  0.00  0.00    +0.000 N 
ATOM     31  O   UNL     1       7.637  11.176  24.109  0.00  0.00    +0.000 OA
ATOM     32  O   UNL     1       5.483  11.559  23.866  0.00  0.00    +0.000 OA
ENDBRANCH  28  30
ENDBRANCH  24  25
ENDBRANCH   1  24
TORSDOF 9
ENDMDL
