MODEL 1
REMARK VINA RESULT:      -6.5      0.000      0.000
REMARK  Name = 
REMARK  11 active torsions:
REMARK  status: ('A' for Active; 'I' for Inactive)
REMARK    1  A    between atoms: C_1  and  C_2
REMARK    2  A    between atoms: C_2  and  C_3
REMARK    3  A    between atoms: C_3  and  N_4
REMARK    4  A    between atoms: N_4  and  C_5
REMARK    5  A    between atoms: N_4  and  C_8
REMARK    6  A    between atoms: C_5  and  C_6
REMARK    7  A    between atoms: C_6  and  C_7
REMARK    8  A    between atoms: C_10  and  C_11
REMARK    9  A    between atoms: C_14  and  C_15
REMARK   10  A    between atoms: C_22  and  C_23
REMARK   11  A    between atoms: C_23  and  O_24
REMARK                            x       y       z     vdW  Elec       q    Type
REMARK                         _______ _______ _______ _____ _____    ______ ____
ROOT
ATOM      1  C   UNL     1       3.858   4.942  18.715  0.00  0.00    +0.000 A 
ATOM      2  C   UNL     1       3.528   4.077  19.698  0.00  0.00    +0.000 A 
ATOM      3  C   UNL     1       2.515   4.478  20.708  0.00  0.00    +0.000 A 
ATOM      4  C   UNL     1       2.041   3.411  21.665  0.00  0.00    +0.000 C 
ATOM      5  N   UNL     1       1.991   5.661  20.804  0.00  0.00    +0.000 NA
ATOM      6  C   UNL     1       2.391   6.586  19.877  0.00  0.00    +0.000 A 
ATOM      7  C   UNL     1       2.038   7.917  19.718  0.00  0.00    +0.000 A 
ATOM      8  C   UNL     1       2.774   8.348  18.587  0.00  0.00    +0.000 A 
ATOM      9  N   UNL     1       3.513   7.369  18.056  0.00  0.00    +0.000 NA
ATOM     10  N   UNL     1       3.292   6.266  18.835  0.00  0.00    +0.000 N 
ENDROOT
BRANCH   7  11
ATOM     11  C   UNL     1       1.062   8.639  20.531  0.00  0.00    +0.000 A 
ATOM     12  C   UNL     1       1.143   8.612  21.933  0.00  0.00    +0.000 A 
ATOM     13  C   UNL     1       0.308   9.414  22.718  0.00  0.00    +0.000 A 
ATOM     14  C   UNL     1      -0.644  10.227  22.107  0.00  0.00    +0.000 A 
ATOM     15 CL   UNL     1      -1.650  11.234  23.071  0.00  0.00    +0.000 Cl
ATOM     16  C   UNL     1      -0.772  10.234  20.723  0.00  0.00    +0.000 A 
ATOM     17  C   UNL     1       0.081   9.448  19.939  0.00  0.00    +0.000 A 
ENDBRANCH   7  11
BRANCH   1  18
ATOM     18  N   UNL     1       4.717   4.560  17.628  0.00  0.00    +0.000 N 
BRANCH  18  19
ATOM     19  C   UNL     1       6.186   4.394  17.768  0.00  0.00    +0.000 C 
BRANCH  19  21
ATOM     20  C   UNL     1       7.324   6.709  17.707  0.00  0.00    +0.000 C 
ATOM     21  C   UNL     1       6.901   5.513  18.542  0.00  0.00    +0.000 C 
ENDBRANCH  19  21
ENDBRANCH  18  19
BRANCH  18  22
ATOM     22  C   UNL     1       4.230   4.352  16.242  0.00  0.00    +0.000 C 
BRANCH  22  23
ATOM     23  C   UNL     1       5.124   5.021  15.187  0.00  0.00    +0.000 C 
ATOM     24  C   UNL     1       5.845   4.038  14.276  0.00  0.00    +0.000 C 
ENDBRANCH  22  23
ENDBRANCH  18  22
ENDBRANCH   1  18
BRANCH   8  25
ATOM     25  C   UNL     1       2.794   9.698  17.937  0.00  0.00    +0.000 C 
BRANCH  25  26
ATOM     26  O   UNL     1       1.569   9.992  17.261  0.00  0.00    +0.000 OA
ATOM     27  H   UNL     1       1.486  10.962  17.340  0.00  0.00    +0.000 HD
ENDBRANCH  25  26
ENDBRANCH   8  25
TORSDOF 8
ENDMDL
MODEL 2
REMARK VINA RESULT:      -6.4      0.101      1.846
REMARK  Name = 
REMARK  11 active torsions:
REMARK  status: ('A' for Active; 'I' for Inactive)
REMARK    1  A    between atoms: C_1  and  C_2
REMARK    2  A    between atoms: C_2  and  C_3
REMARK    3  A    between atoms: C_3  and  N_4
REMARK    4  A    between atoms: N_4  and  C_5
REMARK    5  A    between atoms: N_4  and  C_8
REMARK    6  A    between atoms: C_5  and  C_6
REMARK    7  A    between atoms: C_6  and  C_7
REMARK    8  A    between atoms: C_10  and  C_11
REMARK    9  A    between atoms: C_14  and  C_15
REMARK   10  A    between atoms: C_22  and  C_23
REMARK   11  A    between atoms: C_23  and  O_24
REMARK                            x       y       z     vdW  Elec       q    Type
REMARK                         _______ _______ _______ _____ _____    ______ ____
ROOT
ATOM      1  C   UNL     1       3.862   5.006  18.743  0.00  0.00    +0.000 A 
ATOM      2  C   UNL     1       3.533   4.137  19.722  0.00  0.00    +0.000 A 
ATOM      3  C   UNL     1       2.511   4.528  20.727  0.00  0.00    +0.000 A 
ATOM      4  C   UNL     1       2.040   3.456  21.679  0.00  0.00    +0.000 C 
ATOM      5  N   UNL     1       1.977   5.706  20.821  0.00  0.00    +0.000 NA
ATOM      6  C   UNL     1       2.374   6.635  19.897  0.00  0.00    +0.000 A 
ATOM      7  C   UNL     1       2.011   7.964  19.738  0.00  0.00    +0.000 A 
ATOM      8  C   UNL     1       2.750   8.402  18.612  0.00  0.00    +0.000 A 
ATOM      9  N   UNL     1       3.500   7.430  18.084  0.00  0.00    +0.000 NA
ATOM     10  N   UNL     1       3.284   6.325  18.860  0.00  0.00    +0.000 N 
ENDROOT
BRANCH   7  11
ATOM     11  C   UNL     1       1.024   8.676  20.546  0.00  0.00    +0.000 A 
ATOM     12  C   UNL     1       1.099   8.651  21.948  0.00  0.00    +0.000 A 
ATOM     13  C   UNL     1       0.253   9.446  22.729  0.00  0.00    +0.000 A 
ATOM     14  C   UNL     1      -0.704  10.249  22.114  0.00  0.00    +0.000 A 
ATOM     15 CL   UNL     1      -1.725  11.246  23.072  0.00  0.00    +0.000 Cl
ATOM     16  C   UNL     1      -0.827  10.253  20.729  0.00  0.00    +0.000 A 
ATOM     17  C   UNL     1       0.037   9.475  19.949  0.00  0.00    +0.000 A 
ENDBRANCH   7  11
BRANCH   1  18
ATOM     18  N   UNL     1       4.730   4.633  17.660  0.00  0.00    +0.000 N 
BRANCH  18  19
ATOM     19  C   UNL     1       4.244   4.338  16.288  0.00  0.00    +0.000 C 
BRANCH  19  21
ATOM     20  C   UNL     1       5.723   3.988  14.202  0.00  0.00    +0.000 C 
ATOM     21  C   UNL     1       5.064   4.972  15.152  0.00  0.00    +0.000 C 
ENDBRANCH  19  21
ENDBRANCH  18  19
BRANCH  18  22
ATOM     22  C   UNL     1       6.194   4.445  17.819  0.00  0.00    +0.000 C 
BRANCH  22  23
ATOM     23  C   UNL     1       6.838   5.508  18.721  0.00  0.00    +0.000 C 
ATOM     24  C   UNL     1       7.530   6.628  17.958  0.00  0.00    +0.000 C 
ENDBRANCH  22  23
ENDBRANCH  18  22
ENDBRANCH   1  18
BRANCH   8  25
ATOM     25  C   UNL     1       2.762   9.754  17.964  0.00  0.00    +0.000 C 
BRANCH  25  26
ATOM     26  O   UNL     1       1.531  10.047  17.300  0.00  0.00    +0.000 OA
ATOM     27  H   UNL     1       1.780  10.711  16.628  0.00  0.00    +0.000 HD
ENDBRANCH  25  26
ENDBRANCH   8  25
TORSDOF 8
ENDMDL
MODEL 3
REMARK VINA RESULT:      -6.2      0.993      2.012
REMARK  Name = 
REMARK  11 active torsions:
REMARK  status: ('A' for Active; 'I' for Inactive)
REMARK    1  A    between atoms: C_1  and  C_2
REMARK    2  A    between atoms: C_2  and  C_3
REMARK    3  A    between atoms: C_3  and  N_4
REMARK    4  A    between atoms: N_4  and  C_5
REMARK    5  A    between atoms: N_4  and  C_8
REMARK    6  A    between atoms: C_5  and  C_6
REMARK    7  A    between atoms: C_6  and  C_7
REMARK    8  A    between atoms: C_10  and  C_11
REMARK    9  A    between atoms: C_14  and  C_15
REMARK   10  A    between atoms: C_22  and  C_23
REMARK   11  A    between atoms: C_23  and  O_24
REMARK                            x       y       z     vdW  Elec       q    Type
REMARK                         _______ _______ _______ _____ _____    ______ ____
ROOT
ATOM      1  C   UNL     1       3.715   5.893  18.259  0.00  0.00    +0.000 A 
ATOM      2  C   UNL     1       3.561   4.978  19.240  0.00  0.00    +0.000 A 
ATOM      3  C   UNL     1       2.604   5.250  20.343  0.00  0.00    +0.000 A 
ATOM      4  C   UNL     1       2.326   4.119  21.303  0.00  0.00    +0.000 C 
ATOM      5  N   UNL     1       1.972   6.369  20.517  0.00  0.00    +0.000 NA
ATOM      6  C   UNL     1       2.193   7.349  19.588  0.00  0.00    +0.000 A 
ATOM      7  C   UNL     1       1.693   8.640  19.498  0.00  0.00    +0.000 A 
ATOM      8  C   UNL     1       2.281   9.169  18.323  0.00  0.00    +0.000 A 
ATOM      9  N   UNL     1       3.068   8.284  17.704  0.00  0.00    +0.000 NA
ATOM     10  N   UNL     1       3.029   7.148  18.465  0.00  0.00    +0.000 N 
ENDROOT
BRANCH   7  11
ATOM     11  C   UNL     1       0.723   9.238  20.412  0.00  0.00    +0.000 A 
ATOM     12  C   UNL     1       0.869   9.096  21.801  0.00  0.00    +0.000 A 
ATOM     13  C   UNL     1       0.034   9.784  22.687  0.00  0.00    +0.000 A 
ATOM     14  C   UNL     1      -0.983  10.597  22.190  0.00  0.00    +0.000 A 
ATOM     15 CL   UNL     1      -1.991  11.465  23.279  0.00  0.00    +0.000 Cl
ATOM     16  C   UNL     1      -1.175  10.715  20.818  0.00  0.00    +0.000 A 
ATOM     17  C   UNL     1      -0.322  10.043  19.934  0.00  0.00    +0.000 A 
ENDBRANCH   7  11
BRANCH   1  18
ATOM     18  N   UNL     1       4.512   5.626  17.093  0.00  0.00    +0.000 N 
BRANCH  18  19
ATOM     19  C   UNL     1       4.378   4.392  16.278  0.00  0.00    +0.000 C 
BRANCH  19  21
ATOM     20  C   UNL     1       5.759   3.990  14.136  0.00  0.00    +0.000 C 
ATOM     21  C   UNL     1       5.682   3.878  15.648  0.00  0.00    +0.000 C 
ENDBRANCH  19  21
ENDBRANCH  18  19
BRANCH  18  22
ATOM     22  C   UNL     1       5.590   6.529  16.620  0.00  0.00    +0.000 C 
BRANCH  22  23
ATOM     23  C   UNL     1       6.802   6.556  17.562  0.00  0.00    +0.000 C 
ATOM     24  C   UNL     1       7.585   7.861  17.522  0.00  0.00    +0.000 C 
ENDBRANCH  22  23
ENDBRANCH  18  22
ENDBRANCH   1  18
BRANCH   8  25
ATOM     25  C   UNL     1       2.106  10.527  17.715  0.00  0.00    +0.000 C 
BRANCH  25  26
ATOM     26  O   UNL     1       2.374  11.577  18.647  0.00  0.00    +0.000 OA
ATOM     27  H   UNL     1       3.282  11.862  18.423  0.00  0.00    +0.000 HD
ENDBRANCH  25  26
ENDBRANCH   8  25
TORSDOF 8
ENDMDL
MODEL 4
REMARK VINA RESULT:      -6.2      0.981      1.049
REMARK  Name = 
REMARK  11 active torsions:
REMARK  status: ('A' for Active; 'I' for Inactive)
REMARK    1  A    between atoms: C_1  and  C_2
REMARK    2  A    between atoms: C_2  and  C_3
REMARK    3  A    between atoms: C_3  and  N_4
REMARK    4  A    between atoms: N_4  and  C_5
REMARK    5  A    between atoms: N_4  and  C_8
REMARK    6  A    between atoms: C_5  and  C_6
REMARK    7  A    between atoms: C_6  and  C_7
REMARK    8  A    between atoms: C_10  and  C_11
REMARK    9  A    between atoms: C_14  and  C_15
REMARK   10  A    between atoms: C_22  and  C_23
REMARK   11  A    between atoms: C_23  and  O_24
REMARK                            x       y       z     vdW  Elec       q    Type
REMARK                         _______ _______ _______ _____ _____    ______ ____
ROOT
ATOM      1  C   UNL     1       3.696   5.827  18.342  0.00  0.00    +0.000 A 
ATOM      2  C   UNL     1       3.534   4.934  19.341  0.00  0.00    +0.000 A 
ATOM      3  C   UNL     1       2.573   5.232  20.434  0.00  0.00    +0.000 A 
ATOM      4  C   UNL     1       2.286   4.122  21.417  0.00  0.00    +0.000 C 
ATOM      5  N   UNL     1       1.943   6.356  20.581  0.00  0.00    +0.000 NA
ATOM      6  C   UNL     1       2.173   7.316  19.632  0.00  0.00    +0.000 A 
ATOM      7  C   UNL     1       1.677   8.606  19.513  0.00  0.00    +0.000 A 
ATOM      8  C   UNL     1       2.273   9.108  18.330  0.00  0.00    +0.000 A 
ATOM      9  N   UNL     1       3.059   8.207  17.733  0.00  0.00    +0.000 NA
ATOM     10  N   UNL     1       3.013   7.088  18.518  0.00  0.00    +0.000 N 
ENDROOT
BRANCH   7  11
ATOM     11  C   UNL     1       0.705   9.227  20.409  0.00  0.00    +0.000 A 
ATOM     12  C   UNL     1       0.812   9.067  21.800  0.00  0.00    +0.000 A 
ATOM     13  C   UNL     1      -0.022   9.774  22.672  0.00  0.00    +0.000 A 
ATOM     14  C   UNL     1      -0.999  10.623  22.160  0.00  0.00    +0.000 A 
ATOM     15 CL   UNL     1      -2.005  11.513  23.232  0.00  0.00    +0.000 Cl
ATOM     16  C   UNL     1      -1.154  10.761  20.785  0.00  0.00    +0.000 A 
ATOM     17  C   UNL     1      -0.302  10.070  19.914  0.00  0.00    +0.000 A 
ENDBRANCH   7  11
BRANCH   1  18
ATOM     18  N   UNL     1       4.497   5.533  17.186  0.00  0.00    +0.000 N 
BRANCH  18  19
ATOM     19  C   UNL     1       5.564   6.434  16.681  0.00  0.00    +0.000 C 
BRANCH  19  21
ATOM     20  C   UNL     1       7.571   7.848  17.475  0.00  0.00    +0.000 C 
ATOM     21  C   UNL     1       6.811   6.537  17.575  0.00  0.00    +0.000 C 
ENDBRANCH  19  21
ENDBRANCH  18  19
BRANCH  18  22
ATOM     22  C   UNL     1       4.298   4.327  16.344  0.00  0.00    +0.000 C 
BRANCH  22  23
ATOM     23  C   UNL     1       5.609   3.788  15.753  0.00  0.00    +0.000 C 
ATOM     24  C   UNL     1       5.745   4.008  14.253  0.00  0.00    +0.000 C 
ENDBRANCH  22  23
ENDBRANCH  18  22
ENDBRANCH   1  18
BRANCH   8  25
ATOM     25  C   UNL     1       2.105  10.454  17.692  0.00  0.00    +0.000 C 
BRANCH  25  26
ATOM     26  O   UNL     1       2.449  11.521  18.579  0.00  0.00    +0.000 OA
ATOM     27  H   UNL     1       3.037  11.099  19.235  0.00  0.00    +0.000 HD
ENDBRANCH  25  26
ENDBRANCH   8  25
TORSDOF 8
ENDMDL
MODEL 5
REMARK VINA RESULT:      -5.9      0.879      2.184
REMARK  Name = 
REMARK  11 active torsions:
REMARK  status: ('A' for Active; 'I' for Inactive)
REMARK    1  A    between atoms: C_1  and  C_2
REMARK    2  A    between atoms: C_2  and  C_3
REMARK    3  A    between atoms: C_3  and  N_4
REMARK    4  A    between atoms: N_4  and  C_5
REMARK    5  A    between atoms: N_4  and  C_8
REMARK    6  A    between atoms: C_5  and  C_6
REMARK    7  A    between atoms: C_6  and  C_7
REMARK    8  A    between atoms: C_10  and  C_11
REMARK    9  A    between atoms: C_14  and  C_15
REMARK   10  A    between atoms: C_22  and  C_23
REMARK   11  A    between atoms: C_23  and  O_24
REMARK                            x       y       z     vdW  Elec       q    Type
REMARK                         _______ _______ _______ _____ _____    ______ ____
ROOT
ATOM      1  C   UNL     1       3.631   5.182  18.724  0.00  0.00    +0.000 A 
ATOM      2  C   UNL     1       3.422   4.331  19.752  0.00  0.00    +0.000 A 
ATOM      3  C   UNL     1       2.485   4.720  20.837  0.00  0.00    +0.000 A 
ATOM      4  C   UNL     1       2.138   3.662  21.856  0.00  0.00    +0.000 C 
ATOM      5  N   UNL     1       1.924   5.884  20.951  0.00  0.00    +0.000 NA
ATOM      6  C   UNL     1       2.206   6.799  19.971  0.00  0.00    +0.000 A 
ATOM      7  C   UNL     1       1.787   8.111  19.813  0.00  0.00    +0.000 A 
ATOM      8  C   UNL     1       2.405   8.539  18.613  0.00  0.00    +0.000 A 
ATOM      9  N   UNL     1       3.134   7.575  18.042  0.00  0.00    +0.000 NA
ATOM     10  N   UNL     1       3.025   6.486  18.862  0.00  0.00    +0.000 N 
ENDROOT
BRANCH   7  11
ATOM     11  C   UNL     1       0.858   8.817  20.692  0.00  0.00    +0.000 A 
ATOM     12  C   UNL     1       1.049   8.813  22.083  0.00  0.00    +0.000 A 
ATOM     13  C   UNL     1       0.255   9.603  22.921  0.00  0.00    +0.000 A 
ATOM     14  C   UNL     1      -0.765  10.379  22.378  0.00  0.00    +0.000 A 
ATOM     15 CL   UNL     1      -1.722  11.372  23.404  0.00  0.00    +0.000 Cl
ATOM     16  C   UNL     1      -1.002  10.362  21.008  0.00  0.00    +0.000 A 
ATOM     17  C   UNL     1      -0.191   9.589  20.169  0.00  0.00    +0.000 A 
ENDBRANCH   7  11
BRANCH   1  18
ATOM     18  N   UNL     1       4.407   4.804  17.575  0.00  0.00    +0.000 N 
BRANCH  18  19
ATOM     19  C   UNL     1       3.973   3.770  16.601  0.00  0.00    +0.000 C 
BRANCH  19  21
ATOM     20  C   UNL     1       3.006   1.728  17.847  0.00  0.00    +0.000 C 
ATOM     21  C   UNL     1       2.730   2.965  17.010  0.00  0.00    +0.000 C 
ENDBRANCH  19  21
ENDBRANCH  18  19
BRANCH  18  22
ATOM     22  C   UNL     1       5.748   5.365  17.279  0.00  0.00    +0.000 C 
BRANCH  22  23
ATOM     23  C   UNL     1       6.771   5.090  18.391  0.00  0.00    +0.000 C 
ATOM     24  C   UNL     1       7.730   6.243  18.646  0.00  0.00    +0.000 C 
ENDBRANCH  22  23
ENDBRANCH  18  22
ENDBRANCH   1  18
BRANCH   8  25
ATOM     25  C   UNL     1       2.314   9.872  17.932  0.00  0.00    +0.000 C 
BRANCH  25  26
ATOM     26  O   UNL     1       0.987  10.165  17.490  0.00  0.00    +0.000 OA
ATOM     27  H   UNL     1       0.681   9.325  17.097  0.00  0.00    +0.000 HD
ENDBRANCH  25  26
ENDBRANCH   8  25
TORSDOF 8
ENDMDL
MODEL 6
REMARK VINA RESULT:      -5.9      4.342      8.915
REMARK  Name = 
REMARK  11 active torsions:
REMARK  status: ('A' for Active; 'I' for Inactive)
REMARK    1  A    between atoms: C_1  and  C_2
REMARK    2  A    between atoms: C_2  and  C_3
REMARK    3  A    between atoms: C_3  and  N_4
REMARK    4  A    between atoms: N_4  and  C_5
REMARK    5  A    between atoms: N_4  and  C_8
REMARK    6  A    between atoms: C_5  and  C_6
REMARK    7  A    between atoms: C_6  and  C_7
REMARK    8  A    between atoms: C_10  and  C_11
REMARK    9  A    between atoms: C_14  and  C_15
REMARK   10  A    between atoms: C_22  and  C_23
REMARK   11  A    between atoms: C_23  and  O_24
REMARK                            x       y       z     vdW  Elec       q    Type
REMARK                         _______ _______ _______ _____ _____    ______ ____
ROOT
ATOM      1  C   UNL     1      -2.236  12.031  19.702  0.00  0.00    +0.000 A 
ATOM      2  C   UNL     1      -2.561  11.945  18.395  0.00  0.00    +0.000 A 
ATOM      3  C   UNL     1      -1.902  10.917  17.549  0.00  0.00    +0.000 A 
ATOM      4  C   UNL     1      -2.438  10.733  16.150  0.00  0.00    +0.000 C 
ATOM      5  N   UNL     1      -0.929  10.151  17.936  0.00  0.00    +0.000 NA
ATOM      6  C   UNL     1      -0.514  10.295  19.232  0.00  0.00    +0.000 A 
ATOM      7  C   UNL     1       0.493   9.650  19.936  0.00  0.00    +0.000 A 
ATOM      8  C   UNL     1       0.443  10.221  21.231  0.00  0.00    +0.000 A 
ATOM      9  N   UNL     1      -0.528  11.131  21.351  0.00  0.00    +0.000 NA
ATOM     10  N   UNL     1      -1.137  11.194  20.127  0.00  0.00    +0.000 N 
ENDROOT
BRANCH   7  11
ATOM     11  C   UNL     1       1.339   8.579  19.416  0.00  0.00    +0.000 A 
ATOM     12  C   UNL     1       2.014   8.733  18.194  0.00  0.00    +0.000 A 
ATOM     13  C   UNL     1       2.939   7.778  17.758  0.00  0.00    +0.000 A 
ATOM     14  C   UNL     1       3.172   6.639  18.525  0.00  0.00    +0.000 A 
ATOM     15 CL   UNL     1       4.330   5.481  18.003  0.00  0.00    +0.000 Cl
ATOM     16  C   UNL     1       2.480   6.444  19.715  0.00  0.00    +0.000 A 
ATOM     17  C   UNL     1       1.572   7.412  20.160  0.00  0.00    +0.000 A 
ENDBRANCH   7  11
BRANCH   1  18
ATOM     18  N   UNL     1      -2.942  12.902  20.602  0.00  0.00    +0.000 N 
BRANCH  18  19
ATOM     19  C   UNL     1      -4.118  12.471  21.401  0.00  0.00    +0.000 C 
BRANCH  19  21
ATOM     20  C   UNL     1      -3.325  12.267  23.847  0.00  0.00    +0.000 C 
ATOM     21  C   UNL     1      -4.171  13.019  22.835  0.00  0.00    +0.000 C 
ENDBRANCH  19  21
ENDBRANCH  18  19
BRANCH  18  22
ATOM     22  C   UNL     1      -2.604  14.336  20.779  0.00  0.00    +0.000 C 
BRANCH  22  23
ATOM     23  C   UNL     1      -1.107  14.571  21.025  0.00  0.00    +0.000 C 
ATOM     24  C   UNL     1      -0.712  14.545  22.495  0.00  0.00    +0.000 C 
ENDBRANCH  22  23
ENDBRANCH  18  22
ENDBRANCH   1  18
BRANCH   8  25
ATOM     25  C   UNL     1       1.293   9.913  22.427  0.00  0.00    +0.000 C 
BRANCH  25  26
ATOM     26  O   UNL     1       0.514   9.717  23.609  0.00  0.00    +0.000 OA
ATOM     27  H   UNL     1       0.953  10.282  24.274  0.00  0.00    +0.000 HD
ENDBRANCH  25  26
ENDBRANCH   8  25
TORSDOF 8
ENDMDL
MODEL 7
REMARK VINA RESULT:      -5.8      4.943      9.301
REMARK  Name = 
REMARK  11 active torsions:
REMARK  status: ('A' for Active; 'I' for Inactive)
REMARK    1  A    between atoms: C_1  and  C_2
REMARK    2  A    between atoms: C_2  and  C_3
REMARK    3  A    between atoms: C_3  and  N_4
REMARK    4  A    between atoms: N_4  and  C_5
REMARK    5  A    between atoms: N_4  and  C_8
REMARK    6  A    between atoms: C_5  and  C_6
REMARK    7  A    between atoms: C_6  and  C_7
REMARK    8  A    between atoms: C_10  and  C_11
REMARK    9  A    between atoms: C_14  and  C_15
REMARK   10  A    between atoms: C_22  and  C_23
REMARK   11  A    between atoms: C_23  and  O_24
REMARK                            x       y       z     vdW  Elec       q    Type
REMARK                         _______ _______ _______ _____ _____    ______ ____
ROOT
ATOM      1  C   UNL     1      -3.472  11.692  18.605  0.00  0.00    +0.000 A 
ATOM      2  C   UNL     1      -3.624  11.331  17.313  0.00  0.00    +0.000 A 
ATOM      3  C   UNL     1      -2.642  10.403  16.698  0.00  0.00    +0.000 A 
ATOM      4  C   UNL     1      -2.964   9.880  15.318  0.00  0.00    +0.000 C 
ATOM      5  N   UNL     1      -1.555   9.987  17.270  0.00  0.00    +0.000 NA
ATOM      6  C   UNL     1      -1.329  10.424  18.548  0.00  0.00    +0.000 A 
ATOM      7  C   UNL     1      -0.273  10.180  19.413  0.00  0.00    +0.000 A 
ATOM      8  C   UNL     1      -0.602  10.901  20.587  0.00  0.00    +0.000 A 
ATOM      9  N   UNL     1      -1.778  11.529  20.488  0.00  0.00    +0.000 NA
ATOM     10  N   UNL     1      -2.250  11.247  19.235  0.00  0.00    +0.000 N 
ENDROOT
BRANCH   7  11
ATOM     11  C   UNL     1       0.865   9.307  19.137  0.00  0.00    +0.000 A 
ATOM     12  C   UNL     1       1.247   8.320  20.060  0.00  0.00    +0.000 A 
ATOM     13  C   UNL     1       2.238   7.385  19.745  0.00  0.00    +0.000 A 
ATOM     14  C   UNL     1       2.885   7.450  18.513  0.00  0.00    +0.000 A 
ATOM     15 CL   UNL     1       4.082   6.283  18.114  0.00  0.00    +0.000 Cl
ATOM     16  C   UNL     1       2.555   8.448  17.603  0.00  0.00    +0.000 A 
ATOM     17  C   UNL     1       1.546   9.369  17.912  0.00  0.00    +0.000 A 
ENDBRANCH   7  11
BRANCH   1  18
ATOM     18  N   UNL     1      -4.466  12.466  19.297  0.00  0.00    +0.000 N 
BRANCH  18  19
ATOM     19  C   UNL     1      -4.147  13.391  20.415  0.00  0.00    +0.000 C 
BRANCH  19  21
ATOM     20  C   UNL     1      -5.602  13.788  22.509  0.00  0.00    +0.000 C 
ATOM     21  C   UNL     1      -4.582  12.909  21.808  0.00  0.00    +0.000 C 
ENDBRANCH  19  21
ENDBRANCH  18  19
BRANCH  18  22
ATOM     22  C   UNL     1      -5.917  12.375  19.004  0.00  0.00    +0.000 C 
BRANCH  22  23
ATOM     23  C   UNL     1      -6.521  11.017  19.390  0.00  0.00    +0.000 C 
ATOM     24  C   UNL     1      -7.552  11.095  20.506  0.00  0.00    +0.000 C 
ENDBRANCH  22  23
ENDBRANCH  18  22
ENDBRANCH   1  18
BRANCH   8  25
ATOM     25  C   UNL     1       0.166  11.009  21.870  0.00  0.00    +0.000 C 
BRANCH  25  26
ATOM     26  O   UNL     1      -0.128  12.215  22.577  0.00  0.00    +0.000 OA
ATOM     27  H   UNL     1      -0.422  12.831  21.877  0.00  0.00    +0.000 HD
ENDBRANCH  25  26
ENDBRANCH   8  25
TORSDOF 8
ENDMDL
MODEL 8
REMARK VINA RESULT:      -5.8      4.822      9.220
REMARK  Name = 
REMARK  11 active torsions:
REMARK  status: ('A' for Active; 'I' for Inactive)
REMARK    1  A    between atoms: C_1  and  C_2
REMARK    2  A    between atoms: C_2  and  C_3
REMARK    3  A    between atoms: C_3  and  N_4
REMARK    4  A    between atoms: N_4  and  C_5
REMARK    5  A    between atoms: N_4  and  C_8
REMARK    6  A    between atoms: C_5  and  C_6
REMARK    7  A    between atoms: C_6  and  C_7
REMARK    8  A    between atoms: C_10  and  C_11
REMARK    9  A    between atoms: C_14  and  C_15
REMARK   10  A    between atoms: C_22  and  C_23
REMARK   11  A    between atoms: C_23  and  O_24
REMARK                            x       y       z     vdW  Elec       q    Type
REMARK                         _______ _______ _______ _____ _____    ______ ____
ROOT
ATOM      1  C   UNL     1      -2.946  11.849  19.137  0.00  0.00    +0.000 A 
ATOM      2  C   UNL     1      -3.172  11.642  17.822  0.00  0.00    +0.000 A 
ATOM      3  C   UNL     1      -2.301  10.699  17.075  0.00  0.00    +0.000 A 
ATOM      4  C   UNL     1      -2.714  10.355  15.664  0.00  0.00    +0.000 C 
ATOM      5  N   UNL     1      -1.239  10.130  17.557  0.00  0.00    +0.000 NA
ATOM      6  C   UNL     1      -0.933  10.410  18.862  0.00  0.00    +0.000 A 
ATOM      7  C   UNL     1       0.123   9.984  19.653  0.00  0.00    +0.000 A 
ATOM      8  C   UNL     1      -0.099  10.603  20.907  0.00  0.00    +0.000 A 
ATOM      9  N   UNL     1      -1.214  11.340  20.921  0.00  0.00    +0.000 NA
ATOM     10  N   UNL     1      -1.751  11.235  19.667  0.00  0.00    +0.000 N 
ENDROOT
BRANCH   7  11
ATOM     11  C   UNL     1       1.167   9.047  19.243  0.00  0.00    +0.000 A 
ATOM     12  C   UNL     1       1.505   7.955  20.059  0.00  0.00    +0.000 A 
ATOM     13  C   UNL     1       2.394   6.971  19.612  0.00  0.00    +0.000 A 
ATOM     14  C   UNL     1       2.984   7.090  18.356  0.00  0.00    +0.000 A 
ATOM     15 CL   UNL     1       4.054   5.867  17.796  0.00  0.00    +0.000 Cl
ATOM     16  C   UNL     1       2.698   8.188  17.551  0.00  0.00    +0.000 A 
ATOM     17  C   UNL     1       1.790   9.158  17.991  0.00  0.00    +0.000 A 
ENDBRANCH   7  11
BRANCH   1  18
ATOM     18  N   UNL     1      -3.841  12.632  19.945  0.00  0.00    +0.000 N 
BRANCH  18  19
ATOM     19  C   UNL     1      -3.439  13.893  20.620  0.00  0.00    +0.000 C 
BRANCH  19  21
ATOM     20  C   UNL     1      -4.488  15.097  22.647  0.00  0.00    +0.000 C 
ATOM     21  C   UNL     1      -3.669  13.923  22.139  0.00  0.00    +0.000 C 
ENDBRANCH  19  21
ENDBRANCH  18  19
BRANCH  18  22
ATOM     22  C   UNL     1      -5.239  12.229  20.234  0.00  0.00    +0.000 C 
BRANCH  22  23
ATOM     23  C   UNL     1      -6.271  13.028  19.426  0.00  0.00    +0.000 C 
ATOM     24  C   UNL     1      -6.866  12.261  18.255  0.00  0.00    +0.000 C 
ENDBRANCH  22  23
ENDBRANCH  18  22
ENDBRANCH   1  18
BRANCH   8  25
ATOM     25  C   UNL     1       0.716  10.507  22.161  0.00  0.00    +0.000 C 
BRANCH  25  26
ATOM     26  O   UNL     1      -0.099  10.424  23.332  0.00  0.00    +0.000 OA
ATOM     27  H   UNL     1       0.024   9.504  23.637  0.00  0.00    +0.000 HD
ENDBRANCH  25  26
ENDBRANCH   8  25
TORSDOF 8
ENDMDL
MODEL 9
REMARK VINA RESULT:      -5.8      4.969      9.238
REMARK  Name = 
REMARK  11 active torsions:
REMARK  status: ('A' for Active; 'I' for Inactive)
REMARK    1  A    between atoms: C_1  and  C_2
REMARK    2  A    between atoms: C_2  and  C_3
REMARK    3  A    between atoms: C_3  and  N_4
REMARK    4  A    between atoms: N_4  and  C_5
REMARK    5  A    between atoms: N_4  and  C_8
REMARK    6  A    between atoms: C_5  and  C_6
REMARK    7  A    between atoms: C_6  and  C_7
REMARK    8  A    between atoms: C_10  and  C_11
REMARK    9  A    between atoms: C_14  and  C_15
REMARK   10  A    between atoms: C_22  and  C_23
REMARK   11  A    between atoms: C_23  and  O_24
REMARK                            x       y       z     vdW  Elec       q    Type
REMARK                         _______ _______ _______ _____ _____    ______ ____
ROOT
ATOM      1  C   UNL     1      -3.466  11.699  18.571  0.00  0.00    +0.000 A 
ATOM      2  C   UNL     1      -3.675  11.263  17.310  0.00  0.00    +0.000 A 
ATOM      3  C   UNL     1      -2.712  10.310  16.702  0.00  0.00    +0.000 A 
ATOM      4  C   UNL     1      -3.092   9.705  15.372  0.00  0.00    +0.000 C 
ATOM      5  N   UNL     1      -1.594   9.939  17.245  0.00  0.00    +0.000 NA
ATOM      6  C   UNL     1      -1.313  10.452  18.483  0.00  0.00    +0.000 A 
ATOM      7  C   UNL     1      -0.214  10.269  19.309  0.00  0.00    +0.000 A 
ATOM      8  C   UNL     1      -0.495  11.053  20.454  0.00  0.00    +0.000 A 
ATOM      9  N   UNL     1      -1.682  11.663  20.376  0.00  0.00    +0.000 NA
ATOM     10  N   UNL     1      -2.210  11.304  19.165  0.00  0.00    +0.000 N 
ENDROOT
BRANCH   7  11
ATOM     11  C   UNL     1       0.921   9.392  19.029  0.00  0.00    +0.000 A 
ATOM     12  C   UNL     1       1.263   8.362  19.920  0.00  0.00    +0.000 A 
ATOM     13  C   UNL     1       2.251   7.427  19.593  0.00  0.00    +0.000 A 
ATOM     14  C   UNL     1       2.934   7.535  18.385  0.00  0.00    +0.000 A 
ATOM     15 CL   UNL     1       4.128   6.370  17.972  0.00  0.00    +0.000 Cl
ATOM     16  C   UNL     1       2.644   8.576  17.509  0.00  0.00    +0.000 A 
ATOM     17  C   UNL     1       1.638   9.496  17.828  0.00  0.00    +0.000 A 
ENDBRANCH   7  11
BRANCH   1  18
ATOM     18  N   UNL     1      -4.435  12.503  19.264  0.00  0.00    +0.000 N 
BRANCH  18  19
ATOM     19  C   UNL     1      -4.080  13.463  20.340  0.00  0.00    +0.000 C 
BRANCH  19  21
ATOM     20  C   UNL     1      -3.980  12.790  22.829  0.00  0.00    +0.000 C 
ATOM     21  C   UNL     1      -4.832  13.268  21.666  0.00  0.00    +0.000 C 
ENDBRANCH  19  21
ENDBRANCH  18  19
BRANCH  18  22
ATOM     22  C   UNL     1      -5.895  12.411  19.016  0.00  0.00    +0.000 C 
BRANCH  22  23
ATOM     23  C   UNL     1      -6.477  13.687  18.392  0.00  0.00    +0.000 C 
ATOM     24  C   UNL     1      -6.799  13.558  16.910  0.00  0.00    +0.000 C 
ENDBRANCH  22  23
ENDBRANCH  18  22
ENDBRANCH   1  18
BRANCH   8  25
ATOM     25  C   UNL     1       0.331  11.243  21.690  0.00  0.00    +0.000 C 
BRANCH  25  26
ATOM     26  O   UNL     1       1.272  12.310  21.554  0.00  0.00    +0.000 OA
ATOM     27  H   UNL     1       0.818  12.948  20.969  0.00  0.00    +0.000 HD
ENDBRANCH  25  26
ENDBRANCH   8  25
TORSDOF 8
ENDMDL
