MODEL 1
REMARK VINA RESULT:      -7.0      0.000      0.000
REMARK  Name = 
REMARK  7 active torsions:
REMARK  status: ('A' for Active; 'I' for Inactive)
REMARK    1  A    between atoms: C_1  and  C_2
REMARK    2  A    between atoms: N_4  and  C_5
REMARK    3  A    between atoms: C_6  and  N_7
REMARK    4  A    between atoms: N_7  and  C_8
REMARK    5  A    between atoms: C_8  and  C_9
REMARK    6  A    between atoms: C_9  and  C_10
REMARK    7  A    between atoms: C_9  and  C_11
REMARK                            x       y       z     vdW  Elec       q    Type
REMARK                         _______ _______ _______ _____ _____    ______ ____
ROOT
ATOM      1  C   UNL     1       3.482   3.646  19.266  0.00  0.00    +0.000 A 
ATOM      2  C   UNL     1       3.679   4.940  18.915  0.00  0.00    +0.000 A 
ATOM      3  C   UNL     1       4.289   5.201  17.581  0.00  0.00    +0.000 A 
ATOM      4  C   UNL     1       4.580   6.484  17.086  0.00  0.00    +0.000 A 
ATOM      5  C   UNL     1       5.193   6.662  15.836  0.00  0.00    +0.000 A 
ATOM      6  C   UNL     1       5.537   5.564  15.057  0.00  0.00    +0.000 A 
ATOM      7  C   UNL     1       5.266   4.285  15.525  0.00  0.00    +0.000 A 
ATOM      8  C   UNL     1       4.651   4.124  16.771  0.00  0.00    +0.000 A 
ATOM      9  O   UNL     1       4.443   2.796  17.164  0.00  0.00    +0.000 OA
ATOM     10  C   UNL     1       3.881   2.512  18.385  0.00  0.00    +0.000 A 
ATOM     11  O   UNL     1       3.696   1.353  18.756  0.00  0.00    +0.000 OA
ENDROOT
BRANCH   1  15
ATOM     12  C   UNL     1       1.243   2.476  22.011  0.00  0.00    +0.000 C 
ATOM     13  C   UNL     1       1.551   3.044  20.651  0.00  0.00    +0.000 C 
ATOM     14  O   UNL     1       0.666   3.241  19.824  0.00  0.00    +0.000 OA
ATOM     15  N   UNL     1       2.908   3.217  20.461  0.00  0.00    +0.000 N 
ATOM     16  H   UNL     1       3.476   2.521  20.943  0.00  0.00    +0.000 HD
ENDBRANCH   1  15
BRANCH   2  17
ATOM     17  N   UNL     1       3.395   6.045  19.719  0.00  0.00    +0.000 N 
ATOM     18  H   UNL     1       3.951   6.100  20.565  0.00  0.00    +0.000 HD
BRANCH  17  19
ATOM     19  C   UNL     1       2.068   6.635  19.851  0.00  0.00    +0.000 C 
BRANCH  19  20
ATOM     20  C   UNL     1       2.096   8.150  19.576  0.00  0.00    +0.000 C 
ATOM     21  C   UNL     1       1.800   8.480  18.111  0.00  0.00    +0.000 C 
ATOM     22  C   UNL     1       1.080   8.855  20.478  0.00  0.00    +0.000 C 
ENDBRANCH  19  20
ENDBRANCH  17  19
ENDBRANCH   2  17
TORSDOF 4
ENDMDL
MODEL 2
REMARK VINA RESULT:      -7.0      1.682      4.777
REMARK  Name = 
REMARK  7 active torsions:
REMARK  status: ('A' for Active; 'I' for Inactive)
REMARK    1  A    between atoms: C_1  and  C_2
REMARK    2  A    between atoms: N_4  and  C_5
REMARK    3  A    between atoms: C_6  and  N_7
REMARK    4  A    between atoms: N_7  and  C_8
REMARK    5  A    between atoms: C_8  and  C_9
REMARK    6  A    between atoms: C_9  and  C_10
REMARK    7  A    between atoms: C_9  and  C_11
REMARK                            x       y       z     vdW  Elec       q    Type
REMARK                         _______ _______ _______ _____ _____    ______ ____
ROOT
ATOM      1  C   UNL     1       2.929   4.893  19.325  0.00  0.00    +0.000 A 
ATOM      2  C   UNL     1       3.120   5.845  18.380  0.00  0.00    +0.000 A 
ATOM      3  C   UNL     1       2.547   7.194  18.644  0.00  0.00    +0.000 A 
ATOM      4  C   UNL     1       2.636   8.276  17.751  0.00  0.00    +0.000 A 
ATOM      5  C   UNL     1       2.039   9.513  18.040  0.00  0.00    +0.000 A 
ATOM      6  C   UNL     1       1.332   9.694  19.223  0.00  0.00    +0.000 A 
ATOM      7  C   UNL     1       1.223   8.640  20.120  0.00  0.00    +0.000 A 
ATOM      8  C   UNL     1       1.827   7.415  19.819  0.00  0.00    +0.000 A 
ATOM      9  O   UNL     1       1.639   6.409  20.775  0.00  0.00    +0.000 OA
ATOM     10  C   UNL     1       2.154   5.151  20.571  0.00  0.00    +0.000 A 
ATOM     11  O   UNL     1       1.994   4.248  21.393  0.00  0.00    +0.000 OA
ENDROOT
BRANCH   1  15
ATOM     12  C   UNL     1       3.745   1.359  18.451  0.00  0.00    +0.000 C 
ATOM     13  C   UNL     1       2.969   2.645  18.347  0.00  0.00    +0.000 C 
ATOM     14  O   UNL     1       2.109   2.805  17.486  0.00  0.00    +0.000 OA
ATOM     15  N   UNL     1       3.409   3.587  19.257  0.00  0.00    +0.000 N 
ATOM     16  H   UNL     1       4.407   3.523  19.454  0.00  0.00    +0.000 HD
ENDBRANCH   1  15
BRANCH   2  17
ATOM     17  N   UNL     1       3.773   5.651  17.162  0.00  0.00    +0.000 N 
ATOM     18  H   UNL     1       3.369   4.925  16.581  0.00  0.00    +0.000 HD
BRANCH  17  19
ATOM     19  C   UNL     1       5.210   5.820  16.973  0.00  0.00    +0.000 C 
BRANCH  19  20
ATOM     20  C   UNL     1       5.925   4.461  16.856  0.00  0.00    +0.000 C 
ATOM     21  C   UNL     1       5.898   3.912  15.428  0.00  0.00    +0.000 C 
ATOM     22  C   UNL     1       7.375   4.601  17.326  0.00  0.00    +0.000 C 
ENDBRANCH  19  20
ENDBRANCH  17  19
ENDBRANCH   2  17
TORSDOF 4
ENDMDL
MODEL 3
REMARK VINA RESULT:      -6.8      2.003      4.518
REMARK  Name = 
REMARK  7 active torsions:
REMARK  status: ('A' for Active; 'I' for Inactive)
REMARK    1  A    between atoms: C_1  and  C_2
REMARK    2  A    between atoms: N_4  and  C_5
REMARK    3  A    between atoms: C_6  and  N_7
REMARK    4  A    between atoms: N_7  and  C_8
REMARK    5  A    between atoms: C_8  and  C_9
REMARK    6  A    between atoms: C_9  and  C_10
REMARK    7  A    between atoms: C_9  and  C_11
REMARK                            x       y       z     vdW  Elec       q    Type
REMARK                         _______ _______ _______ _____ _____    ______ ____
ROOT
ATOM      1  C   UNL     1       4.835   5.449  17.466  0.00  0.00    +0.000 A 
ATOM      2  C   UNL     1       3.723   5.640  18.217  0.00  0.00    +0.000 A 
ATOM      3  C   UNL     1       2.840   4.461  18.442  0.00  0.00    +0.000 A 
ATOM      4  C   UNL     1       1.641   4.504  19.174  0.00  0.00    +0.000 A 
ATOM      5  C   UNL     1       0.831   3.367  19.316  0.00  0.00    +0.000 A 
ATOM      6  C   UNL     1       1.196   2.163  18.724  0.00  0.00    +0.000 A 
ATOM      7  C   UNL     1       2.374   2.095  17.991  0.00  0.00    +0.000 A 
ATOM      8  C   UNL     1       3.172   3.236  17.862  0.00  0.00    +0.000 A 
ATOM      9  O   UNL     1       4.324   3.070  17.083  0.00  0.00    +0.000 OA
ATOM     10  C   UNL     1       5.166   4.132  16.853  0.00  0.00    +0.000 A 
ATOM     11  O   UNL     1       6.181   4.013  16.165  0.00  0.00    +0.000 OA
ENDROOT
BRANCH   1  15
ATOM     12  C   UNL     1       7.791   7.719  17.304  0.00  0.00    +0.000 C 
ATOM     13  C   UNL     1       6.909   6.671  17.930  0.00  0.00    +0.000 C 
ATOM     14  O   UNL     1       7.241   6.085  18.955  0.00  0.00    +0.000 OA
ATOM     15  N   UNL     1       5.781   6.428  17.170  0.00  0.00    +0.000 N 
ATOM     16  H   UNL     1       5.937   6.535  16.169  0.00  0.00    +0.000 HD
ENDBRANCH   1  15
BRANCH   2  17
ATOM     17  N   UNL     1       3.317   6.860  18.760  0.00  0.00    +0.000 N 
ATOM     18  H   UNL     1       2.906   6.790  19.684  0.00  0.00    +0.000 HD
BRANCH  17  19
ATOM     19  C   UNL     1       2.795   7.968  17.968  0.00  0.00    +0.000 C 
BRANCH  19  20
ATOM     20  C   UNL     1       1.563   8.605  18.636  0.00  0.00    +0.000 C 
ATOM     21  C   UNL     1       1.544   8.385  20.150  0.00  0.00    +0.000 C 
ATOM     22  C   UNL     1       1.532  10.105  18.333  0.00  0.00    +0.000 C 
ENDBRANCH  19  20
ENDBRANCH  17  19
ENDBRANCH   2  17
TORSDOF 4
ENDMDL
MODEL 4
REMARK VINA RESULT:      -6.8      2.701      6.010
REMARK  Name = 
REMARK  7 active torsions:
REMARK  status: ('A' for Active; 'I' for Inactive)
REMARK    1  A    between atoms: C_1  and  C_2
REMARK    2  A    between atoms: N_4  and  C_5
REMARK    3  A    between atoms: C_6  and  N_7
REMARK    4  A    between atoms: N_7  and  C_8
REMARK    5  A    between atoms: C_8  and  C_9
REMARK    6  A    between atoms: C_9  and  C_10
REMARK    7  A    between atoms: C_9  and  C_11
REMARK                            x       y       z     vdW  Elec       q    Type
REMARK                         _______ _______ _______ _____ _____    ______ ____
ROOT
ATOM      1  C   UNL     1       4.579   6.005  17.532  0.00  0.00    +0.000 A 
ATOM      2  C   UNL     1       4.673   4.658  17.420  0.00  0.00    +0.000 A 
ATOM      3  C   UNL     1       3.471   3.856  17.784  0.00  0.00    +0.000 A 
ATOM      4  C   UNL     1       3.421   2.452  17.747  0.00  0.00    +0.000 A 
ATOM      5  C   UNL     1       2.270   1.752  18.142  0.00  0.00    +0.000 A 
ATOM      6  C   UNL     1       1.148   2.438  18.590  0.00  0.00    +0.000 A 
ATOM      7  C   UNL     1       1.174   3.825  18.642  0.00  0.00    +0.000 A 
ATOM      8  C   UNL     1       2.326   4.508  18.242  0.00  0.00    +0.000 A 
ATOM      9  O   UNL     1       2.260   5.903  18.355  0.00  0.00    +0.000 OA
ATOM     10  C   UNL     1       3.346   6.678  18.027  0.00  0.00    +0.000 A 
ATOM     11  O   UNL     1       3.315   7.906  18.126  0.00  0.00    +0.000 OA
ENDROOT
BRANCH   1  15
ATOM     12  C   UNL     1       7.741   7.958  17.215  0.00  0.00    +0.000 C 
ATOM     13  C   UNL     1       6.824   6.939  17.838  0.00  0.00    +0.000 C 
ATOM     14  O   UNL     1       7.208   6.201  18.741  0.00  0.00    +0.000 OA
ATOM     15  N   UNL     1       5.591   6.909  17.217  0.00  0.00    +0.000 N 
ATOM     16  H   UNL     1       5.635   7.121  16.221  0.00  0.00    +0.000 HD
ENDBRANCH   1  15
BRANCH   2  17
ATOM     17  N   UNL     1       5.818   3.960  17.032  0.00  0.00    +0.000 N 
ATOM     18  H   UNL     1       6.679   4.310  17.437  0.00  0.00    +0.000 HD
BRANCH  17  19
ATOM     19  C   UNL     1       5.994   3.354  15.716  0.00  0.00    +0.000 C 
BRANCH  19  20
ATOM     20  C   UNL     1       5.965   4.414  14.601  0.00  0.00    +0.000 C 
ATOM     21  C   UNL     1       7.280   5.191  14.503  0.00  0.00    +0.000 C 
ATOM     22  C   UNL     1       5.666   3.740  13.259  0.00  0.00    +0.000 C 
ENDBRANCH  19  20
ENDBRANCH  17  19
ENDBRANCH   2  17
TORSDOF 4
ENDMDL
MODEL 5
REMARK VINA RESULT:      -6.6      2.472      4.733
REMARK  Name = 
REMARK  7 active torsions:
REMARK  status: ('A' for Active; 'I' for Inactive)
REMARK    1  A    between atoms: C_1  and  C_2
REMARK    2  A    between atoms: N_4  and  C_5
REMARK    3  A    between atoms: C_6  and  N_7
REMARK    4  A    between atoms: N_7  and  C_8
REMARK    5  A    between atoms: C_8  and  C_9
REMARK    6  A    between atoms: C_9  and  C_10
REMARK    7  A    between atoms: C_9  and  C_11
REMARK                            x       y       z     vdW  Elec       q    Type
REMARK                         _______ _______ _______ _____ _____    ______ ____
ROOT
ATOM      1  C   UNL     1       5.482   5.901  18.445  0.00  0.00    +0.000 A 
ATOM      2  C   UNL     1       4.220   5.863  17.951  0.00  0.00    +0.000 A 
ATOM      3  C   UNL     1       3.421   4.633  18.210  0.00  0.00    +0.000 A 
ATOM      4  C   UNL     1       2.111   4.432  17.741  0.00  0.00    +0.000 A 
ATOM      5  C   UNL     1       1.425   3.232  17.984  0.00  0.00    +0.000 A 
ATOM      6  C   UNL     1       2.034   2.203  18.692  0.00  0.00    +0.000 A 
ATOM      7  C   UNL     1       3.330   2.374  19.161  0.00  0.00    +0.000 A 
ATOM      8  C   UNL     1       3.999   3.576  18.914  0.00  0.00    +0.000 A 
ATOM      9  O   UNL     1       5.309   3.640  19.406  0.00  0.00    +0.000 OA
ATOM     10  C   UNL     1       6.078   4.758  19.191  0.00  0.00    +0.000 A 
ATOM     11  O   UNL     1       7.236   4.834  19.607  0.00  0.00    +0.000 OA
ENDROOT
BRANCH   1  15
ATOM     12  C   UNL     1       8.018   8.416  17.370  0.00  0.00    +0.000 C 
ATOM     13  C   UNL     1       7.280   7.106  17.295  0.00  0.00    +0.000 C 
ATOM     14  O   UNL     1       7.462   6.321  16.368  0.00  0.00    +0.000 OA
ATOM     15  N   UNL     1       6.362   6.973  18.318  0.00  0.00    +0.000 N 
ATOM     16  H   UNL     1       5.949   7.858  18.607  0.00  0.00    +0.000 HD
ENDBRANCH   1  15
BRANCH   2  17
ATOM     17  N   UNL     1       3.626   6.867  17.184  0.00  0.00    +0.000 N 
ATOM     18  H   UNL     1       3.928   6.889  16.217  0.00  0.00    +0.000 HD
BRANCH  17  19
ATOM     19  C   UNL     1       3.246   8.174  17.709  0.00  0.00    +0.000 C 
BRANCH  19  20
ATOM     20  C   UNL     1       1.842   8.141  18.339  0.00  0.00    +0.000 C 
ATOM     21  C   UNL     1       1.889   7.907  19.851  0.00  0.00    +0.000 C 
ATOM     22  C   UNL     1       1.115   9.455  18.044  0.00  0.00    +0.000 C 
ENDBRANCH  19  20
ENDBRANCH  17  19
ENDBRANCH   2  17
TORSDOF 4
ENDMDL
MODEL 6
REMARK VINA RESULT:      -6.6      1.993      2.268
REMARK  Name = 
REMARK  7 active torsions:
REMARK  status: ('A' for Active; 'I' for Inactive)
REMARK    1  A    between atoms: C_1  and  C_2
REMARK    2  A    between atoms: N_4  and  C_5
REMARK    3  A    between atoms: C_6  and  N_7
REMARK    4  A    between atoms: N_7  and  C_8
REMARK    5  A    between atoms: C_8  and  C_9
REMARK    6  A    between atoms: C_9  and  C_10
REMARK    7  A    between atoms: C_9  and  C_11
REMARK                            x       y       z     vdW  Elec       q    Type
REMARK                         _______ _______ _______ _____ _____    ______ ____
ROOT
ATOM      1  C   UNL     1       3.764   4.163  18.946  0.00  0.00    +0.000 A 
ATOM      2  C   UNL     1       3.871   5.331  18.266  0.00  0.00    +0.000 A 
ATOM      3  C   UNL     1       5.237   5.898  18.092  0.00  0.00    +0.000 A 
ATOM      4  C   UNL     1       5.508   7.112  17.437  0.00  0.00    +0.000 A 
ATOM      5  C   UNL     1       6.816   7.614  17.341  0.00  0.00    +0.000 A 
ATOM      6  C   UNL     1       7.880   6.920  17.905  0.00  0.00    +0.000 A 
ATOM      7  C   UNL     1       7.638   5.721  18.564  0.00  0.00    +0.000 A 
ATOM      8  C   UNL     1       6.331   5.232  18.647  0.00  0.00    +0.000 A 
ATOM      9  O   UNL     1       6.190   4.030  19.352  0.00  0.00    +0.000 OA
ATOM     10  C   UNL     1       4.947   3.473  19.532  0.00  0.00    +0.000 A 
ATOM     11  O   UNL     1       4.796   2.421  20.156  0.00  0.00    +0.000 OA
ENDROOT
BRANCH   1  15
ATOM     12  C   UNL     1       0.622   2.160  18.772  0.00  0.00    +0.000 C 
ATOM     13  C   UNL     1       1.791   2.917  18.198  0.00  0.00    +0.000 C 
ATOM     14  O   UNL     1       2.011   2.933  16.990  0.00  0.00    +0.000 OA
ATOM     15  N   UNL     1       2.574   3.480  19.186  0.00  0.00    +0.000 N 
ATOM     16  H   UNL     1       2.601   2.930  20.043  0.00  0.00    +0.000 HD
ENDBRANCH   1  15
BRANCH   2  17
ATOM     17  N   UNL     1       2.800   6.065  17.754  0.00  0.00    +0.000 N 
ATOM     18  H   UNL     1       3.008   6.564  16.896  0.00  0.00    +0.000 HD
BRANCH  17  19
ATOM     19  C   UNL     1       1.792   6.718  18.582  0.00  0.00    +0.000 C 
BRANCH  19  20
ATOM     20  C   UNL     1       2.198   8.162  18.929  0.00  0.00    +0.000 C 
ATOM     21  C   UNL     1       1.971   9.126  17.762  0.00  0.00    +0.000 C 
ATOM     22  C   UNL     1       1.408   8.638  20.150  0.00  0.00    +0.000 C 
ENDBRANCH  19  20
ENDBRANCH  17  19
ENDBRANCH   2  17
TORSDOF 4
ENDMDL
MODEL 7
REMARK VINA RESULT:      -6.5      2.371      4.703
REMARK  Name = 
REMARK  7 active torsions:
REMARK  status: ('A' for Active; 'I' for Inactive)
REMARK    1  A    between atoms: C_1  and  C_2
REMARK    2  A    between atoms: N_4  and  C_5
REMARK    3  A    between atoms: C_6  and  N_7
REMARK    4  A    between atoms: N_7  and  C_8
REMARK    5  A    between atoms: C_8  and  C_9
REMARK    6  A    between atoms: C_9  and  C_10
REMARK    7  A    between atoms: C_9  and  C_11
REMARK                            x       y       z     vdW  Elec       q    Type
REMARK                         _______ _______ _______ _____ _____    ______ ____
ROOT
ATOM      1  C   UNL     1       5.605   6.012  17.168  0.00  0.00    +0.000 A 
ATOM      2  C   UNL     1       4.406   6.007  17.800  0.00  0.00    +0.000 A 
ATOM      3  C   UNL     1       3.658   4.719  17.836  0.00  0.00    +0.000 A 
ATOM      4  C   UNL     1       2.393   4.560  18.428  0.00  0.00    +0.000 A 
ATOM      5  C   UNL     1       1.720   3.328  18.394  0.00  0.00    +0.000 A 
ATOM      6  C   UNL     1       2.292   2.231  17.760  0.00  0.00    +0.000 A 
ATOM      7  C   UNL     1       3.538   2.364  17.162  0.00  0.00    +0.000 A 
ATOM      8  C   UNL     1       4.197   3.596  17.208  0.00  0.00    +0.000 A 
ATOM      9  O   UNL     1       5.436   3.633  16.555  0.00  0.00    +0.000 OA
ATOM     10  C   UNL     1       6.158   4.800  16.502  0.00  0.00    +0.000 A 
ATOM     11  O   UNL     1       7.246   4.860  15.926  0.00  0.00    +0.000 OA
ENDROOT
BRANCH   1  15
ATOM     12  C   UNL     1       8.302   8.573  17.455  0.00  0.00    +0.000 C 
ATOM     13  C   UNL     1       7.521   7.361  17.888  0.00  0.00    +0.000 C 
ATOM     14  O   UNL     1       7.886   6.669  18.834  0.00  0.00    +0.000 OA
ATOM     15  N   UNL     1       6.447   7.116  17.055  0.00  0.00    +0.000 N 
ATOM     16  H   UNL     1       6.619   7.383  16.086  0.00  0.00    +0.000 HD
ENDBRANCH   1  15
BRANCH   2  17
ATOM     17  N   UNL     1       3.797   7.120  18.382  0.00  0.00    +0.000 N 
ATOM     18  H   UNL     1       3.458   6.966  19.325  0.00  0.00    +0.000 HD
BRANCH  17  19
ATOM     19  C   UNL     1       3.025   8.108  17.635  0.00  0.00    +0.000 C 
BRANCH  19  20
ATOM     20  C   UNL     1       1.714   8.461  18.360  0.00  0.00    +0.000 C 
ATOM     21  C   UNL     1       1.752   8.089  19.844  0.00  0.00    +0.000 C 
ATOM     22  C   UNL     1       1.433   9.959  18.212  0.00  0.00    +0.000 C 
ENDBRANCH  19  20
ENDBRANCH  17  19
ENDBRANCH   2  17
TORSDOF 4
ENDMDL
MODEL 8
REMARK VINA RESULT:      -6.5      1.746      4.852
REMARK  Name = 
REMARK  7 active torsions:
REMARK  status: ('A' for Active; 'I' for Inactive)
REMARK    1  A    between atoms: C_1  and  C_2
REMARK    2  A    between atoms: N_4  and  C_5
REMARK    3  A    between atoms: C_6  and  N_7
REMARK    4  A    between atoms: N_7  and  C_8
REMARK    5  A    between atoms: C_8  and  C_9
REMARK    6  A    between atoms: C_9  and  C_10
REMARK    7  A    between atoms: C_9  and  C_11
REMARK                            x       y       z     vdW  Elec       q    Type
REMARK                         _______ _______ _______ _____ _____    ______ ____
ROOT
ATOM      1  C   UNL     1       2.792   4.782  19.383  0.00  0.00    +0.000 A 
ATOM      2  C   UNL     1       2.982   5.689  18.394  0.00  0.00    +0.000 A 
ATOM      3  C   UNL     1       2.487   7.074  18.632  0.00  0.00    +0.000 A 
ATOM      4  C   UNL     1       2.584   8.117  17.694  0.00  0.00    +0.000 A 
ATOM      5  C   UNL     1       2.061   9.391  17.963  0.00  0.00    +0.000 A 
ATOM      6  C   UNL     1       1.422   9.650  19.169  0.00  0.00    +0.000 A 
ATOM      7  C   UNL     1       1.307   8.635  20.110  0.00  0.00    +0.000 A 
ATOM      8  C   UNL     1       1.837   7.372  19.830  0.00  0.00    +0.000 A 
ATOM      9  O   UNL     1       1.647   6.412  20.832  0.00  0.00    +0.000 OA
ATOM     10  C   UNL     1       2.091   5.125  20.653  0.00  0.00    +0.000 A 
ATOM     11  O   UNL     1       1.930   4.260  21.516  0.00  0.00    +0.000 OA
ENDROOT
BRANCH   1  15
ATOM     12  C   UNL     1       4.634   1.541  19.518  0.00  0.00    +0.000 C 
ATOM     13  C   UNL     1       4.514   3.042  19.511  0.00  0.00    +0.000 C 
ATOM     14  O   UNL     1       5.487   3.763  19.711  0.00  0.00    +0.000 OA
ATOM     15  N   UNL     1       3.206   3.453  19.343  0.00  0.00    +0.000 N 
ATOM     16  H   UNL     1       2.526   2.816  19.757  0.00  0.00    +0.000 HD
ENDBRANCH   1  15
BRANCH   2  17
ATOM     17  N   UNL     1       3.565   5.419  17.155  0.00  0.00    +0.000 N 
ATOM     18  H   UNL     1       3.212   4.584  16.700  0.00  0.00    +0.000 HD
BRANCH  17  19
ATOM     19  C   UNL     1       4.953   5.723  16.825  0.00  0.00    +0.000 C 
BRANCH  19  20
ATOM     20  C   UNL     1       5.680   4.490  16.260  0.00  0.00    +0.000 C 
ATOM     21  C   UNL     1       5.598   4.416  14.734  0.00  0.00    +0.000 C 
ATOM     22  C   UNL     1       7.147   4.514  16.696  0.00  0.00    +0.000 C 
ENDBRANCH  19  20
ENDBRANCH  17  19
ENDBRANCH   2  17
TORSDOF 4
ENDMDL
MODEL 9
REMARK VINA RESULT:      -6.5      0.979      1.009
REMARK  Name = 
REMARK  7 active torsions:
REMARK  status: ('A' for Active; 'I' for Inactive)
REMARK    1  A    between atoms: C_1  and  C_2
REMARK    2  A    between atoms: N_4  and  C_5
REMARK    3  A    between atoms: C_6  and  N_7
REMARK    4  A    between atoms: N_7  and  C_8
REMARK    5  A    between atoms: C_8  and  C_9
REMARK    6  A    between atoms: C_9  and  C_10
REMARK    7  A    between atoms: C_9  and  C_11
REMARK                            x       y       z     vdW  Elec       q    Type
REMARK                         _______ _______ _______ _____ _____    ______ ____
ROOT
ATOM      1  C   UNL     1       3.060   3.730  18.973  0.00  0.00    +0.000 A 
ATOM      2  C   UNL     1       3.615   4.964  18.892  0.00  0.00    +0.000 A 
ATOM      3  C   UNL     1       4.590   5.205  17.792  0.00  0.00    +0.000 A 
ATOM      4  C   UNL     1       5.268   6.420  17.592  0.00  0.00    +0.000 A 
ATOM      5  C   UNL     1       6.206   6.571  16.559  0.00  0.00    +0.000 A 
ATOM      6  C   UNL     1       6.495   5.510  15.709  0.00  0.00    +0.000 A 
ATOM      7  C   UNL     1       5.843   4.297  15.889  0.00  0.00    +0.000 A 
ATOM      8  C   UNL     1       4.908   4.164  16.919  0.00  0.00    +0.000 A 
ATOM      9  O   UNL     1       4.325   2.895  17.032  0.00  0.00    +0.000 OA
ATOM     10  C   UNL     1       3.419   2.633  18.032  0.00  0.00    +0.000 A 
ATOM     11  O   UNL     1       2.899   1.524  18.157  0.00  0.00    +0.000 OA
ENDROOT
BRANCH   1  15
ATOM     12  C   UNL     1       1.216   2.500  21.973  0.00  0.00    +0.000 C 
ATOM     13  C   UNL     1       2.434   2.714  21.114  0.00  0.00    +0.000 C 
ATOM     14  O   UNL     1       3.557   2.420  21.512  0.00  0.00    +0.000 OA
ATOM     15  N   UNL     1       2.119   3.334  19.921  0.00  0.00    +0.000 N 
ATOM     16  H   UNL     1       1.338   3.985  19.997  0.00  0.00    +0.000 HD
ENDBRANCH   1  15
BRANCH   2  17
ATOM     17  N   UNL     1       3.378   6.014  19.782  0.00  0.00    +0.000 N 
ATOM     18  H   UNL     1       3.894   5.949  20.652  0.00  0.00    +0.000 HD
BRANCH  17  19
ATOM     19  C   UNL     1       2.095   6.697  19.912  0.00  0.00    +0.000 C 
BRANCH  19  20
ATOM     20  C   UNL     1       2.171   8.141  19.384  0.00  0.00    +0.000 C 
ATOM     21  C   UNL     1       1.996   8.214  17.865  0.00  0.00    +0.000 C 
ATOM     22  C   UNL     1       1.099   8.994  20.067  0.00  0.00    +0.000 C 
ENDBRANCH  19  20
ENDBRANCH  17  19
ENDBRANCH   2  17
TORSDOF 4
ENDMDL
