MODEL 1
REMARK VINA RESULT:      -8.1      0.000      0.000
REMARK  Name = 
REMARK  6 active torsions:
REMARK  status: ('A' for Active; 'I' for Inactive)
REMARK    1  A    between atoms: C_3  and  N_4
REMARK    2  A    between atoms: C_7  and  C_8
REMARK    3  A    between atoms: C_11  and  O_12
REMARK    4  A    between atoms: N_21  and  C_22
REMARK    5  A    between atoms: C_22  and  C_23
REMARK    6  A    between atoms: C_26  and  C_27
REMARK                            x       y       z     vdW  Elec       q    Type
REMARK                         _______ _______ _______ _____ _____    ______ ____
ROOT
ATOM      1  O   UNL     1       0.722   9.654  17.883  0.00  0.00    +0.000 OA
ATOM      2  C   UNL     1       0.699   9.650  19.104  0.00  0.00    +0.000 C 
ATOM      3  C   UNL     1       1.000   8.459  20.023  0.00  0.00    +0.000 C 
ATOM      4  C   UNL     1       1.088   9.085  21.417  0.00  0.00    +0.000 C 
ATOM      5  C   UNL     1       0.284  10.363  21.306  0.00  0.00    +0.000 C 
ATOM      6  N   UNL     1       0.389  10.729  19.920  0.00  0.00    +0.000 N 
ENDROOT
BRANCH   3   7
ATOM      7  N   UNL     1       2.183   7.695  19.609  0.00  0.00    +0.000 NA
ATOM      8  C   UNL     1       2.268   7.475  18.169  0.00  0.00    +0.000 C 
ATOM      9  C   UNL     1       1.947   6.059  17.699  0.00  0.00    +0.000 C 
ATOM     10  C   UNL     1       2.640   4.957  18.512  0.00  0.00    +0.000 C 
ATOM     11  C   UNL     1       2.363   5.149  20.001  0.00  0.00    +0.000 C 
ATOM     12  F   UNL     1       1.060   4.805  20.235  0.00  0.00    +0.000 F 
ATOM     13  C   UNL     1       2.581   6.585  20.491  0.00  0.00    +0.000 C 
BRANCH  10  14
ATOM     14  C   UNL     1       4.120   4.780  18.207  0.00  0.00    +0.000 A 
ATOM     15  C   UNL     1       5.127   5.109  19.129  0.00  0.00    +0.000 A 
ATOM     16  C   UNL     1       6.482   4.932  18.829  0.00  0.00    +0.000 A 
ATOM     17  C   UNL     1       6.843   4.400  17.602  0.00  0.00    +0.000 A 
ATOM     18  C   UNL     1       5.860   4.051  16.681  0.00  0.00    +0.000 A 
ATOM     19  F   UNL     1       6.196   3.518  15.498  0.00  0.00    +0.000 F 
ATOM     20  C   UNL     1       4.510   4.238  16.975  0.00  0.00    +0.000 A 
BRANCH  17  21
ATOM     21  O   UNL     1       8.159   4.210  17.293  0.00  0.00    +0.000 OA
ATOM     22  H   UNL     1       8.456   4.947  16.735  0.00  0.00    +0.000 HD
ENDBRANCH  17  21
ENDBRANCH  10  14
ENDBRANCH   3   7
BRANCH   6  23
ATOM     23  C   UNL     1      -0.050  12.009  19.412  0.00  0.00    +0.000 C 
BRANCH  23  24
ATOM     24  C   UNL     1      -1.525  12.056  19.079  0.00  0.00    +0.000 A 
ATOM     25  C   UNL     1      -2.010  11.570  17.855  0.00  0.00    +0.000 A 
ATOM     26  C   UNL     1      -3.385  11.490  17.609  0.00  0.00    +0.000 A 
ATOM     27  C   UNL     1      -4.307  11.880  18.589  0.00  0.00    +0.000 A 
ATOM     28  C   UNL     1      -3.825  12.399  19.798  0.00  0.00    +0.000 A 
ATOM     29  C   UNL     1      -2.450  12.484  20.041  0.00  0.00    +0.000 A 
BRANCH  27  30
ATOM     30  C   UNL     1      -5.788  11.759  18.343  0.00  0.00    +0.000 C 
ATOM     31  F   UNL     1      -6.181  12.307  17.158  0.00  0.00    +0.000 F 
ATOM     32  F   UNL     1      -6.221  10.467  18.309  0.00  0.00    +0.000 F 
ENDBRANCH  27  30
ENDBRANCH  23  24
ENDBRANCH   6  23
TORSDOF 6
ENDMDL
MODEL 2
REMARK VINA RESULT:      -8.1      1.676      2.016
REMARK  Name = 
REMARK  6 active torsions:
REMARK  status: ('A' for Active; 'I' for Inactive)
REMARK    1  A    between atoms: C_3  and  N_4
REMARK    2  A    between atoms: C_7  and  C_8
REMARK    3  A    between atoms: C_11  and  O_12
REMARK    4  A    between atoms: N_21  and  C_22
REMARK    5  A    between atoms: C_22  and  C_23
REMARK    6  A    between atoms: C_26  and  C_27
REMARK                            x       y       z     vdW  Elec       q    Type
REMARK                         _______ _______ _______ _____ _____    ______ ____
ROOT
ATOM      1  O   UNL     1       1.455  10.453  18.893  0.00  0.00    +0.000 OA
ATOM      2  C   UNL     1       1.035   9.897  19.896  0.00  0.00    +0.000 C 
ATOM      3  C   UNL     1       0.918   8.385  20.124  0.00  0.00    +0.000 C 
ATOM      4  C   UNL     1       0.601   8.263  21.616  0.00  0.00    +0.000 C 
ATOM      5  C   UNL     1      -0.012   9.599  21.981  0.00  0.00    +0.000 C 
ATOM      6  N   UNL     1       0.569  10.522  21.045  0.00  0.00    +0.000 N 
ENDROOT
BRANCH   3   7
ATOM      7  N   UNL     1       2.102   7.641  19.679  0.00  0.00    +0.000 NA
ATOM      8  C   UNL     1       2.183   7.474  18.231  0.00  0.00    +0.000 C 
ATOM      9  C   UNL     1       1.865   6.075  17.711  0.00  0.00    +0.000 C 
ATOM     10  C   UNL     1       2.564   4.946  18.480  0.00  0.00    +0.000 C 
ATOM     11  C   UNL     1       2.292   5.082  19.976  0.00  0.00    +0.000 C 
ATOM     12  F   UNL     1       0.990   4.725  20.201  0.00  0.00    +0.000 F 
ATOM     13  C   UNL     1       2.507   6.500  20.518  0.00  0.00    +0.000 C 
BRANCH  10  14
ATOM     14  C   UNL     1       4.043   4.785  18.164  0.00  0.00    +0.000 A 
ATOM     15  C   UNL     1       5.054   5.138  19.073  0.00  0.00    +0.000 A 
ATOM     16  C   UNL     1       6.409   4.975  18.763  0.00  0.00    +0.000 A 
ATOM     17  C   UNL     1       6.766   4.434  17.539  0.00  0.00    +0.000 A 
ATOM     18  C   UNL     1       5.780   4.062  16.631  0.00  0.00    +0.000 A 
ATOM     19  F   UNL     1       6.113   3.520  15.451  0.00  0.00    +0.000 F 
ATOM     20  C   UNL     1       4.430   4.234  16.934  0.00  0.00    +0.000 A 
BRANCH  17  21
ATOM     21  O   UNL     1       8.082   4.258  17.220  0.00  0.00    +0.000 OA
ATOM     22  H   UNL     1       8.315   4.879  16.512  0.00  0.00    +0.000 HD
ENDBRANCH  17  21
ENDBRANCH  10  14
ENDBRANCH   3   7
BRANCH   6  23
ATOM     23  C   UNL     1       0.430  11.955  21.167  0.00  0.00    +0.000 C 
BRANCH  23  24
ATOM     24  C   UNL     1      -0.990  12.407  21.425  0.00  0.00    +0.000 A 
ATOM     25  C   UNL     1      -1.937  12.458  20.389  0.00  0.00    +0.000 A 
ATOM     26  C   UNL     1      -3.280  12.743  20.658  0.00  0.00    +0.000 A 
ATOM     27  C   UNL     1      -3.710  12.969  21.971  0.00  0.00    +0.000 A 
ATOM     28  C   UNL     1      -2.762  12.955  23.002  0.00  0.00    +0.000 A 
ATOM     29  C   UNL     1      -1.418  12.676  22.733  0.00  0.00    +0.000 A 
BRANCH  27  30
ATOM     30  C   UNL     1      -5.162  13.239  22.269  0.00  0.00    +0.000 C 
ATOM     31  F   UNL     1      -5.610  14.410  21.734  0.00  0.00    +0.000 F 
ATOM     32  F   UNL     1      -5.995  12.274  21.786  0.00  0.00    +0.000 F 
ENDBRANCH  27  30
ENDBRANCH  23  24
ENDBRANCH   6  23
TORSDOF 6
ENDMDL
MODEL 3
REMARK VINA RESULT:      -8.1      3.567      9.643
REMARK  Name = 
REMARK  6 active torsions:
REMARK  status: ('A' for Active; 'I' for Inactive)
REMARK    1  A    between atoms: C_3  and  N_4
REMARK    2  A    between atoms: C_7  and  C_8
REMARK    3  A    between atoms: C_11  and  O_12
REMARK    4  A    between atoms: N_21  and  C_22
REMARK    5  A    between atoms: C_22  and  C_23
REMARK    6  A    between atoms: C_26  and  C_27
REMARK                            x       y       z     vdW  Elec       q    Type
REMARK                         _______ _______ _______ _____ _____    ______ ____
ROOT
ATOM      1  O   UNL     1       4.974   5.847  19.661  0.00  0.00    +0.000 OA
ATOM      2  C   UNL     1       3.909   5.530  19.152  0.00  0.00    +0.000 C 
ATOM      3  C   UNL     1       2.532   6.133  19.457  0.00  0.00    +0.000 C 
ATOM      4  C   UNL     1       1.632   5.563  18.359  0.00  0.00    +0.000 C 
ATOM      5  C   UNL     1       2.334   4.297  17.916  0.00  0.00    +0.000 C 
ATOM      6  N   UNL     1       3.723   4.548  18.189  0.00  0.00    +0.000 N 
ENDROOT
BRANCH   3   7
ATOM      7  N   UNL     1       2.551   7.598  19.547  0.00  0.00    +0.000 NA
ATOM      8  C   UNL     1       1.675   8.136  20.583  0.00  0.00    +0.000 C 
ATOM      9  C   UNL     1       0.392   8.795  20.084  0.00  0.00    +0.000 C 
ATOM     10  C   UNL     1       0.601   9.768  18.916  0.00  0.00    +0.000 C 
ATOM     11  C   UNL     1       1.375   9.083  17.792  0.00  0.00    +0.000 C 
ATOM     12  F   UNL     1       0.533   8.192  17.185  0.00  0.00    +0.000 F 
ATOM     13  C   UNL     1       2.620   8.327  18.269  0.00  0.00    +0.000 C 
BRANCH  10  14
ATOM     14  C   UNL     1       1.200  11.110  19.309  0.00  0.00    +0.000 A 
ATOM     15  C   UNL     1       1.019  11.676  20.582  0.00  0.00    +0.000 A 
ATOM     16  C   UNL     1       1.583  12.909  20.924  0.00  0.00    +0.000 A 
ATOM     17  C   UNL     1       2.357  13.583  19.994  0.00  0.00    +0.000 A 
ATOM     18  C   UNL     1       2.563  13.032  18.733  0.00  0.00    +0.000 A 
ATOM     19  F   UNL     1       3.326  13.667  17.831  0.00  0.00    +0.000 F 
ATOM     20  C   UNL     1       1.992  11.809  18.388  0.00  0.00    +0.000 A 
BRANCH  17  21
ATOM     21  O   UNL     1       2.926  14.784  20.310  0.00  0.00    +0.000 OA
ATOM     22  H   UNL     1       3.713  14.620  20.853  0.00  0.00    +0.000 HD
ENDBRANCH  17  21
ENDBRANCH  10  14
ENDBRANCH   3   7
BRANCH   6  23
ATOM     23  C   UNL     1       4.783   3.685  17.719  0.00  0.00    +0.000 C 
BRANCH  23  24
ATOM     24  C   UNL     1       5.465   4.189  16.466  0.00  0.00    +0.000 A 
ATOM     25  C   UNL     1       6.777   4.689  16.503  0.00  0.00    +0.000 A 
ATOM     26  C   UNL     1       7.450   5.024  15.324  0.00  0.00    +0.000 A 
ATOM     27  C   UNL     1       6.833   4.852  14.079  0.00  0.00    +0.000 A 
ATOM     28  C   UNL     1       5.512   4.388  14.041  0.00  0.00    +0.000 A 
ATOM     29  C   UNL     1       4.836   4.058  15.220  0.00  0.00    +0.000 A 
BRANCH  27  30
ATOM     30  C   UNL     1       7.568   5.176  12.804  0.00  0.00    +0.000 C 
ATOM     31  F   UNL     1       8.861   5.555  13.014  0.00  0.00    +0.000 F 
ATOM     32  F   UNL     1       7.632   4.122  11.942  0.00  0.00    +0.000 F 
ENDBRANCH  27  30
ENDBRANCH  23  24
ENDBRANCH   6  23
TORSDOF 6
ENDMDL
MODEL 4
REMARK VINA RESULT:      -8.1      3.393     10.233
REMARK  Name = 
REMARK  6 active torsions:
REMARK  status: ('A' for Active; 'I' for Inactive)
REMARK    1  A    between atoms: C_3  and  N_4
REMARK    2  A    between atoms: C_7  and  C_8
REMARK    3  A    between atoms: C_11  and  O_12
REMARK    4  A    between atoms: N_21  and  C_22
REMARK    5  A    between atoms: C_22  and  C_23
REMARK    6  A    between atoms: C_26  and  C_27
REMARK                            x       y       z     vdW  Elec       q    Type
REMARK                         _______ _______ _______ _____ _____    ______ ____
ROOT
ATOM      1  O   UNL     1       1.350   8.028  21.201  0.00  0.00    +0.000 OA
ATOM      2  C   UNL     1       1.473   8.358  20.031  0.00  0.00    +0.000 C 
ATOM      3  C   UNL     1       0.746   9.507  19.322  0.00  0.00    +0.000 C 
ATOM      4  C   UNL     1       1.474   9.628  17.981  0.00  0.00    +0.000 C 
ATOM      5  C   UNL     1       2.094   8.263  17.765  0.00  0.00    +0.000 C 
ATOM      6  N   UNL     1       2.299   7.753  19.094  0.00  0.00    +0.000 N 
ENDROOT
BRANCH   3   7
ATOM      7  N   UNL     1       0.701  10.740  20.117  0.00  0.00    +0.000 NA
ATOM      8  C   UNL     1      -0.469  10.840  20.983  0.00  0.00    +0.000 C 
ATOM      9  C   UNL     1      -1.544  11.823  20.526  0.00  0.00    +0.000 C 
ATOM     10  C   UNL     1      -1.000  13.192  20.099  0.00  0.00    +0.000 C 
ATOM     11  C   UNL     1       0.104  13.019  19.060  0.00  0.00    +0.000 C 
ATOM     12  F   UNL     1      -0.482  12.641  17.882  0.00  0.00    +0.000 F 
ATOM     13  C   UNL     1       1.153  11.967  19.440  0.00  0.00    +0.000 C 
BRANCH  10  14
ATOM     14  C   UNL     1      -0.588  14.097  21.251  0.00  0.00    +0.000 A 
ATOM     15  C   UNL     1       0.393  15.093  21.115  0.00  0.00    +0.000 A 
ATOM     16  C   UNL     1       0.753  15.919  22.186  0.00  0.00    +0.000 A 
ATOM     17  C   UNL     1       0.114  15.767  23.406  0.00  0.00    +0.000 A 
ATOM     18  C   UNL     1      -0.872  14.797  23.556  0.00  0.00    +0.000 A 
ATOM     19  F   UNL     1      -1.510  14.653  24.726  0.00  0.00    +0.000 F 
ATOM     20  C   UNL     1      -1.223  13.967  22.493  0.00  0.00    +0.000 A 
BRANCH  17  21
ATOM     21  O   UNL     1       0.443  16.568  24.462  0.00  0.00    +0.000 OA
ATOM     22  H   UNL     1      -0.335  17.096  24.704  0.00  0.00    +0.000 HD
ENDBRANCH  17  21
ENDBRANCH  10  14
ENDBRANCH   3   7
BRANCH   6  23
ATOM     23  C   UNL     1       3.071   6.562  19.366  0.00  0.00    +0.000 C 
BRANCH  23  24
ATOM     24  C   UNL     1       3.741   5.981  18.141  0.00  0.00    +0.000 A 
ATOM     25  C   UNL     1       4.795   6.652  17.501  0.00  0.00    +0.000 A 
ATOM     26  C   UNL     1       5.501   6.047  16.455  0.00  0.00    +0.000 A 
ATOM     27  C   UNL     1       5.179   4.751  16.036  0.00  0.00    +0.000 A 
ATOM     28  C   UNL     1       4.105   4.092  16.649  0.00  0.00    +0.000 A 
ATOM     29  C   UNL     1       3.396   4.699  17.690  0.00  0.00    +0.000 A 
BRANCH  27  30
ATOM     30  C   UNL     1       5.962   4.081  14.936  0.00  0.00    +0.000 C 
ATOM     31  F   UNL     1       5.330   4.123  13.729  0.00  0.00    +0.000 F 
ATOM     32  F   UNL     1       7.184   4.648  14.729  0.00  0.00    +0.000 F 
ENDBRANCH  27  30
ENDBRANCH  23  24
ENDBRANCH   6  23
TORSDOF 6
ENDMDL
MODEL 5
REMARK VINA RESULT:      -8.0      2.565      9.946
REMARK  Name = 
REMARK  6 active torsions:
REMARK  status: ('A' for Active; 'I' for Inactive)
REMARK    1  A    between atoms: C_3  and  N_4
REMARK    2  A    between atoms: C_7  and  C_8
REMARK    3  A    between atoms: C_11  and  O_12
REMARK    4  A    between atoms: N_21  and  C_22
REMARK    5  A    between atoms: C_22  and  C_23
REMARK    6  A    between atoms: C_26  and  C_27
REMARK                            x       y       z     vdW  Elec       q    Type
REMARK                         _______ _______ _______ _____ _____    ______ ____
ROOT
ATOM      1  O   UNL     1       1.383  10.095  17.829  0.00  0.00    +0.000 OA
ATOM      2  C   UNL     1       1.392   9.407  18.838  0.00  0.00    +0.000 C 
ATOM      3  C   UNL     1       0.671   9.706  20.158  0.00  0.00    +0.000 C 
ATOM      4  C   UNL     1       0.803   8.405  20.951  0.00  0.00    +0.000 C 
ATOM      5  C   UNL     1       2.018   7.723  20.356  0.00  0.00    +0.000 C 
ATOM      6  N   UNL     1       2.066   8.204  19.002  0.00  0.00    +0.000 N 
ENDROOT
BRANCH   3   7
ATOM      7  N   UNL     1      -0.705  10.181  19.969  0.00  0.00    +0.000 NA
ATOM      8  C   UNL     1      -1.430   9.481  18.913  0.00  0.00    +0.000 C 
ATOM      9  C   UNL     1      -1.633  10.268  17.621  0.00  0.00    +0.000 C 
ATOM     10  C   UNL     1      -2.129  11.704  17.833  0.00  0.00    +0.000 C 
ATOM     11  C   UNL     1      -1.220  12.435  18.818  0.00  0.00    +0.000 C 
ATOM     12  F   UNL     1      -0.039  12.704  18.180  0.00  0.00    +0.000 F 
ATOM     13  C   UNL     1      -0.914  11.634  20.089  0.00  0.00    +0.000 C 
BRANCH  10  14
ATOM     14  C   UNL     1      -3.602  11.819  18.196  0.00  0.00    +0.000 A 
ATOM     15  C   UNL     1      -4.628  11.409  17.329  0.00  0.00    +0.000 A 
ATOM     16  C   UNL     1      -5.977  11.518  17.685  0.00  0.00    +0.000 A 
ATOM     17  C   UNL     1      -6.312  12.024  18.931  0.00  0.00    +0.000 A 
ATOM     18  C   UNL     1      -5.310  12.420  19.811  0.00  0.00    +0.000 A 
ATOM     19  F   UNL     1      -5.621  12.894  21.026  0.00  0.00    +0.000 F 
ATOM     20  C   UNL     1      -3.966  12.322  19.452  0.00  0.00    +0.000 A 
BRANCH  17  21
ATOM     21  O   UNL     1      -7.621  12.131  19.303  0.00  0.00    +0.000 OA
ATOM     22  H   UNL     1      -8.136  12.438  18.540  0.00  0.00    +0.000 HD
ENDBRANCH  17  21
ENDBRANCH  10  14
ENDBRANCH   3   7
BRANCH   6  23
ATOM     23  C   UNL     1       2.944   7.643  18.001  0.00  0.00    +0.000 C 
BRANCH  23  24
ATOM     24  C   UNL     1       2.982   6.131  18.006  0.00  0.00    +0.000 A 
ATOM     25  C   UNL     1       4.156   5.434  18.333  0.00  0.00    +0.000 A 
ATOM     26  C   UNL     1       4.150   4.042  18.469  0.00  0.00    +0.000 A 
ATOM     27  C   UNL     1       2.964   3.316  18.297  0.00  0.00    +0.000 A 
ATOM     28  C   UNL     1       1.799   4.005  17.935  0.00  0.00    +0.000 A 
ATOM     29  C   UNL     1       1.808   5.396  17.793  0.00  0.00    +0.000 A 
BRANCH  27  30
ATOM     30  C   UNL     1       2.944   1.821  18.480  0.00  0.00    +0.000 C 
ATOM     31  F   UNL     1       4.090   1.334  19.038  0.00  0.00    +0.000 F 
ATOM     32  F   UNL     1       1.935   1.396  19.292  0.00  0.00    +0.000 F 
ENDBRANCH  27  30
ENDBRANCH  23  24
ENDBRANCH   6  23
TORSDOF 6
ENDMDL
MODEL 6
REMARK VINA RESULT:      -8.0      3.390      4.675
REMARK  Name = 
REMARK  6 active torsions:
REMARK  status: ('A' for Active; 'I' for Inactive)
REMARK    1  A    between atoms: C_3  and  N_4
REMARK    2  A    between atoms: C_7  and  C_8
REMARK    3  A    between atoms: C_11  and  O_12
REMARK    4  A    between atoms: N_21  and  C_22
REMARK    5  A    between atoms: C_22  and  C_23
REMARK    6  A    between atoms: C_26  and  C_27
REMARK                            x       y       z     vdW  Elec       q    Type
REMARK                         _______ _______ _______ _____ _____    ______ ____
ROOT
ATOM      1  O   UNL     1       0.827   9.869  18.254  0.00  0.00    +0.000 OA
ATOM      2  C   UNL     1       0.783   9.735  19.468  0.00  0.00    +0.000 C 
ATOM      3  C   UNL     1       1.022   8.441  20.256  0.00  0.00    +0.000 C 
ATOM      4  C   UNL     1       1.111   8.910  21.710  0.00  0.00    +0.000 C 
ATOM      5  C   UNL     1       0.359  10.224  21.729  0.00  0.00    +0.000 C 
ATOM      6  N   UNL     1       0.501  10.732  20.391  0.00  0.00    +0.000 N 
ENDROOT
BRANCH   3   7
ATOM      7  N   UNL     1       2.182   7.680  19.777  0.00  0.00    +0.000 NA
ATOM      8  C   UNL     1       2.254   7.568  18.324  0.00  0.00    +0.000 C 
ATOM      9  C   UNL     1       1.893   6.201  17.750  0.00  0.00    +0.000 C 
ATOM     10  C   UNL     1       2.559   5.023  18.472  0.00  0.00    +0.000 C 
ATOM     11  C   UNL     1       2.295   5.107  19.973  0.00  0.00    +0.000 C 
ATOM     12  F   UNL     1       0.983   4.781  20.188  0.00  0.00    +0.000 F 
ATOM     13  C   UNL     1       2.554   6.495  20.569  0.00  0.00    +0.000 C 
BRANCH  10  14
ATOM     14  C   UNL     1       4.032   4.829  18.144  0.00  0.00    +0.000 A 
ATOM     15  C   UNL     1       5.057   5.147  19.050  0.00  0.00    +0.000 A 
ATOM     16  C   UNL     1       6.405   4.955  18.730  0.00  0.00    +0.000 A 
ATOM     17  C   UNL     1       6.742   4.420  17.498  0.00  0.00    +0.000 A 
ATOM     18  C   UNL     1       5.741   4.082  16.592  0.00  0.00    +0.000 A 
ATOM     19  F   UNL     1       6.053   3.547  15.403  0.00  0.00    +0.000 F 
ATOM     20  C   UNL     1       4.398   4.283  16.906  0.00  0.00    +0.000 A 
BRANCH  17  21
ATOM     21  O   UNL     1       8.051   4.215  17.168  0.00  0.00    +0.000 OA
ATOM     22  H   UNL     1       8.609   4.598  17.864  0.00  0.00    +0.000 HD
ENDBRANCH  17  21
ENDBRANCH  10  14
ENDBRANCH   3   7
BRANCH   6  23
ATOM     23  C   UNL     1       0.120  12.075  20.018  0.00  0.00    +0.000 C 
BRANCH  23  24
ATOM     24  C   UNL     1       1.294  12.973  19.698  0.00  0.00    +0.000 A 
ATOM     25  C   UNL     1       2.197  13.374  20.696  0.00  0.00    +0.000 A 
ATOM     26  C   UNL     1       3.355  14.088  20.372  0.00  0.00    +0.000 A 
ATOM     27  C   UNL     1       3.645  14.405  19.039  0.00  0.00    +0.000 A 
ATOM     28  C   UNL     1       2.728  14.038  18.045  0.00  0.00    +0.000 A 
ATOM     29  C   UNL     1       1.568  13.329  18.370  0.00  0.00    +0.000 A 
BRANCH  27  30
ATOM     30  C   UNL     1       4.910  15.141  18.681  0.00  0.00    +0.000 C 
ATOM     31  F   UNL     1       5.924  14.926  19.567  0.00  0.00    +0.000 F 
ATOM     32  F   UNL     1       5.408  14.786  17.463  0.00  0.00    +0.000 F 
ENDBRANCH  27  30
ENDBRANCH  23  24
ENDBRANCH   6  23
TORSDOF 6
ENDMDL
MODEL 7
REMARK VINA RESULT:      -8.0      2.104      2.584
REMARK  Name = 
REMARK  6 active torsions:
REMARK  status: ('A' for Active; 'I' for Inactive)
REMARK    1  A    between atoms: C_3  and  N_4
REMARK    2  A    between atoms: C_7  and  C_8
REMARK    3  A    between atoms: C_11  and  O_12
REMARK    4  A    between atoms: N_21  and  C_22
REMARK    5  A    between atoms: C_22  and  C_23
REMARK    6  A    between atoms: C_26  and  C_27
REMARK                            x       y       z     vdW  Elec       q    Type
REMARK                         _______ _______ _______ _____ _____    ______ ____
ROOT
ATOM      1  O   UNL     1       1.375  10.466  18.804  0.00  0.00    +0.000 OA
ATOM      2  C   UNL     1       1.015   9.946  19.850  0.00  0.00    +0.000 C 
ATOM      3  C   UNL     1       0.937   8.443  20.145  0.00  0.00    +0.000 C 
ATOM      4  C   UNL     1       0.696   8.378  21.654  0.00  0.00    +0.000 C 
ATOM      5  C   UNL     1       0.079   9.718  21.995  0.00  0.00    +0.000 C 
ATOM      6  N   UNL     1       0.596  10.611  20.993  0.00  0.00    +0.000 N 
ENDROOT
BRANCH   3   7
ATOM      7  N   UNL     1       2.111   7.699  19.671  0.00  0.00    +0.000 NA
ATOM      8  C   UNL     1       2.143   7.510  18.224  0.00  0.00    +0.000 C 
ATOM      9  C   UNL     1       1.818   6.102  17.736  0.00  0.00    +0.000 C 
ATOM     10  C   UNL     1       2.550   4.990  18.498  0.00  0.00    +0.000 C 
ATOM     11  C   UNL     1       2.328   5.147  20.000  0.00  0.00    +0.000 C 
ATOM     12  F   UNL     1       1.037   4.785  20.274  0.00  0.00    +0.000 F 
ATOM     13  C   UNL     1       2.552   6.575  20.513  0.00  0.00    +0.000 C 
BRANCH  10  14
ATOM     14  C   UNL     1       4.019   4.833  18.134  0.00  0.00    +0.000 A 
ATOM     15  C   UNL     1       4.442   4.370  16.877  0.00  0.00    +0.000 A 
ATOM     16  C   UNL     1       5.799   4.239  16.562  0.00  0.00    +0.000 A 
ATOM     17  C   UNL     1       6.752   4.592  17.502  0.00  0.00    +0.000 A 
ATOM     18  C   UNL     1       6.355   5.069  18.748  0.00  0.00    +0.000 A 
ATOM     19  F   UNL     1       7.268   5.431  19.660  0.00  0.00    +0.000 F 
ATOM     20  C   UNL     1       5.003   5.189  19.067  0.00  0.00    +0.000 A 
BRANCH  17  21
ATOM     21  O   UNL     1       8.082   4.481  17.213  0.00  0.00    +0.000 OA
ATOM     22  H   UNL     1       8.592   4.696  18.011  0.00  0.00    +0.000 HD
ENDBRANCH  17  21
ENDBRANCH  10  14
ENDBRANCH   3   7
BRANCH   6  23
ATOM     23  C   UNL     1       0.438  12.045  21.065  0.00  0.00    +0.000 C 
BRANCH  23  24
ATOM     24  C   UNL     1      -0.944  12.483  21.499  0.00  0.00    +0.000 A 
ATOM     25  C   UNL     1      -2.023  12.479  20.601  0.00  0.00    +0.000 A 
ATOM     26  C   UNL     1      -3.323  12.752  21.040  0.00  0.00    +0.000 A 
ATOM     27  C   UNL     1      -3.576  13.018  22.391  0.00  0.00    +0.000 A 
ATOM     28  C   UNL     1      -2.496  13.058  23.283  0.00  0.00    +0.000 A 
ATOM     29  C   UNL     1      -1.196  12.791  22.842  0.00  0.00    +0.000 A 
BRANCH  27  30
ATOM     30  C   UNL     1      -4.979  13.274  22.876  0.00  0.00    +0.000 C 
ATOM     31  F   UNL     1      -5.229  14.592  23.121  0.00  0.00    +0.000 F 
ATOM     32  F   UNL     1      -5.932  12.883  21.983  0.00  0.00    +0.000 F 
ENDBRANCH  27  30
ENDBRANCH  23  24
ENDBRANCH   6  23
TORSDOF 6
ENDMDL
MODEL 8
REMARK VINA RESULT:      -8.0      5.768      7.436
REMARK  Name = 
REMARK  6 active torsions:
REMARK  status: ('A' for Active; 'I' for Inactive)
REMARK    1  A    between atoms: C_3  and  N_4
REMARK    2  A    between atoms: C_7  and  C_8
REMARK    3  A    between atoms: C_11  and  O_12
REMARK    4  A    between atoms: N_21  and  C_22
REMARK    5  A    between atoms: C_22  and  C_23
REMARK    6  A    between atoms: C_26  and  C_27
REMARK                            x       y       z     vdW  Elec       q    Type
REMARK                         _______ _______ _______ _____ _____    ______ ____
ROOT
ATOM      1  O   UNL     1       1.379  12.389  21.491  0.00  0.00    +0.000 OA
ATOM      2  C   UNL     1       0.984  13.183  20.651  0.00  0.00    +0.000 C 
ATOM      3  C   UNL     1       1.748  14.395  20.105  0.00  0.00    +0.000 C 
ATOM      4  C   UNL     1       0.906  14.852  18.912  0.00  0.00    +0.000 C 
ATOM      5  C   UNL     1      -0.481  14.321  19.205  0.00  0.00    +0.000 C 
ATOM      6  N   UNL     1      -0.250  13.156  20.015  0.00  0.00    +0.000 N 
ENDROOT
BRANCH   3   7
ATOM      7  N   UNL     1       3.153  14.100  19.796  0.00  0.00    +0.000 NA
ATOM      8  C   UNL     1       4.102  14.745  20.698  0.00  0.00    +0.000 C 
ATOM      9  C   UNL     1       4.862  15.933  20.115  0.00  0.00    +0.000 C 
ATOM     10  C   UNL     1       5.445  15.680  18.719  0.00  0.00    +0.000 C 
ATOM     11  C   UNL     1       4.356  15.172  17.778  0.00  0.00    +0.000 C 
ATOM     12  F   UNL     1       3.532  16.224  17.482  0.00  0.00    +0.000 F 
ATOM     13  C   UNL     1       3.506  14.040  18.368  0.00  0.00    +0.000 C 
BRANCH  10  14
ATOM     14  C   UNL     1       6.691  14.807  18.701  0.00  0.00    +0.000 A 
ATOM     15  C   UNL     1       7.034  14.000  17.604  0.00  0.00    +0.000 A 
ATOM     16  C   UNL     1       8.188  13.210  17.607  0.00  0.00    +0.000 A 
ATOM     17  C   UNL     1       9.027  13.236  18.708  0.00  0.00    +0.000 A 
ATOM     18  C   UNL     1       8.715  14.042  19.799  0.00  0.00    +0.000 A 
ATOM     19  F   UNL     1       9.529  14.089  20.863  0.00  0.00    +0.000 F 
ATOM     20  C   UNL     1       7.559  14.821  19.802  0.00  0.00    +0.000 A 
BRANCH  17  21
ATOM     21  O   UNL     1      10.164  12.480  18.728  0.00  0.00    +0.000 OA
ATOM     22  H   UNL     1      10.850  12.939  18.218  0.00  0.00    +0.000 HD
ENDBRANCH  17  21
ENDBRANCH  10  14
ENDBRANCH   3   7
BRANCH   6  23
ATOM     23  C   UNL     1      -1.292  12.210  20.344  0.00  0.00    +0.000 C 
BRANCH  23  24
ATOM     24  C   UNL     1      -1.859  11.488  19.142  0.00  0.00    +0.000 A 
ATOM     25  C   UNL     1      -3.148  11.772  18.664  0.00  0.00    +0.000 A 
ATOM     26  C   UNL     1      -3.613  11.204  17.473  0.00  0.00    +0.000 A 
ATOM     27  C   UNL     1      -2.793  10.349  16.726  0.00  0.00    +0.000 A 
ATOM     28  C   UNL     1      -1.520  10.035  17.219  0.00  0.00    +0.000 A 
ATOM     29  C   UNL     1      -1.058  10.599  18.412  0.00  0.00    +0.000 A 
BRANCH  27  30
ATOM     30  C   UNL     1      -3.276   9.764  15.424  0.00  0.00    +0.000 C 
ATOM     31  F   UNL     1      -4.399  10.374  14.947  0.00  0.00    +0.000 F 
ATOM     32  F   UNL     1      -2.357   9.859  14.422  0.00  0.00    +0.000 F 
ENDBRANCH  27  30
ENDBRANCH  23  24
ENDBRANCH   6  23
TORSDOF 6
ENDMDL
MODEL 9
REMARK VINA RESULT:      -8.0      5.671      7.519
REMARK  Name = 
REMARK  6 active torsions:
REMARK  status: ('A' for Active; 'I' for Inactive)
REMARK    1  A    between atoms: C_3  and  N_4
REMARK    2  A    between atoms: C_7  and  C_8
REMARK    3  A    between atoms: C_11  and  O_12
REMARK    4  A    between atoms: N_21  and  C_22
REMARK    5  A    between atoms: C_22  and  C_23
REMARK    6  A    between atoms: C_26  and  C_27
REMARK                            x       y       z     vdW  Elec       q    Type
REMARK                         _______ _______ _______ _____ _____    ______ ____
ROOT
ATOM      1  O   UNL     1       1.695  12.221  21.285  0.00  0.00    +0.000 OA
ATOM      2  C   UNL     1       1.151  13.070  20.595  0.00  0.00    +0.000 C 
ATOM      3  C   UNL     1       1.752  14.406  20.143  0.00  0.00    +0.000 C 
ATOM      4  C   UNL     1       0.757  14.922  19.102  0.00  0.00    +0.000 C 
ATOM      5  C   UNL     1      -0.544  14.229  19.449  0.00  0.00    +0.000 C 
ATOM      6  N   UNL     1      -0.134  13.002  20.077  0.00  0.00    +0.000 N 
ENDROOT
BRANCH   3   7
ATOM      7  N   UNL     1       3.137  14.287  19.672  0.00  0.00    +0.000 NA
ATOM      8  C   UNL     1       4.119  14.888  20.570  0.00  0.00    +0.000 C 
ATOM      9  C   UNL     1       4.720  16.209  20.099  0.00  0.00    +0.000 C 
ATOM     10  C   UNL     1       5.178  16.202  18.634  0.00  0.00    +0.000 C 
ATOM     11  C   UNL     1       4.043  15.728  17.730  0.00  0.00    +0.000 C 
ATOM     12  F   UNL     1       3.113  16.730  17.663  0.00  0.00    +0.000 F 
ATOM     13  C   UNL     1       3.349  14.454  18.224  0.00  0.00    +0.000 C 
BRANCH  10  14
ATOM     14  C   UNL     1       6.481  15.458  18.381  0.00  0.00    +0.000 A 
ATOM     15  C   UNL     1       7.716  15.906  18.876  0.00  0.00    +0.000 A 
ATOM     16  C   UNL     1       8.902  15.203  18.636  0.00  0.00    +0.000 A 
ATOM     17  C   UNL     1       8.858  14.025  17.909  0.00  0.00    +0.000 A 
ATOM     18  C   UNL     1       7.642  13.555  17.423  0.00  0.00    +0.000 A 
ATOM     19  F   UNL     1       7.584  12.407  16.734  0.00  0.00    +0.000 F 
ATOM     20  C   UNL     1       6.462  14.261  17.653  0.00  0.00    +0.000 A 
BRANCH  17  21
ATOM     21  O   UNL     1      10.001  13.318  17.670  0.00  0.00    +0.000 OA
ATOM     22  H   UNL     1       9.799  12.603  17.046  0.00  0.00    +0.000 HD
ENDBRANCH  17  21
ENDBRANCH  10  14
ENDBRANCH   3   7
BRANCH   6  23
ATOM     23  C   UNL     1      -1.055  11.928  20.374  0.00  0.00    +0.000 C 
BRANCH  23  24
ATOM     24  C   UNL     1      -1.681  11.308  19.145  0.00  0.00    +0.000 A 
ATOM     25  C   UNL     1      -2.893  11.789  18.624  0.00  0.00    +0.000 A 
ATOM     26  C   UNL     1      -3.397  11.305  17.412  0.00  0.00    +0.000 A 
ATOM     27  C   UNL     1      -2.691  10.338  16.685  0.00  0.00    +0.000 A 
ATOM     28  C   UNL     1      -1.500   9.829  17.219  0.00  0.00    +0.000 A 
ATOM     29  C   UNL     1      -1.000  10.310  18.434  0.00  0.00    +0.000 A 
BRANCH  27  30
ATOM     30  C   UNL     1      -3.211   9.841  15.361  0.00  0.00    +0.000 C 
ATOM     31  F   UNL     1      -4.441  10.337  15.048  0.00  0.00    +0.000 F 
ATOM     32  F   UNL     1      -2.406  10.175  14.313  0.00  0.00    +0.000 F 
ENDBRANCH  27  30
ENDBRANCH  23  24
ENDBRANCH   6  23
TORSDOF 6
ENDMDL
