MODEL 1
REMARK VINA RESULT:      -7.8      0.000      0.000
REMARK  Name = 
REMARK  4 active torsions:
REMARK  status: ('A' for Active; 'I' for Inactive)
REMARK    1  A    between atoms: C_1  and  C_2
REMARK    2  A    between atoms: C_5  and  O_6
REMARK    3  A    between atoms: N_7  and  C_8
REMARK    4  A    between atoms: C_12  and  C_13
REMARK                            x       y       z     vdW  Elec       q    Type
REMARK                         _______ _______ _______ _____ _____    ______ ____
ROOT
ATOM      1  C   UNL     1       4.441   4.740  17.846  0.00  0.00    +0.000 A 
ATOM      2  C   UNL     1       3.784   5.975  17.756  0.00  0.00    +0.000 A 
ATOM      3  C   UNL     1       2.426   6.081  18.068  0.00  0.00    +0.000 A 
ATOM      4  C   UNL     1       1.717   4.959  18.495  0.00  0.00    +0.000 A 
ATOM      5  C   UNL     1       2.358   3.716  18.603  0.00  0.00    +0.000 A 
ATOM      6  C   UNL     1       3.719   3.613  18.258  0.00  0.00    +0.000 A 
ENDROOT
BRANCH   1  12
ATOM      7  C   UNL     1       5.909   4.117  15.081  0.00  0.00    +0.000 C 
ATOM      8  C   UNL     1       6.510   4.299  16.423  0.00  0.00    +0.000 A 
ATOM      9  N   UNL     1       7.812   4.271  16.657  0.00  0.00    +0.000 NA
ATOM     10  N   UNL     1       8.029   4.632  17.957  0.00  0.00    +0.000 NA
ATOM     11  C   UNL     1       6.861   4.874  18.492  0.00  0.00    +0.000 A 
ATOM     12  N   UNL     1       5.838   4.654  17.589  0.00  0.00    +0.000 N 
BRANCH  11  13
ATOM     13  O   UNL     1       6.725   5.171  19.773  0.00  0.00    +0.000 OA
ATOM     14  H   UNL     1       6.263   6.028  19.735  0.00  0.00    +0.000 HD
ENDBRANCH  11  13
ENDBRANCH   1  12
BRANCH   5  15
ATOM     15  C   UNL     1       1.627   2.501  19.121  0.00  0.00    +0.000 C 
ATOM     16  F   UNL     1       1.338   2.558  20.449  0.00  0.00    +0.000 F 
ATOM     17  F   UNL     1       0.440   2.304  18.485  0.00  0.00    +0.000 F 
ATOM     18  F   UNL     1       2.341   1.355  18.940  0.00  0.00    +0.000 F 
ENDBRANCH   5  15
TORSDOF 3
ENDMDL
MODEL 2
REMARK VINA RESULT:      -7.4      1.166      1.271
REMARK  Name = 
REMARK  4 active torsions:
REMARK  status: ('A' for Active; 'I' for Inactive)
REMARK    1  A    between atoms: C_1  and  C_2
REMARK    2  A    between atoms: C_5  and  O_6
REMARK    3  A    between atoms: N_7  and  C_8
REMARK    4  A    between atoms: C_12  and  C_13
REMARK                            x       y       z     vdW  Elec       q    Type
REMARK                         _______ _______ _______ _____ _____    ______ ____
ROOT
ATOM      1  C   UNL     1       4.628   5.224  18.350  0.00  0.00    +0.000 A 
ATOM      2  C   UNL     1       4.020   6.434  17.986  0.00  0.00    +0.000 A 
ATOM      3  C   UNL     1       2.744   6.756  18.454  0.00  0.00    +0.000 A 
ATOM      4  C   UNL     1       2.071   5.884  19.309  0.00  0.00    +0.000 A 
ATOM      5  C   UNL     1       2.665   4.674  19.696  0.00  0.00    +0.000 A 
ATOM      6  C   UNL     1       3.940   4.344  19.196  0.00  0.00    +0.000 A 
ENDROOT
BRANCH   1  12
ATOM      7  C   UNL     1       5.617   4.315  15.455  0.00  0.00    +0.000 C 
ATOM      8  C   UNL     1       6.410   4.451  16.699  0.00  0.00    +0.000 A 
ATOM      9  N   UNL     1       7.715   4.246  16.767  0.00  0.00    +0.000 NA
ATOM     10  N   UNL     1       8.150   4.610  18.009  0.00  0.00    +0.000 NA
ATOM     11  C   UNL     1       7.107   5.032  18.676  0.00  0.00    +0.000 A 
ATOM     12  N   UNL     1       5.953   4.932  17.922  0.00  0.00    +0.000 N 
BRANCH  11  13
ATOM     13  O   UNL     1       7.185   5.385  19.948  0.00  0.00    +0.000 OA
ATOM     14  H   UNL     1       7.908   4.819  20.272  0.00  0.00    +0.000 HD
ENDBRANCH  11  13
ENDBRANCH   1  12
BRANCH   5  15
ATOM     15  C   UNL     1       1.983   3.742  20.668  0.00  0.00    +0.000 C 
ATOM     16  F   UNL     1       2.329   3.955  21.967  0.00  0.00    +0.000 F 
ATOM     17  F   UNL     1       0.627   3.847  20.616  0.00  0.00    +0.000 F 
ATOM     18  F   UNL     1       2.266   2.435  20.413  0.00  0.00    +0.000 F 
ENDBRANCH   5  15
TORSDOF 3
ENDMDL
MODEL 3
REMARK VINA RESULT:      -7.4      1.960      2.394
REMARK  Name = 
REMARK  4 active torsions:
REMARK  status: ('A' for Active; 'I' for Inactive)
REMARK    1  A    between atoms: C_1  and  C_2
REMARK    2  A    between atoms: C_5  and  O_6
REMARK    3  A    between atoms: N_7  and  C_8
REMARK    4  A    between atoms: C_12  and  C_13
REMARK                            x       y       z     vdW  Elec       q    Type
REMARK                         _______ _______ _______ _____ _____    ______ ____
ROOT
ATOM      1  C   UNL     1       4.789   4.718  18.379  0.00  0.00    +0.000 A 
ATOM      2  C   UNL     1       4.558   3.595  17.571  0.00  0.00    +0.000 A 
ATOM      3  C   UNL     1       3.474   2.751  17.821  0.00  0.00    +0.000 A 
ATOM      4  C   UNL     1       2.596   3.032  18.868  0.00  0.00    +0.000 A 
ATOM      5  C   UNL     1       2.801   4.156  19.681  0.00  0.00    +0.000 A 
ATOM      6  C   UNL     1       3.913   4.985  19.438  0.00  0.00    +0.000 A 
ENDROOT
BRANCH   1  12
ATOM      7  C   UNL     1       5.088   6.668  15.870  0.00  0.00    +0.000 C 
ATOM      8  C   UNL     1       6.063   6.404  16.954  0.00  0.00    +0.000 A 
ATOM      9  N   UNL     1       7.234   7.012  17.056  0.00  0.00    +0.000 NA
ATOM     10  N   UNL     1       7.807   6.660  18.245  0.00  0.00    +0.000 NA
ATOM     11  C   UNL     1       6.978   5.847  18.848  0.00  0.00    +0.000 A 
ATOM     12  N   UNL     1       5.857   5.608  18.077  0.00  0.00    +0.000 N 
BRANCH  11  13
ATOM     13  O   UNL     1       7.280   5.263  19.994  0.00  0.00    +0.000 OA
ATOM     14  H   UNL     1       8.042   4.709  19.747  0.00  0.00    +0.000 HD
ENDBRANCH  11  13
ENDBRANCH   1  12
BRANCH   5  15
ATOM     15  C   UNL     1       1.830   4.515  20.780  0.00  0.00    +0.000 C 
ATOM     16  F   UNL     1       1.736   5.852  21.015  0.00  0.00    +0.000 F 
ATOM     17  F   UNL     1       0.566   4.089  20.510  0.00  0.00    +0.000 F 
ATOM     18  F   UNL     1       2.169   3.947  21.971  0.00  0.00    +0.000 F 
ENDBRANCH   5  15
TORSDOF 3
ENDMDL
MODEL 4
REMARK VINA RESULT:      -7.3      4.139      5.426
REMARK  Name = 
REMARK  4 active torsions:
REMARK  status: ('A' for Active; 'I' for Inactive)
REMARK    1  A    between atoms: C_1  and  C_2
REMARK    2  A    between atoms: C_5  and  O_6
REMARK    3  A    between atoms: N_7  and  C_8
REMARK    4  A    between atoms: C_12  and  C_13
REMARK                            x       y       z     vdW  Elec       q    Type
REMARK                         _______ _______ _______ _____ _____    ______ ____
ROOT
ATOM      1  C   UNL     1       3.876   4.900  18.895  0.00  0.00    +0.000 A 
ATOM      2  C   UNL     1       3.430   5.643  17.793  0.00  0.00    +0.000 A 
ATOM      3  C   UNL     1       4.320   6.430  17.060  0.00  0.00    +0.000 A 
ATOM      4  C   UNL     1       5.671   6.466  17.406  0.00  0.00    +0.000 A 
ATOM      5  C   UNL     1       6.141   5.721  18.497  0.00  0.00    +0.000 A 
ATOM      6  C   UNL     1       5.231   4.954  19.248  0.00  0.00    +0.000 A 
ENDROOT
BRANCH   1  12
ATOM      7  C   UNL     1       3.298   1.799  18.409  0.00  0.00    +0.000 C 
ATOM      8  C   UNL     1       2.633   2.723  19.357  0.00  0.00    +0.000 A 
ATOM      9  N   UNL     1       1.690   2.352  20.208  0.00  0.00    +0.000 NA
ATOM     10  N   UNL     1       1.413   3.402  21.037  0.00  0.00    +0.000 NA
ATOM     11  C   UNL     1       2.190   4.392  20.681  0.00  0.00    +0.000 A 
ATOM     12  N   UNL     1       2.976   4.050  19.597  0.00  0.00    +0.000 N 
BRANCH  11  13
ATOM     13  O   UNL     1       2.107   5.585  21.244  0.00  0.00    +0.000 OA
ATOM     14  H   UNL     1       2.007   6.169  20.470  0.00  0.00    +0.000 HD
ENDBRANCH  11  13
ENDBRANCH   1  12
BRANCH   5  15
ATOM     15  C   UNL     1       7.608   5.695  18.854  0.00  0.00    +0.000 C 
ATOM     16  F   UNL     1       8.284   6.815  18.479  0.00  0.00    +0.000 F 
ATOM     17  F   UNL     1       7.810   5.563  20.193  0.00  0.00    +0.000 F 
ATOM     18  F   UNL     1       8.260   4.650  18.274  0.00  0.00    +0.000 F 
ENDBRANCH   5  15
TORSDOF 3
ENDMDL
MODEL 5
REMARK VINA RESULT:      -7.3      1.018      1.495
REMARK  Name = 
REMARK  4 active torsions:
REMARK  status: ('A' for Active; 'I' for Inactive)
REMARK    1  A    between atoms: C_1  and  C_2
REMARK    2  A    between atoms: C_5  and  O_6
REMARK    3  A    between atoms: N_7  and  C_8
REMARK    4  A    between atoms: C_12  and  C_13
REMARK                            x       y       z     vdW  Elec       q    Type
REMARK                         _______ _______ _______ _____ _____    ______ ____
ROOT
ATOM      1  C   UNL     1       4.612   4.888  18.326  0.00  0.00    +0.000 A 
ATOM      2  C   UNL     1       3.835   5.971  17.891  0.00  0.00    +0.000 A 
ATOM      3  C   UNL     1       2.529   6.141  18.357  0.00  0.00    +0.000 A 
ATOM      4  C   UNL     1       1.994   5.242  19.280  0.00  0.00    +0.000 A 
ATOM      5  C   UNL     1       2.758   4.159  19.737  0.00  0.00    +0.000 A 
ATOM      6  C   UNL     1       4.063   3.980  19.240  0.00  0.00    +0.000 A 
ENDROOT
BRANCH   1  12
ATOM      7  C   UNL     1       5.702   4.111  15.428  0.00  0.00    +0.000 C 
ATOM      8  C   UNL     1       6.473   4.339  16.673  0.00  0.00    +0.000 A 
ATOM      9  N   UNL     1       7.794   4.293  16.739  0.00  0.00    +0.000 NA
ATOM     10  N   UNL     1       8.183   4.705  17.982  0.00  0.00    +0.000 NA
ATOM     11  C   UNL     1       7.097   4.997  18.650  0.00  0.00    +0.000 A 
ATOM     12  N   UNL     1       5.963   4.760  17.897  0.00  0.00    +0.000 N 
BRANCH  11  13
ATOM     13  O   UNL     1       7.132   5.354  19.922  0.00  0.00    +0.000 OA
ATOM     14  H   UNL     1       7.483   6.261  19.870  0.00  0.00    +0.000 HD
ENDBRANCH  11  13
ENDBRANCH   1  12
BRANCH   5  15
ATOM     15  C   UNL     1       2.223   3.209  20.781  0.00  0.00    +0.000 C 
ATOM     16  F   UNL     1       1.100   2.544  20.395  0.00  0.00    +0.000 F 
ATOM     17  F   UNL     1       3.130   2.252  21.120  0.00  0.00    +0.000 F 
ATOM     18  F   UNL     1       1.902   3.846  21.941  0.00  0.00    +0.000 F 
ENDBRANCH   5  15
TORSDOF 3
ENDMDL
MODEL 6
REMARK VINA RESULT:      -7.2      3.682      5.344
REMARK  Name = 
REMARK  4 active torsions:
REMARK  status: ('A' for Active; 'I' for Inactive)
REMARK    1  A    between atoms: C_1  and  C_2
REMARK    2  A    between atoms: C_5  and  O_6
REMARK    3  A    between atoms: N_7  and  C_8
REMARK    4  A    between atoms: C_12  and  C_13
REMARK                            x       y       z     vdW  Elec       q    Type
REMARK                         _______ _______ _______ _____ _____    ______ ____
ROOT
ATOM      1  C   UNL     1       5.321   4.533  18.696  0.00  0.00    +0.000 A 
ATOM      2  C   UNL     1       6.307   5.341  19.280  0.00  0.00    +0.000 A 
ATOM      3  C   UNL     1       7.324   5.895  18.499  0.00  0.00    +0.000 A 
ATOM      4  C   UNL     1       7.354   5.667  17.124  0.00  0.00    +0.000 A 
ATOM      5  C   UNL     1       6.371   4.871  16.517  0.00  0.00    +0.000 A 
ATOM      6  C   UNL     1       5.366   4.293  17.317  0.00  0.00    +0.000 A 
ENDROOT
BRANCH   1  12
ATOM      7  C   UNL     1       2.625   6.008  19.558  0.00  0.00    +0.000 C 
ATOM      8  C   UNL     1       3.108   4.665  19.955  0.00  0.00    +0.000 A 
ATOM      9  N   UNL     1       2.425   3.835  20.726  0.00  0.00    +0.000 NA
ATOM     10  N   UNL     1       3.077   2.635  20.761  0.00  0.00    +0.000 NA
ATOM     11  C   UNL     1       4.142   2.752  20.011  0.00  0.00    +0.000 A 
ATOM     12  N   UNL     1       4.252   4.026  19.487  0.00  0.00    +0.000 N 
BRANCH  11  13
ATOM     13  O   UNL     1       5.032   1.780  19.902  0.00  0.00    +0.000 OA
ATOM     14  H   UNL     1       4.811   1.399  19.033  0.00  0.00    +0.000 HD
ENDBRANCH  11  13
ENDBRANCH   1  12
BRANCH   5  15
ATOM     15  C   UNL     1       6.346   4.660  15.023  0.00  0.00    +0.000 C 
ATOM     16  F   UNL     1       5.308   5.278  14.397  0.00  0.00    +0.000 F 
ATOM     17  F   UNL     1       7.477   5.118  14.420  0.00  0.00    +0.000 F 
ATOM     18  F   UNL     1       6.255   3.343  14.691  0.00  0.00    +0.000 F 
ENDBRANCH   5  15
TORSDOF 3
ENDMDL
MODEL 7
REMARK VINA RESULT:      -7.2      2.789      3.403
REMARK  Name = 
REMARK  4 active torsions:
REMARK  status: ('A' for Active; 'I' for Inactive)
REMARK    1  A    between atoms: C_1  and  C_2
REMARK    2  A    between atoms: C_5  and  O_6
REMARK    3  A    between atoms: N_7  and  C_8
REMARK    4  A    between atoms: C_12  and  C_13
REMARK                            x       y       z     vdW  Elec       q    Type
REMARK                         _______ _______ _______ _____ _____    ______ ____
ROOT
ATOM      1  C   UNL     1       4.503   5.094  17.511  0.00  0.00    +0.000 A 
ATOM      2  C   UNL     1       3.587   4.032  17.517  0.00  0.00    +0.000 A 
ATOM      3  C   UNL     1       2.239   4.260  17.800  0.00  0.00    +0.000 A 
ATOM      4  C   UNL     1       1.787   5.554  18.058  0.00  0.00    +0.000 A 
ATOM      5  C   UNL     1       2.684   6.632  18.046  0.00  0.00    +0.000 A 
ATOM      6  C   UNL     1       4.046   6.388  17.788  0.00  0.00    +0.000 A 
ENDROOT
BRANCH   1  12
ATOM      7  C   UNL     1       5.765   4.796  14.594  0.00  0.00    +0.000 C 
ATOM      8  C   UNL     1       6.433   4.640  15.908  0.00  0.00    +0.000 A 
ATOM      9  N   UNL     1       7.724   4.388  16.052  0.00  0.00    +0.000 NA
ATOM     10  N   UNL     1       8.038   4.467  17.380  0.00  0.00    +0.000 NA
ATOM     11  C   UNL     1       6.937   4.767  18.020  0.00  0.00    +0.000 A 
ATOM     12  N   UNL     1       5.862   4.863  17.157  0.00  0.00    +0.000 N 
BRANCH  11  13
ATOM     13  O   UNL     1       6.892   4.838  19.339  0.00  0.00    +0.000 OA
ATOM     14  H   UNL     1       7.658   5.405  19.539  0.00  0.00    +0.000 HD
ENDBRANCH  11  13
ENDBRANCH   1  12
BRANCH   5  15
ATOM     15  C   UNL     1       2.209   8.048  18.262  0.00  0.00    +0.000 C 
ATOM     16  F   UNL     1       3.137   8.993  17.949  0.00  0.00    +0.000 F 
ATOM     17  F   UNL     1       1.107   8.341  17.518  0.00  0.00    +0.000 F 
ATOM     18  F   UNL     1       1.857   8.281  19.556  0.00  0.00    +0.000 F 
ENDBRANCH   5  15
TORSDOF 3
ENDMDL
MODEL 8
REMARK VINA RESULT:      -7.2      1.877      2.650
REMARK  Name = 
REMARK  4 active torsions:
REMARK  status: ('A' for Active; 'I' for Inactive)
REMARK    1  A    between atoms: C_1  and  C_2
REMARK    2  A    between atoms: C_5  and  O_6
REMARK    3  A    between atoms: N_7  and  C_8
REMARK    4  A    between atoms: C_12  and  C_13
REMARK                            x       y       z     vdW  Elec       q    Type
REMARK                         _______ _______ _______ _____ _____    ______ ____
ROOT
ATOM      1  C   UNL     1       4.169   4.354  18.126  0.00  0.00    +0.000 A 
ATOM      2  C   UNL     1       3.565   3.564  17.137  0.00  0.00    +0.000 A 
ATOM      3  C   UNL     1       2.558   2.656  17.471  0.00  0.00    +0.000 A 
ATOM      4  C   UNL     1       2.128   2.543  18.793  0.00  0.00    +0.000 A 
ATOM      5  C   UNL     1       2.710   3.332  19.796  0.00  0.00    +0.000 A 
ATOM      6  C   UNL     1       3.745   4.224  19.454  0.00  0.00    +0.000 A 
ENDROOT
BRANCH   1  12
ATOM      7  C   UNL     1       3.729   7.423  17.365  0.00  0.00    +0.000 C 
ATOM      8  C   UNL     1       4.987   6.639  17.345  0.00  0.00    +0.000 A 
ATOM      9  N   UNL     1       6.168   7.150  17.037  0.00  0.00    +0.000 NA
ATOM     10  N   UNL     1       7.127   6.205  17.273  0.00  0.00    +0.000 NA
ATOM     11  C   UNL     1       6.517   5.139  17.722  0.00  0.00    +0.000 A 
ATOM     12  N   UNL     1       5.148   5.323  17.767  0.00  0.00    +0.000 N 
BRANCH  11  13
ATOM     13  O   UNL     1       7.165   4.014  17.971  0.00  0.00    +0.000 OA
ATOM     14  H   UNL     1       8.047   4.202  17.604  0.00  0.00    +0.000 HD
ENDBRANCH  11  13
ENDBRANCH   1  12
BRANCH   5  15
ATOM     15  C   UNL     1       2.220   3.273  21.223  0.00  0.00    +0.000 C 
ATOM     16  F   UNL     1       2.855   2.340  21.983  0.00  0.00    +0.000 F 
ATOM     17  F   UNL     1       2.378   4.459  21.871  0.00  0.00    +0.000 F 
ATOM     18  F   UNL     1       0.893   2.980  21.299  0.00  0.00    +0.000 F 
ENDBRANCH   5  15
TORSDOF 3
ENDMDL
MODEL 9
REMARK VINA RESULT:      -7.1      1.859      2.494
REMARK  Name = 
REMARK  4 active torsions:
REMARK  status: ('A' for Active; 'I' for Inactive)
REMARK    1  A    between atoms: C_1  and  C_2
REMARK    2  A    between atoms: C_5  and  O_6
REMARK    3  A    between atoms: N_7  and  C_8
REMARK    4  A    between atoms: C_12  and  C_13
REMARK                            x       y       z     vdW  Elec       q    Type
REMARK                         _______ _______ _______ _____ _____    ______ ____
ROOT
ATOM      1  C   UNL     1       4.457   5.110  17.073  0.00  0.00    +0.000 A 
ATOM      2  C   UNL     1       3.675   6.215  17.437  0.00  0.00    +0.000 A 
ATOM      3  C   UNL     1       2.497   6.041  18.168  0.00  0.00    +0.000 A 
ATOM      4  C   UNL     1       2.101   4.763  18.562  0.00  0.00    +0.000 A 
ATOM      5  C   UNL     1       2.875   3.645  18.219  0.00  0.00    +0.000 A 
ATOM      6  C   UNL     1       4.044   3.828  17.457  0.00  0.00    +0.000 A 
ENDROOT
BRANCH   1  12
ATOM      7  C   UNL     1       7.171   6.366  18.187  0.00  0.00    +0.000 C 
ATOM      8  C   UNL     1       6.858   5.923  16.808  0.00  0.00    +0.000 A 
ATOM      9  N   UNL     1       7.728   5.949  15.811  0.00  0.00    +0.000 NA
ATOM     10  N   UNL     1       7.171   5.326  14.730  0.00  0.00    +0.000 NA
ATOM     11  C   UNL     1       5.976   4.931  15.085  0.00  0.00    +0.000 A 
ATOM     12  N   UNL     1       5.688   5.301  16.385  0.00  0.00    +0.000 N 
BRANCH  11  13
ATOM     13  O   UNL     1       5.144   4.360  14.230  0.00  0.00    +0.000 OA
ATOM     14  H   UNL     1       5.754   4.003  13.560  0.00  0.00    +0.000 HD
ENDBRANCH  11  13
ENDBRANCH   1  12
BRANCH   5  15
ATOM     15  C   UNL     1       2.499   2.259  18.686  0.00  0.00    +0.000 C 
ATOM     16  F   UNL     1       3.252   1.270  18.132  0.00  0.00    +0.000 F 
ATOM     17  F   UNL     1       2.625   2.119  20.035  0.00  0.00    +0.000 F 
ATOM     18  F   UNL     1       1.204   1.953  18.399  0.00  0.00    +0.000 F 
ENDBRANCH   5  15
TORSDOF 3
ENDMDL
