MODEL 1
REMARK VINA RESULT:      -8.1      0.000      0.000
REMARK  Name = 
REMARK  4 active torsions:
REMARK  status: ('A' for Active; 'I' for Inactive)
REMARK    1  A    between atoms: C_2  and  C_3
REMARK    2  A    between atoms: C_3  and  N_4
REMARK    3  A    between atoms: C_6  and  C_7
REMARK    4  A    between atoms: C_7  and  C_8
REMARK                            x       y       z     vdW  Elec       q    Type
REMARK                         _______ _______ _______ _____ _____    ______ ____
ROOT
ATOM      1  N   UNL     1       5.807   5.144  16.326  0.00  0.00    +0.000 N 
ATOM      2  N   UNL     1       5.664   4.267  17.374  0.00  0.00    +0.000 NA
ATOM      3  C   UNL     1       4.812   4.529  18.319  0.00  0.00    +0.000 A 
ATOM      4  C   UNL     1       3.996   5.766  18.349  0.00  0.00    +0.000 A 
ATOM      5  C   UNL     1       3.112   6.088  19.388  0.00  0.00    +0.000 A 
ATOM      6  C   UNL     1       2.404   7.292  19.357  0.00  0.00    +0.000 A 
ATOM      7  C   UNL     1       2.558   8.172  18.289  0.00  0.00    +0.000 A 
ATOM      8  C   UNL     1       3.423   7.847  17.246  0.00  0.00    +0.000 A 
ATOM      9  C   UNL     1       4.145   6.646  17.281  0.00  0.00    +0.000 A 
ATOM     10  C   UNL     1       5.075   6.317  16.185  0.00  0.00    +0.000 A 
ATOM     11  O   UNL     1       5.159   7.077  15.222  0.00  0.00    +0.000 OA
ENDROOT
BRANCH   1  12
ATOM     12  C   UNL     1       6.780   4.775  15.305  0.00  0.00    +0.000 C 
BRANCH  12  14
ATOM     13  C   UNL     1       6.469   3.845  12.988  0.00  0.00    +0.000 C 
ATOM     14  C   UNL     1       6.103   3.915  14.274  0.00  0.00    +0.000 C 
ENDBRANCH  12  14
ENDBRANCH   1  12
BRANCH   3  15
ATOM     15  C   UNL     1       4.643   3.468  19.403  0.00  0.00    +0.000 C 
BRANCH  15  16
ATOM     16  C   UNL     1       3.190   3.139  19.703  0.00  0.00    +0.000 A 
ATOM     17  C   UNL     1       2.689   3.305  21.010  0.00  0.00    +0.000 A 
ATOM     18  C   UNL     1       1.360   3.016  21.323  0.00  0.00    +0.000 A 
ATOM     19  C   UNL     1       0.491   2.581  20.328  0.00  0.00    +0.000 A 
ATOM     20  C   UNL     1       0.951   2.455  19.018  0.00  0.00    +0.000 A 
ATOM     21  C   UNL     1       2.286   2.739  18.704  0.00  0.00    +0.000 A 
ATOM     22 CL   UNL     1       2.756   2.587  17.048  0.00  0.00    +0.000 Cl
ENDBRANCH  15  16
ENDBRANCH   3  15
TORSDOF 4
ENDMDL
MODEL 2
REMARK VINA RESULT:      -8.1      1.175      1.589
REMARK  Name = 
REMARK  4 active torsions:
REMARK  status: ('A' for Active; 'I' for Inactive)
REMARK    1  A    between atoms: C_2  and  C_3
REMARK    2  A    between atoms: C_3  and  N_4
REMARK    3  A    between atoms: C_6  and  C_7
REMARK    4  A    between atoms: C_7  and  C_8
REMARK                            x       y       z     vdW  Elec       q    Type
REMARK                         _______ _______ _______ _____ _____    ______ ____
ROOT
ATOM      1  N   UNL     1       5.691   4.664  16.162  0.00  0.00    +0.000 N 
ATOM      2  N   UNL     1       4.866   3.645  16.572  0.00  0.00    +0.000 NA
ATOM      3  C   UNL     1       3.766   3.925  17.205  0.00  0.00    +0.000 A 
ATOM      4  C   UNL     1       3.364   5.309  17.548  0.00  0.00    +0.000 A 
ATOM      5  C   UNL     1       2.208   5.624  18.276  0.00  0.00    +0.000 A 
ATOM      6  C   UNL     1       1.916   6.955  18.588  0.00  0.00    +0.000 A 
ATOM      7  C   UNL     1       2.761   7.978  18.164  0.00  0.00    +0.000 A 
ATOM      8  C   UNL     1       3.902   7.670  17.425  0.00  0.00    +0.000 A 
ATOM      9  C   UNL     1       4.204   6.334  17.123  0.00  0.00    +0.000 A 
ATOM     10  C   UNL     1       5.424   6.013  16.360  0.00  0.00    +0.000 A 
ATOM     11  O   UNL     1       6.130   6.930  15.944  0.00  0.00    +0.000 OA
ENDROOT
BRANCH   1  12
ATOM     12  C   UNL     1       6.902   4.266  15.454  0.00  0.00    +0.000 C 
BRANCH  12  14
ATOM     13  C   UNL     1       6.127   3.622  13.148  0.00  0.00    +0.000 C 
ATOM     14  C   UNL     1       6.706   4.496  13.981  0.00  0.00    +0.000 C 
ENDBRANCH  12  14
ENDBRANCH   1  12
BRANCH   3  15
ATOM     15  C   UNL     1       2.857   2.750  17.552  0.00  0.00    +0.000 C 
BRANCH  15  16
ATOM     16  C   UNL     1       2.361   2.774  18.988  0.00  0.00    +0.000 A 
ATOM     17  C   UNL     1       0.983   2.909  19.252  0.00  0.00    +0.000 A 
ATOM     18  C   UNL     1       0.492   2.933  20.558  0.00  0.00    +0.000 A 
ATOM     19  C   UNL     1       1.364   2.792  21.632  0.00  0.00    +0.000 A 
ATOM     20  C   UNL     1       2.725   2.609  21.394  0.00  0.00    +0.000 A 
ATOM     21  C   UNL     1       3.221   2.591  20.085  0.00  0.00    +0.000 A 
ATOM     22 CL   UNL     1       4.917   2.324  19.887  0.00  0.00    +0.000 Cl
ENDBRANCH  15  16
ENDBRANCH   3  15
TORSDOF 4
ENDMDL
MODEL 3
REMARK VINA RESULT:      -8.1      2.728      5.198
REMARK  Name = 
REMARK  4 active torsions:
REMARK  status: ('A' for Active; 'I' for Inactive)
REMARK    1  A    between atoms: C_2  and  C_3
REMARK    2  A    between atoms: C_3  and  N_4
REMARK    3  A    between atoms: C_6  and  C_7
REMARK    4  A    between atoms: C_7  and  C_8
REMARK                            x       y       z     vdW  Elec       q    Type
REMARK                         _______ _______ _______ _____ _____    ______ ____
ROOT
ATOM      1  N   UNL     1       4.341   5.801  17.443  0.00  0.00    +0.000 N 
ATOM      2  N   UNL     1       3.787   6.607  18.407  0.00  0.00    +0.000 NA
ATOM      3  C   UNL     1       2.848   6.139  19.173  0.00  0.00    +0.000 A 
ATOM      4  C   UNL     1       2.305   4.768  19.036  0.00  0.00    +0.000 A 
ATOM      5  C   UNL     1       1.256   4.266  19.820  0.00  0.00    +0.000 A 
ATOM      6  C   UNL     1       0.778   2.970  19.605  0.00  0.00    +0.000 A 
ATOM      7  C   UNL     1       1.350   2.164  18.624  0.00  0.00    +0.000 A 
ATOM      8  C   UNL     1       2.405   2.653  17.856  0.00  0.00    +0.000 A 
ATOM      9  C   UNL     1       2.876   3.957  18.060  0.00  0.00    +0.000 A 
ATOM     10  C   UNL     1       3.978   4.477  17.229  0.00  0.00    +0.000 A 
ATOM     11  O   UNL     1       4.510   3.734  16.406  0.00  0.00    +0.000 OA
ENDROOT
BRANCH   1  12
ATOM     12  C   UNL     1       5.392   6.400  16.629  0.00  0.00    +0.000 C 
BRANCH  12  14
ATOM     13  C   UNL     1       7.496   7.444  17.530  0.00  0.00    +0.000 C 
ATOM     14  C   UNL     1       6.678   6.391  17.408  0.00  0.00    +0.000 C 
ENDBRANCH  12  14
ENDBRANCH   1  12
BRANCH   3  15
ATOM     15  C   UNL     1       2.342   7.062  20.278  0.00  0.00    +0.000 C 
BRANCH  15  16
ATOM     16  C   UNL     1       1.644   8.306  19.754  0.00  0.00    +0.000 A 
ATOM     17  C   UNL     1       1.617   8.563  18.368  0.00  0.00    +0.000 A 
ATOM     18  C   UNL     1       0.984   9.693  17.850  0.00  0.00    +0.000 A 
ATOM     19  C   UNL     1       0.336  10.580  18.703  0.00  0.00    +0.000 A 
ATOM     20  C   UNL     1       0.309  10.322  20.073  0.00  0.00    +0.000 A 
ATOM     21  C   UNL     1       0.948   9.191  20.595  0.00  0.00    +0.000 A 
ATOM     22 CL   UNL     1       0.831   8.936  22.301  0.00  0.00    +0.000 Cl
ENDBRANCH  15  16
ENDBRANCH   3  15
TORSDOF 4
ENDMDL
MODEL 4
REMARK VINA RESULT:      -8.0      2.824      5.510
REMARK  Name = 
REMARK  4 active torsions:
REMARK  status: ('A' for Active; 'I' for Inactive)
REMARK    1  A    between atoms: C_2  and  C_3
REMARK    2  A    between atoms: C_3  and  N_4
REMARK    3  A    between atoms: C_6  and  C_7
REMARK    4  A    between atoms: C_7  and  C_8
REMARK                            x       y       z     vdW  Elec       q    Type
REMARK                         _______ _______ _______ _____ _____    ______ ____
ROOT
ATOM      1  N   UNL     1       2.480   4.215  18.128  0.00  0.00    +0.000 N 
ATOM      2  N   UNL     1       2.229   5.563  18.206  0.00  0.00    +0.000 NA
ATOM      3  C   UNL     1       3.172   6.410  17.920  0.00  0.00    +0.000 A 
ATOM      4  C   UNL     1       4.542   5.992  17.542  0.00  0.00    +0.000 A 
ATOM      5  C   UNL     1       5.584   6.893  17.282  0.00  0.00    +0.000 A 
ATOM      6  C   UNL     1       6.859   6.417  16.964  0.00  0.00    +0.000 A 
ATOM      7  C   UNL     1       7.100   5.047  16.887  0.00  0.00    +0.000 A 
ATOM      8  C   UNL     1       6.061   4.149  17.128  0.00  0.00    +0.000 A 
ATOM      9  C   UNL     1       4.785   4.624  17.461  0.00  0.00    +0.000 A 
ATOM     10  C   UNL     1       3.696   3.669  17.736  0.00  0.00    +0.000 A 
ATOM     11  O   UNL     1       3.909   2.465  17.609  0.00  0.00    +0.000 OA
ENDROOT
BRANCH   1  12
ATOM     12  C   UNL     1       1.368   3.333  18.460  0.00  0.00    +0.000 C 
BRANCH  12  14
ATOM     13  C   UNL     1       1.434   3.140  20.968  0.00  0.00    +0.000 C 
ATOM     14  C   UNL     1       0.894   3.646  19.852  0.00  0.00    +0.000 C 
ENDBRANCH  12  14
ENDBRANCH   1  12
BRANCH   3  15
ATOM     15  C   UNL     1       2.796   7.889  17.943  0.00  0.00    +0.000 C 
BRANCH  15  16
ATOM     16  C   UNL     1       1.945   8.276  19.141  0.00  0.00    +0.000 A 
ATOM     17  C   UNL     1       1.899   7.434  20.270  0.00  0.00    +0.000 A 
ATOM     18  C   UNL     1       1.131   7.759  21.389  0.00  0.00    +0.000 A 
ATOM     19  C   UNL     1       0.413   8.949  21.418  0.00  0.00    +0.000 A 
ATOM     20  C   UNL     1       0.481   9.821  20.332  0.00  0.00    +0.000 A 
ATOM     21  C   UNL     1       1.247   9.494  19.206  0.00  0.00    +0.000 A 
ATOM     22 CL   UNL     1       1.298  10.653  17.924  0.00  0.00    +0.000 Cl
ENDBRANCH  15  16
ENDBRANCH   3  15
TORSDOF 4
ENDMDL
MODEL 5
REMARK VINA RESULT:      -7.9      2.933      5.893
REMARK  Name = 
REMARK  4 active torsions:
REMARK  status: ('A' for Active; 'I' for Inactive)
REMARK    1  A    between atoms: C_2  and  C_3
REMARK    2  A    between atoms: C_3  and  N_4
REMARK    3  A    between atoms: C_6  and  C_7
REMARK    4  A    between atoms: C_7  and  C_8
REMARK                            x       y       z     vdW  Elec       q    Type
REMARK                         _______ _______ _______ _____ _____    ______ ____
ROOT
ATOM      1  N   UNL     1       1.785   4.020  19.078  0.00  0.00    +0.000 N 
ATOM      2  N   UNL     1       1.972   5.247  19.667  0.00  0.00    +0.000 NA
ATOM      3  C   UNL     1       2.841   6.073  19.167  0.00  0.00    +0.000 A 
ATOM      4  C   UNL     1       3.685   5.744  17.995  0.00  0.00    +0.000 A 
ATOM      5  C   UNL     1       4.664   6.604  17.477  0.00  0.00    +0.000 A 
ATOM      6  C   UNL     1       5.442   6.204  16.387  0.00  0.00    +0.000 A 
ATOM      7  C   UNL     1       5.242   4.957  15.799  0.00  0.00    +0.000 A 
ATOM      8  C   UNL     1       4.257   4.108  16.301  0.00  0.00    +0.000 A 
ATOM      9  C   UNL     1       3.485   4.501  17.403  0.00  0.00    +0.000 A 
ATOM     10  C   UNL     1       2.460   3.588  17.942  0.00  0.00    +0.000 A 
ATOM     11  O   UNL     1       2.256   2.515  17.378  0.00  0.00    +0.000 OA
ENDROOT
BRANCH   1  12
ATOM     12  C   UNL     1       0.789   3.154  19.696  0.00  0.00    +0.000 C 
BRANCH  12  14
ATOM     13  C   UNL     1       2.418   2.625  21.539  0.00  0.00    +0.000 C 
ATOM     14  C   UNL     1       1.176   2.908  21.128  0.00  0.00    +0.000 C 
ENDBRANCH  12  14
ENDBRANCH   1  12
BRANCH   3  15
ATOM     15  C   UNL     1       2.932   7.450  19.820  0.00  0.00    +0.000 C 
BRANCH  15  16
ATOM     16  C   UNL     1       1.825   8.397  19.388  0.00  0.00    +0.000 A 
ATOM     17  C   UNL     1       1.594   8.625  18.017  0.00  0.00    +0.000 A 
ATOM     18  C   UNL     1       0.585   9.486  17.582  0.00  0.00    +0.000 A 
ATOM     19  C   UNL     1      -0.238  10.117  18.509  0.00  0.00    +0.000 A 
ATOM     20  C   UNL     1      -0.059   9.869  19.870  0.00  0.00    +0.000 A 
ATOM     21  C   UNL     1       0.957   9.010  20.307  0.00  0.00    +0.000 A 
ATOM     22 CL   UNL     1       1.080   8.738  22.010  0.00  0.00    +0.000 Cl
ENDBRANCH  15  16
ENDBRANCH   3  15
TORSDOF 4
ENDMDL
MODEL 6
REMARK VINA RESULT:      -7.7      2.540      5.315
REMARK  Name = 
REMARK  4 active torsions:
REMARK  status: ('A' for Active; 'I' for Inactive)
REMARK    1  A    between atoms: C_2  and  C_3
REMARK    2  A    between atoms: C_3  and  N_4
REMARK    3  A    between atoms: C_6  and  C_7
REMARK    4  A    between atoms: C_7  and  C_8
REMARK                            x       y       z     vdW  Elec       q    Type
REMARK                         _______ _______ _______ _____ _____    ______ ____
ROOT
ATOM      1  N   UNL     1       3.527   4.341  19.461  0.00  0.00    +0.000 N 
ATOM      2  N   UNL     1       4.046   4.970  18.356  0.00  0.00    +0.000 NA
ATOM      3  C   UNL     1       3.714   6.201  18.103  0.00  0.00    +0.000 A 
ATOM      4  C   UNL     1       2.759   6.966  18.937  0.00  0.00    +0.000 A 
ATOM      5  C   UNL     1       2.351   8.275  18.647  0.00  0.00    +0.000 A 
ATOM      6  C   UNL     1       1.419   8.917  19.468  0.00  0.00    +0.000 A 
ATOM      7  C   UNL     1       0.901   8.267  20.586  0.00  0.00    +0.000 A 
ATOM      8  C   UNL     1       1.318   6.972  20.887  0.00  0.00    +0.000 A 
ATOM      9  C   UNL     1       2.243   6.322  20.057  0.00  0.00    +0.000 A 
ATOM     10  C   UNL     1       2.663   4.943  20.369  0.00  0.00    +0.000 A 
ATOM     11  O   UNL     1       2.241   4.404  21.390  0.00  0.00    +0.000 OA
ENDROOT
BRANCH   1  12
ATOM     12  C   UNL     1       3.953   2.964  19.677  0.00  0.00    +0.000 C 
BRANCH  12  14
ATOM     13  C   UNL     1       2.350   2.176  17.906  0.00  0.00    +0.000 C 
ATOM     14  C   UNL     1       3.555   2.136  18.487  0.00  0.00    +0.000 C 
ENDBRANCH  12  14
ENDBRANCH   1  12
BRANCH   3  15
ATOM     15  C   UNL     1       4.397   6.863  16.909  0.00  0.00    +0.000 C 
BRANCH  15  16
ATOM     16  C   UNL     1       5.322   5.928  16.149  0.00  0.00    +0.000 A 
ATOM     17  C   UNL     1       4.823   5.173  15.068  0.00  0.00    +0.000 A 
ATOM     18  C   UNL     1       5.643   4.306  14.345  0.00  0.00    +0.000 A 
ATOM     19  C   UNL     1       6.991   4.195  14.666  0.00  0.00    +0.000 A 
ATOM     20  C   UNL     1       7.519   4.966  15.701  0.00  0.00    +0.000 A 
ATOM     21  C   UNL     1       6.696   5.833  16.431  0.00  0.00    +0.000 A 
ATOM     22 CL   UNL     1       7.446   6.774  17.672  0.00  0.00    +0.000 Cl
ENDBRANCH  15  16
ENDBRANCH   3  15
TORSDOF 4
ENDMDL
MODEL 7
REMARK VINA RESULT:      -7.7      2.081      3.105
REMARK  Name = 
REMARK  4 active torsions:
REMARK  status: ('A' for Active; 'I' for Inactive)
REMARK    1  A    between atoms: C_2  and  C_3
REMARK    2  A    between atoms: C_3  and  N_4
REMARK    3  A    between atoms: C_6  and  C_7
REMARK    4  A    between atoms: C_7  and  C_8
REMARK                            x       y       z     vdW  Elec       q    Type
REMARK                         _______ _______ _______ _____ _____    ______ ____
ROOT
ATOM      1  N   UNL     1       6.148   4.004  14.695  0.00  0.00    +0.000 N 
ATOM      2  N   UNL     1       5.219   3.331  15.451  0.00  0.00    +0.000 NA
ATOM      3  C   UNL     1       5.114   3.591  16.720  0.00  0.00    +0.000 A 
ATOM      4  C   UNL     1       5.985   4.567  17.417  0.00  0.00    +0.000 A 
ATOM      5  C   UNL     1       5.920   4.819  18.794  0.00  0.00    +0.000 A 
ATOM      6  C   UNL     1       6.800   5.732  19.382  0.00  0.00    +0.000 A 
ATOM      7  C   UNL     1       7.737   6.407  18.603  0.00  0.00    +0.000 A 
ATOM      8  C   UNL     1       7.792   6.171  17.231  0.00  0.00    +0.000 A 
ATOM      9  C   UNL     1       6.919   5.246  16.641  0.00  0.00    +0.000 A 
ATOM     10  C   UNL     1       6.997   4.985  15.192  0.00  0.00    +0.000 A 
ATOM     11  O   UNL     1       7.790   5.630  14.509  0.00  0.00    +0.000 OA
ENDROOT
BRANCH   1  12
ATOM     12  C   UNL     1       6.198   3.657  13.280  0.00  0.00    +0.000 C 
BRANCH  12  14
ATOM     13  C   UNL     1       4.480   3.242  11.489  0.00  0.00    +0.000 C 
ATOM     14  C   UNL     1       4.795   3.598  12.741  0.00  0.00    +0.000 C 
ENDBRANCH  12  14
ENDBRANCH   1  12
BRANCH   3  15
ATOM     15  C   UNL     1       4.002   2.871  17.478  0.00  0.00    +0.000 C 
BRANCH  15  16
ATOM     16  C   UNL     1       3.254   3.769  18.448  0.00  0.00    +0.000 A 
ATOM     17  C   UNL     1       2.500   4.855  17.959  0.00  0.00    +0.000 A 
ATOM     18  C   UNL     1       1.797   5.699  18.819  0.00  0.00    +0.000 A 
ATOM     19  C   UNL     1       1.807   5.461  20.189  0.00  0.00    +0.000 A 
ATOM     20  C   UNL     1       2.507   4.365  20.692  0.00  0.00    +0.000 A 
ATOM     21  C   UNL     1       3.217   3.520  19.831  0.00  0.00    +0.000 A 
ATOM     22 CL   UNL     1       4.026   2.167  20.542  0.00  0.00    +0.000 Cl
ENDBRANCH  15  16
ENDBRANCH   3  15
TORSDOF 4
ENDMDL
MODEL 8
REMARK VINA RESULT:      -7.7      3.043      5.042
REMARK  Name = 
REMARK  4 active torsions:
REMARK  status: ('A' for Active; 'I' for Inactive)
REMARK    1  A    between atoms: C_2  and  C_3
REMARK    2  A    between atoms: C_3  and  N_4
REMARK    3  A    between atoms: C_6  and  C_7
REMARK    4  A    between atoms: C_7  and  C_8
REMARK                            x       y       z     vdW  Elec       q    Type
REMARK                         _______ _______ _______ _____ _____    ______ ____
ROOT
ATOM      1  N   UNL     1       5.322   5.183  19.048  0.00  0.00    +0.000 N 
ATOM      2  N   UNL     1       4.522   6.207  18.604  0.00  0.00    +0.000 NA
ATOM      3  C   UNL     1       3.260   5.989  18.387  0.00  0.00    +0.000 A 
ATOM      4  C   UNL     1       2.631   4.658  18.560  0.00  0.00    +0.000 A 
ATOM      5  C   UNL     1       1.284   4.395  18.279  0.00  0.00    +0.000 A 
ATOM      6  C   UNL     1       0.774   3.103  18.436  0.00  0.00    +0.000 A 
ATOM      7  C   UNL     1       1.597   2.073  18.887  0.00  0.00    +0.000 A 
ATOM      8  C   UNL     1       2.933   2.336  19.185  0.00  0.00    +0.000 A 
ATOM      9  C   UNL     1       3.449   3.628  19.014  0.00  0.00    +0.000 A 
ATOM     10  C   UNL     1       4.869   3.895  19.309  0.00  0.00    +0.000 A 
ATOM     11  O   UNL     1       5.567   2.990  19.761  0.00  0.00    +0.000 OA
ENDROOT
BRANCH   1  12
ATOM     12  C   UNL     1       6.724   5.512  19.272  0.00  0.00    +0.000 C 
BRANCH  12  14
ATOM     13  C   UNL     1       7.766   7.332  17.883  0.00  0.00    +0.000 C 
ATOM     14  C   UNL     1       7.302   6.082  18.007  0.00  0.00    +0.000 C 
ENDBRANCH  12  14
ENDBRANCH   1  12
BRANCH   3  15
ATOM     15  C   UNL     1       2.416   7.194  17.981  0.00  0.00    +0.000 C 
BRANCH  15  16
ATOM     16  C   UNL     1       1.835   7.949  19.164  0.00  0.00    +0.000 A 
ATOM     17  C   UNL     1       1.726   7.314  20.417  0.00  0.00    +0.000 A 
ATOM     18  C   UNL     1       1.200   7.977  21.527  0.00  0.00    +0.000 A 
ATOM     19  C   UNL     1       0.796   9.303  21.417  0.00  0.00    +0.000 A 
ATOM     20  C   UNL     1       0.938   9.968  20.199  0.00  0.00    +0.000 A 
ATOM     21  C   UNL     1       1.460   9.302  19.083  0.00  0.00    +0.000 A 
ATOM     22 CL   UNL     1       1.630  10.217  17.627  0.00  0.00    +0.000 Cl
ENDBRANCH  15  16
ENDBRANCH   3  15
TORSDOF 4
ENDMDL
MODEL 9
REMARK VINA RESULT:      -7.7      2.591      5.081
REMARK  Name = 
REMARK  4 active torsions:
REMARK  status: ('A' for Active; 'I' for Inactive)
REMARK    1  A    between atoms: C_2  and  C_3
REMARK    2  A    between atoms: C_3  and  N_4
REMARK    3  A    between atoms: C_6  and  C_7
REMARK    4  A    between atoms: C_7  and  C_8
REMARK                            x       y       z     vdW  Elec       q    Type
REMARK                         _______ _______ _______ _____ _____    ______ ____
ROOT
ATOM      1  N   UNL     1       4.514   5.281  18.031  0.00  0.00    +0.000 N 
ATOM      2  N   UNL     1       3.909   6.173  18.882  0.00  0.00    +0.000 NA
ATOM      3  C   UNL     1       2.832   5.824  19.519  0.00  0.00    +0.000 A 
ATOM      4  C   UNL     1       2.186   4.502  19.346  0.00  0.00    +0.000 A 
ATOM      5  C   UNL     1       0.996   4.130  19.985  0.00  0.00    +0.000 A 
ATOM      6  C   UNL     1       0.432   2.874  19.743  0.00  0.00    +0.000 A 
ATOM      7  C   UNL     1       1.057   1.978  18.877  0.00  0.00    +0.000 A 
ATOM      8  C   UNL     1       2.250   2.338  18.254  0.00  0.00    +0.000 A 
ATOM      9  C   UNL     1       2.809   3.603  18.485  0.00  0.00    +0.000 A 
ATOM     10  C   UNL     1       4.060   3.987  17.805  0.00  0.00    +0.000 A 
ATOM     11  O   UNL     1       4.630   3.165  17.089  0.00  0.00    +0.000 OA
ENDROOT
BRANCH   1  12
ATOM     12  C   UNL     1       5.720   5.749  17.359  0.00  0.00    +0.000 C 
BRANCH  12  14
ATOM     13  C   UNL     1       5.670   5.520  14.853  0.00  0.00    +0.000 C 
ATOM     14  C   UNL     1       5.363   6.196  15.968  0.00  0.00    +0.000 C 
ENDBRANCH  12  14
ENDBRANCH   1  12
BRANCH   3  15
ATOM     15  C   UNL     1       2.265   6.834  20.513  0.00  0.00    +0.000 C 
BRANCH  15  16
ATOM     16  C   UNL     1       1.750   8.103  19.856  0.00  0.00    +0.000 A 
ATOM     17  C   UNL     1       1.931   8.300  18.473  0.00  0.00    +0.000 A 
ATOM     18  C   UNL     1       1.469   9.452  17.834  0.00  0.00    +0.000 A 
ATOM     19  C   UNL     1       0.786  10.422  18.559  0.00  0.00    +0.000 A 
ATOM     20  C   UNL     1       0.552  10.227  19.920  0.00  0.00    +0.000 A 
ATOM     21  C   UNL     1       1.021   9.075  20.563  0.00  0.00    +0.000 A 
ATOM     22 CL   UNL     1       0.653   8.905  22.244  0.00  0.00    +0.000 Cl
ENDBRANCH  15  16
ENDBRANCH   3  15
TORSDOF 4
ENDMDL
