MODEL 1
REMARK VINA RESULT:      -8.8      0.000      0.000
REMARK  Name = 
REMARK  12 active torsions:
REMARK  status: ('A' for Active; 'I' for Inactive)
REMARK    1  A    between atoms: C_1  and  O_2
REMARK    2  A    between atoms: O_2  and  C_3
REMARK    3  A    between atoms: C_7  and  C_8
REMARK    4  A    between atoms: C_10  and  C_11
REMARK    5  A    between atoms: C_11  and  C_12
REMARK    6  A    between atoms: C_11  and  C_16
REMARK    7  A    between atoms: C_12  and  C_13
REMARK    8  A    between atoms: C_13  and  O_15
REMARK    9  A    between atoms: C_16  and  O_18
REMARK   10  A    between atoms: C_20  and  C_21
REMARK   11  A    between atoms: C_25  and  C_26
REMARK   12  A    between atoms: C_33  and  O_34
REMARK                            x       y       z     vdW  Elec       q    Type
REMARK                         _______ _______ _______ _____ _____    ______ ____
ROOT
ATOM      1  C   UNL     1       4.637   5.127  17.950  0.00  0.00    +0.000 A 
ATOM      2  C   UNL     1       4.469   3.962  18.718  0.00  0.00    +0.000 A 
ATOM      3  C   UNL     1       3.594   3.889  19.826  0.00  0.00    +0.000 A 
ATOM      4  C   UNL     1       2.913   5.050  20.242  0.00  0.00    +0.000 A 
ATOM      5  C   UNL     1       3.037   6.232  19.500  0.00  0.00    +0.000 A 
ATOM      6  C   UNL     1       3.909   6.248  18.372  0.00  0.00    +0.000 A 
ENDROOT
BRANCH   5   7
ATOM      7  C   UNL     1       2.190   7.417  19.701  0.00  0.00    +0.000 A 
ATOM      8  N   UNL     1       1.888   8.188  18.670  0.00  0.00    +0.000 NA
ATOM      9  C   UNL     1       1.257   9.277  19.161  0.00  0.00    +0.000 A 
ATOM     10  C   UNL     1       0.825  10.393  18.448  0.00  0.00    +0.000 A 
ATOM     11  C   UNL     1       0.215  11.429  19.148  0.00  0.00    +0.000 A 
ATOM     12  C   UNL     1       0.045  11.333  20.540  0.00  0.00    +0.000 A 
ATOM     13  C   UNL     1       0.479  10.202  21.265  0.00  0.00    +0.000 A 
ATOM     14  C   UNL     1       1.091   9.179  20.532  0.00  0.00    +0.000 A 
ATOM     15  N   UNL     1       1.663   7.958  20.858  0.00  0.00    +0.000 N 
ATOM     16  H   UNL     1       1.757   7.578  21.789  0.00  0.00    +0.000 HD
BRANCH  11  17
ATOM     17  C   UNL     1      -0.243  12.606  18.356  0.00  0.00    +0.000 C 
ATOM     18  N   UNL     1      -1.154  12.532  17.439  0.00  0.00    +0.000 NA
ATOM     19  N   UNL     1       0.293  13.837  18.592  0.00  0.00    +0.000 N 
ATOM     20  H   UNL     1      -1.541  11.588  17.372  0.00  0.00    +0.000 HD
ATOM     21  H   UNL     1       1.279  13.870  18.824  0.00  0.00    +0.000 HD
ATOM     22  H   UNL     1       0.029  14.507  17.879  0.00  0.00    +0.000 HD
ENDBRANCH  11  17
ENDBRANCH   5   7
BRANCH   1  27
ATOM     23  C   UNL     1       5.737   4.366  14.375  0.00  0.00    +0.000 A 
ATOM     24  C   UNL     1       6.928   5.080  14.287  0.00  0.00    +0.000 A 
ATOM     25  C   UNL     1       7.390   5.808  15.379  0.00  0.00    +0.000 A 
ATOM     26  C   UNL     1       6.671   5.797  16.577  0.00  0.00    +0.000 A 
ATOM     27  C   UNL     1       5.452   5.105  16.701  0.00  0.00    +0.000 A 
ATOM     28  C   UNL     1       4.998   4.407  15.563  0.00  0.00    +0.000 A 
BRANCH  23  30
ATOM     29  C   UNL     1       6.389   3.556  12.241  0.00  0.00    +0.000 C 
ATOM     30  O   UNL     1       5.394   3.671  13.248  0.00  0.00    +0.000 OA
ENDBRANCH  23  30
ENDBRANCH   1  27
BRANCH   6  31
ATOM     31  O   UNL     1       4.021   7.392  17.605  0.00  0.00    +0.000 OA
ATOM     32  H   UNL     1       3.119   7.752  17.460  0.00  0.00    +0.000 HD
ENDBRANCH   6  31
BRANCH   3  33
ATOM     33  C   UNL     1       3.375   2.512  20.441  0.00  0.00    +0.000 C 
BRANCH  33  34
ATOM     34  C   UNL     1       4.566   1.573  20.356  0.00  0.00    +0.000 C 
ATOM     35  O   UNL     1       5.439   1.519  21.214  0.00  0.00    +0.000 OA
BRANCH  34  36
ATOM     36  O   UNL     1       4.611   0.822  19.236  0.00  0.00    +0.000 OA
ATOM     37  H   UNL     1       5.045   1.252  18.469  0.00  0.00    +0.000 HD
ENDBRANCH  34  36
ENDBRANCH  33  34
BRANCH  33  38
ATOM     38  C   UNL     1       2.074   1.819  20.029  0.00  0.00    +0.000 C 
BRANCH  38  39
ATOM     39  C   UNL     1       1.593   2.160  18.644  0.00  0.00    +0.000 C 
ATOM     40  O   UNL     1       0.619   2.867  18.433  0.00  0.00    +0.000 OA
BRANCH  39  41
ATOM     41  O   UNL     1       2.297   1.597  17.639  0.00  0.00    +0.000 OA
ATOM     42  H   UNL     1       2.086   0.649  17.453  0.00  0.00    +0.000 HD
ENDBRANCH  39  41
ENDBRANCH  38  39
ENDBRANCH  33  38
ENDBRANCH   3  33
TORSDOF 11
ENDMDL
MODEL 2
REMARK VINA RESULT:      -8.8      1.211      1.793
REMARK  Name = 
REMARK  12 active torsions:
REMARK  status: ('A' for Active; 'I' for Inactive)
REMARK    1  A    between atoms: C_1  and  O_2
REMARK    2  A    between atoms: O_2  and  C_3
REMARK    3  A    between atoms: C_7  and  C_8
REMARK    4  A    between atoms: C_10  and  C_11
REMARK    5  A    between atoms: C_11  and  C_12
REMARK    6  A    between atoms: C_11  and  C_16
REMARK    7  A    between atoms: C_12  and  C_13
REMARK    8  A    between atoms: C_13  and  O_15
REMARK    9  A    between atoms: C_16  and  O_18
REMARK   10  A    between atoms: C_20  and  C_21
REMARK   11  A    between atoms: C_25  and  C_26
REMARK   12  A    between atoms: C_33  and  O_34
REMARK                            x       y       z     vdW  Elec       q    Type
REMARK                         _______ _______ _______ _____ _____    ______ ____
ROOT
ATOM      1  C   UNL     1       4.698   5.140  17.639  0.00  0.00    +0.000 A 
ATOM      2  C   UNL     1       4.474   4.037  18.480  0.00  0.00    +0.000 A 
ATOM      3  C   UNL     1       3.583   4.074  19.578  0.00  0.00    +0.000 A 
ATOM      4  C   UNL     1       2.944   5.287  19.904  0.00  0.00    +0.000 A 
ATOM      5  C   UNL     1       3.125   6.410  19.086  0.00  0.00    +0.000 A 
ATOM      6  C   UNL     1       4.010   6.315  17.973  0.00  0.00    +0.000 A 
ENDROOT
BRANCH   5   7
ATOM      7  C   UNL     1       2.324   7.639  19.194  0.00  0.00    +0.000 A 
ATOM      8  N   UNL     1       1.964   8.084  20.385  0.00  0.00    +0.000 NA
ATOM      9  C   UNL     1       1.106   9.108  20.183  0.00  0.00    +0.000 A 
ATOM     10  C   UNL     1       0.414   9.830  21.153  0.00  0.00    +0.000 A 
ATOM     11  C   UNL     1      -0.450  10.837  20.735  0.00  0.00    +0.000 A 
ATOM     12  C   UNL     1      -0.605  11.108  19.364  0.00  0.00    +0.000 A 
ATOM     13  C   UNL     1       0.098  10.380  18.379  0.00  0.00    +0.000 A 
ATOM     14  C   UNL     1       0.956   9.372  18.832  0.00  0.00    +0.000 A 
ATOM     15  N   UNL     1       1.777   8.441  18.211  0.00  0.00    +0.000 N 
ATOM     16  H   UNL     1       1.882   8.317  17.214  0.00  0.00    +0.000 HD
BRANCH  11  17
ATOM     17  C   UNL     1      -1.170  11.597  21.796  0.00  0.00    +0.000 C 
ATOM     18  N   UNL     1      -0.757  11.670  23.020  0.00  0.00    +0.000 NA
ATOM     19  N   UNL     1      -2.317  12.270  21.493  0.00  0.00    +0.000 N 
ATOM     20  H   UNL     1       0.137  11.189  23.142  0.00  0.00    +0.000 HD
ATOM     21  H   UNL     1      -2.938  11.836  20.819  0.00  0.00    +0.000 HD
ATOM     22  H   UNL     1      -2.796  12.594  22.325  0.00  0.00    +0.000 HD
ENDBRANCH  11  17
ENDBRANCH   5   7
BRANCH   1  27
ATOM     23  C   UNL     1       5.739   4.259  14.074  0.00  0.00    +0.000 A 
ATOM     24  C   UNL     1       7.034   4.766  14.023  0.00  0.00    +0.000 A 
ATOM     25  C   UNL     1       7.585   5.390  15.137  0.00  0.00    +0.000 A 
ATOM     26  C   UNL     1       6.846   5.482  16.320  0.00  0.00    +0.000 A 
ATOM     27  C   UNL     1       5.527   5.001  16.406  0.00  0.00    +0.000 A 
ATOM     28  C   UNL     1       4.990   4.406  15.246  0.00  0.00    +0.000 A 
BRANCH  23  30
ATOM     29  C   UNL     1       6.316   3.200  12.029  0.00  0.00    +0.000 C 
ATOM     30  O   UNL     1       5.311   3.648  12.927  0.00  0.00    +0.000 OA
ENDBRANCH  23  30
ENDBRANCH   1  27
BRANCH   6  31
ATOM     31  O   UNL     1       4.178   7.399  17.132  0.00  0.00    +0.000 OA
ATOM     32  H   UNL     1       3.801   7.167  16.257  0.00  0.00    +0.000 HD
ENDBRANCH   6  31
BRANCH   3  33
ATOM     33  C   UNL     1       3.301   2.752  20.281  0.00  0.00    +0.000 C 
BRANCH  33  34
ATOM     34  C   UNL     1       4.448   1.758  20.263  0.00  0.00    +0.000 C 
ATOM     35  O   UNL     1       5.258   1.652  21.176  0.00  0.00    +0.000 OA
BRANCH  34  36
ATOM     36  O   UNL     1       4.533   1.016  19.139  0.00  0.00    +0.000 OA
ATOM     37  H   UNL     1       5.332   0.453  19.077  0.00  0.00    +0.000 HD
ENDBRANCH  34  36
ENDBRANCH  33  34
BRANCH  33  38
ATOM     38  C   UNL     1       1.970   2.092  19.909  0.00  0.00    +0.000 C 
BRANCH  38  39
ATOM     39  C   UNL     1       1.533   2.320  18.487  0.00  0.00    +0.000 C 
ATOM     40  O   UNL     1       2.143   1.879  17.524  0.00  0.00    +0.000 OA
BRANCH  39  41
ATOM     41  O   UNL     1       0.429   3.082  18.343  0.00  0.00    +0.000 OA
ATOM     42  H   UNL     1      -0.220   2.764  17.668  0.00  0.00    +0.000 HD
ENDBRANCH  39  41
ENDBRANCH  38  39
ENDBRANCH  33  38
ENDBRANCH   3  33
TORSDOF 11
ENDMDL
MODEL 3
REMARK VINA RESULT:      -8.7      1.323      2.577
REMARK  Name = 
REMARK  12 active torsions:
REMARK  status: ('A' for Active; 'I' for Inactive)
REMARK    1  A    between atoms: C_1  and  O_2
REMARK    2  A    between atoms: O_2  and  C_3
REMARK    3  A    between atoms: C_7  and  C_8
REMARK    4  A    between atoms: C_10  and  C_11
REMARK    5  A    between atoms: C_11  and  C_12
REMARK    6  A    between atoms: C_11  and  C_16
REMARK    7  A    between atoms: C_12  and  C_13
REMARK    8  A    between atoms: C_13  and  O_15
REMARK    9  A    between atoms: C_16  and  O_18
REMARK   10  A    between atoms: C_20  and  C_21
REMARK   11  A    between atoms: C_25  and  C_26
REMARK   12  A    between atoms: C_33  and  O_34
REMARK                            x       y       z     vdW  Elec       q    Type
REMARK                         _______ _______ _______ _____ _____    ______ ____
ROOT
ATOM      1  C   UNL     1       4.460   5.063  17.424  0.00  0.00    +0.000 A 
ATOM      2  C   UNL     1       4.082   3.934  18.171  0.00  0.00    +0.000 A 
ATOM      3  C   UNL     1       3.136   3.986  19.221  0.00  0.00    +0.000 A 
ATOM      4  C   UNL     1       2.599   5.233  19.602  0.00  0.00    +0.000 A 
ATOM      5  C   UNL     1       2.935   6.384  18.878  0.00  0.00    +0.000 A 
ATOM      6  C   UNL     1       3.870   6.276  17.807  0.00  0.00    +0.000 A 
ENDROOT
BRANCH   5   7
ATOM      7  C   UNL     1       2.251   7.677  19.033  0.00  0.00    +0.000 A 
ATOM      8  N   UNL     1       1.875   8.079  20.235  0.00  0.00    +0.000 NA
ATOM      9  C   UNL     1       1.131   9.193  20.065  0.00  0.00    +0.000 A 
ATOM     10  C   UNL     1       0.463   9.918  21.050  0.00  0.00    +0.000 A 
ATOM     11  C   UNL     1      -0.278  11.030  20.664  0.00  0.00    +0.000 A 
ATOM     12  C   UNL     1      -0.336  11.401  19.309  0.00  0.00    +0.000 A 
ATOM     13  C   UNL     1       0.343  10.671  18.309  0.00  0.00    +0.000 A 
ATOM     14  C   UNL     1       1.076   9.556  18.730  0.00  0.00    +0.000 A 
ATOM     15  N   UNL     1       1.834   8.590  18.084  0.00  0.00    +0.000 N 
ATOM     16  H   UNL     1       1.978   8.520  17.087  0.00  0.00    +0.000 HD
BRANCH  11  17
ATOM     17  C   UNL     1      -0.975  11.789  21.741  0.00  0.00    +0.000 C 
ATOM     18  N   UNL     1      -0.710  11.640  22.999  0.00  0.00    +0.000 NA
ATOM     19  N   UNL     1      -1.936  12.702  21.420  0.00  0.00    +0.000 N 
ATOM     20  H   UNL     1       0.061  10.984  23.143  0.00  0.00    +0.000 HD
ATOM     21  H   UNL     1      -2.537  12.476  20.635  0.00  0.00    +0.000 HD
ATOM     22  H   UNL     1      -2.448  13.015  22.236  0.00  0.00    +0.000 HD
ENDBRANCH  11  17
ENDBRANCH   5   7
BRANCH   1  27
ATOM     23  C   UNL     1       5.634   4.252  13.884  0.00  0.00    +0.000 A 
ATOM     24  C   UNL     1       6.953   4.696  13.915  0.00  0.00    +0.000 A 
ATOM     25  C   UNL     1       7.477   5.255  15.076  0.00  0.00    +0.000 A 
ATOM     26  C   UNL     1       6.685   5.343  16.224  0.00  0.00    +0.000 A 
ATOM     27  C   UNL     1       5.342   4.925  16.229  0.00  0.00    +0.000 A 
ATOM     28  C   UNL     1       4.836   4.396  15.024  0.00  0.00    +0.000 A 
BRANCH  23  30
ATOM     29  C   UNL     1       6.208   2.951  11.983  0.00  0.00    +0.000 C 
ATOM     30  O   UNL     1       5.236   3.702  12.697  0.00  0.00    +0.000 OA
ENDBRANCH  23  30
ENDBRANCH   1  27
BRANCH   6  31
ATOM     31  O   UNL     1       4.190   7.392  17.057  0.00  0.00    +0.000 OA
ATOM     32  H   UNL     1       4.858   7.911  17.554  0.00  0.00    +0.000 HD
ENDBRANCH   6  31
BRANCH   3  33
ATOM     33  C   UNL     1       2.688   2.655  19.811  0.00  0.00    +0.000 C 
BRANCH  33  34
ATOM     34  C   UNL     1       1.186   2.499  19.976  0.00  0.00    +0.000 C 
ATOM     35  O   UNL     1       0.434   2.227  19.048  0.00  0.00    +0.000 OA
BRANCH  34  36
ATOM     36  O   UNL     1       0.732   2.720  21.228  0.00  0.00    +0.000 OA
ATOM     37  H   UNL     1       1.406   2.624  21.933  0.00  0.00    +0.000 HD
ENDBRANCH  34  36
ENDBRANCH  33  34
BRANCH  33  38
ATOM     38  C   UNL     1       3.447   2.213  21.065  0.00  0.00    +0.000 C 
BRANCH  38  39
ATOM     39  C   UNL     1       4.734   1.481  20.793  0.00  0.00    +0.000 C 
ATOM     40  O   UNL     1       5.607   1.334  21.636  0.00  0.00    +0.000 OA
BRANCH  39  41
ATOM     41  O   UNL     1       4.875   1.021  19.533  0.00  0.00    +0.000 OA
ATOM     42  H   UNL     1       5.044   0.050  19.452  0.00  0.00    +0.000 HD
ENDBRANCH  39  41
ENDBRANCH  38  39
ENDBRANCH  33  38
ENDBRANCH   3  33
TORSDOF 11
ENDMDL
MODEL 4
REMARK VINA RESULT:      -8.7      1.512      2.681
REMARK  Name = 
REMARK  12 active torsions:
REMARK  status: ('A' for Active; 'I' for Inactive)
REMARK    1  A    between atoms: C_1  and  O_2
REMARK    2  A    between atoms: O_2  and  C_3
REMARK    3  A    between atoms: C_7  and  C_8
REMARK    4  A    between atoms: C_10  and  C_11
REMARK    5  A    between atoms: C_11  and  C_12
REMARK    6  A    between atoms: C_11  and  C_16
REMARK    7  A    between atoms: C_12  and  C_13
REMARK    8  A    between atoms: C_13  and  O_15
REMARK    9  A    between atoms: C_16  and  O_18
REMARK   10  A    between atoms: C_20  and  C_21
REMARK   11  A    between atoms: C_25  and  C_26
REMARK   12  A    between atoms: C_33  and  O_34
REMARK                            x       y       z     vdW  Elec       q    Type
REMARK                         _______ _______ _______ _____ _____    ______ ____
ROOT
ATOM      1  C   UNL     1       4.593   4.703  16.557  0.00  0.00    +0.000 A 
ATOM      2  C   UNL     1       4.012   3.545  17.101  0.00  0.00    +0.000 A 
ATOM      3  C   UNL     1       3.012   3.581  18.099  0.00  0.00    +0.000 A 
ATOM      4  C   UNL     1       2.625   4.823  18.641  0.00  0.00    +0.000 A 
ATOM      5  C   UNL     1       3.165   6.006  18.121  0.00  0.00    +0.000 A 
ATOM      6  C   UNL     1       4.150   5.920  17.093  0.00  0.00    +0.000 A 
ENDROOT
BRANCH   5   7
ATOM      7  C   UNL     1       2.655   7.348  18.440  0.00  0.00    +0.000 A 
ATOM      8  N   UNL     1       2.069   7.566  19.604  0.00  0.00    +0.000 NA
ATOM      9  C   UNL     1       1.552   8.814  19.561  0.00  0.00    +0.000 A 
ATOM     10  C   UNL     1       0.781   9.440  20.537  0.00  0.00    +0.000 A 
ATOM     11  C   UNL     1       0.319  10.729  20.288  0.00  0.00    +0.000 A 
ATOM     12  C   UNL     1       0.635  11.367  19.077  0.00  0.00    +0.000 A 
ATOM     13  C   UNL     1       1.419  10.736  18.086  0.00  0.00    +0.000 A 
ATOM     14  C   UNL     1       1.865   9.440  18.367  0.00  0.00    +0.000 A 
ATOM     15  N   UNL     1       2.608   8.496  17.672  0.00  0.00    +0.000 N 
ATOM     16  H   UNL     1       2.971   8.601  16.736  0.00  0.00    +0.000 HD
BRANCH  11  17
ATOM     17  C   UNL     1      -0.497  11.376  21.355  0.00  0.00    +0.000 C 
ATOM     18  N   UNL     1      -0.112  11.461  22.588  0.00  0.00    +0.000 NA
ATOM     19  N   UNL     1      -1.707  11.926  21.049  0.00  0.00    +0.000 N 
ATOM     20  H   UNL     1       0.827  11.079  22.714  0.00  0.00    +0.000 HD
ATOM     21  H   UNL     1      -2.266  11.444  20.354  0.00  0.00    +0.000 HD
ATOM     22  H   UNL     1      -2.231  12.172  21.881  0.00  0.00    +0.000 HD
ENDBRANCH  11  17
ENDBRANCH   5   7
BRANCH   1  27
ATOM     23  C   UNL     1       5.992   3.858  13.108  0.00  0.00    +0.000 A 
ATOM     24  C   UNL     1       7.243   4.467  13.152  0.00  0.00    +0.000 A 
ATOM     25  C   UNL     1       7.648   5.150  14.294  0.00  0.00    +0.000 A 
ATOM     26  C   UNL     1       6.809   5.199  15.410  0.00  0.00    +0.000 A 
ATOM     27  C   UNL     1       5.530   4.614  15.399  0.00  0.00    +0.000 A 
ATOM     28  C   UNL     1       5.140   3.960  14.212  0.00  0.00    +0.000 A 
BRANCH  23  30
ATOM     29  C   UNL     1       4.354   3.194  11.523  0.00  0.00    +0.000 C 
ATOM     30  O   UNL     1       5.711   3.197  11.943  0.00  0.00    +0.000 OA
ENDBRANCH  23  30
ENDBRANCH   1  27
BRANCH   6  31
ATOM     31  O   UNL     1       4.671   7.075  16.541  0.00  0.00    +0.000 OA
ATOM     32  H   UNL     1       5.232   6.821  15.777  0.00  0.00    +0.000 HD
ENDBRANCH   6  31
BRANCH   3  33
ATOM     33  C   UNL     1       2.345   2.258  18.454  0.00  0.00    +0.000 C 
BRANCH  33  34
ATOM     34  C   UNL     1       0.927   2.375  18.985  0.00  0.00    +0.000 C 
ATOM     35  O   UNL     1      -0.066   2.183  18.294  0.00  0.00    +0.000 OA
BRANCH  34  36
ATOM     36  O   UNL     1       0.841   2.745  20.280  0.00  0.00    +0.000 OA
ATOM     37  H   UNL     1       0.731   2.006  20.913  0.00  0.00    +0.000 HD
ENDBRANCH  34  36
ENDBRANCH  33  34
BRANCH  33  38
ATOM     38  C   UNL     1       3.195   1.311  19.305  0.00  0.00    +0.000 C 
BRANCH  38  39
ATOM     39  C   UNL     1       3.999   1.988  20.383  0.00  0.00    +0.000 C 
ATOM     40  O   UNL     1       3.500   2.432  21.406  0.00  0.00    +0.000 OA
BRANCH  39  41
ATOM     41  O   UNL     1       5.318   2.105  20.124  0.00  0.00    +0.000 OA
ATOM     42  H   UNL     1       5.831   1.260  20.147  0.00  0.00    +0.000 HD
ENDBRANCH  39  41
ENDBRANCH  38  39
ENDBRANCH  33  38
ENDBRANCH   3  33
TORSDOF 11
ENDMDL
MODEL 5
REMARK VINA RESULT:      -8.5      1.394      2.078
REMARK  Name = 
REMARK  12 active torsions:
REMARK  status: ('A' for Active; 'I' for Inactive)
REMARK    1  A    between atoms: C_1  and  O_2
REMARK    2  A    between atoms: O_2  and  C_3
REMARK    3  A    between atoms: C_7  and  C_8
REMARK    4  A    between atoms: C_10  and  C_11
REMARK    5  A    between atoms: C_11  and  C_12
REMARK    6  A    between atoms: C_11  and  C_16
REMARK    7  A    between atoms: C_12  and  C_13
REMARK    8  A    between atoms: C_13  and  O_15
REMARK    9  A    between atoms: C_16  and  O_18
REMARK   10  A    between atoms: C_20  and  C_21
REMARK   11  A    between atoms: C_25  and  C_26
REMARK   12  A    between atoms: C_33  and  O_34
REMARK                            x       y       z     vdW  Elec       q    Type
REMARK                         _______ _______ _______ _____ _____    ______ ____
ROOT
ATOM      1  C   UNL     1       4.477   4.994  17.415  0.00  0.00    +0.000 A 
ATOM      2  C   UNL     1       4.339   3.938  18.331  0.00  0.00    +0.000 A 
ATOM      3  C   UNL     1       3.590   4.047  19.525  0.00  0.00    +0.000 A 
ATOM      4  C   UNL     1       3.015   5.288  19.866  0.00  0.00    +0.000 A 
ATOM      5  C   UNL     1       3.113   6.366  18.977  0.00  0.00    +0.000 A 
ATOM      6  C   UNL     1       3.854   6.199  17.771  0.00  0.00    +0.000 A 
ENDROOT
BRANCH   5   7
ATOM      7  C   UNL     1       2.351   7.616  19.120  0.00  0.00    +0.000 A 
ATOM      8  N   UNL     1       1.938   7.999  20.315  0.00  0.00    +0.000 NA
ATOM      9  C   UNL     1       1.130   9.066  20.133  0.00  0.00    +0.000 A 
ATOM     10  C   UNL     1       0.408   9.751  21.108  0.00  0.00    +0.000 A 
ATOM     11  C   UNL     1      -0.393  10.816  20.709  0.00  0.00    +0.000 A 
ATOM     12  C   UNL     1      -0.458  11.179  19.352  0.00  0.00    +0.000 A 
ATOM     13  C   UNL     1       0.275  10.488  18.363  0.00  0.00    +0.000 A 
ATOM     14  C   UNL     1       1.069   9.420  18.796  0.00  0.00    +0.000 A 
ATOM     15  N   UNL     1       1.891   8.500  18.162  0.00  0.00    +0.000 N 
ATOM     16  H   UNL     1       2.050   8.435  17.167  0.00  0.00    +0.000 HD
BRANCH  11  17
ATOM     17  C   UNL     1      -1.147  11.535  21.775  0.00  0.00    +0.000 C 
ATOM     18  N   UNL     1      -1.777  12.647  21.571  0.00  0.00    +0.000 NA
ATOM     19  N   UNL     1      -1.207  11.017  23.035  0.00  0.00    +0.000 N 
ATOM     20  H   UNL     1      -1.730  12.929  20.590  0.00  0.00    +0.000 HD
ATOM     21  H   UNL     1      -0.375  10.551  23.378  0.00  0.00    +0.000 HD
ATOM     22  H   UNL     1      -1.594  11.679  23.698  0.00  0.00    +0.000 HD
ENDBRANCH  11  17
ENDBRANCH   5   7
BRANCH   1  27
ATOM     23  C   UNL     1       7.069   5.161  14.618  0.00  0.00    +0.000 A 
ATOM     24  C   UNL     1       6.488   4.355  13.644  0.00  0.00    +0.000 A 
ATOM     25  C   UNL     1       5.254   3.755  13.877  0.00  0.00    +0.000 A 
ATOM     26  C   UNL     1       4.584   3.988  15.081  0.00  0.00    +0.000 A 
ATOM     27  C   UNL     1       5.147   4.779  16.099  0.00  0.00    +0.000 A 
ATOM     28  C   UNL     1       6.413   5.342  15.840  0.00  0.00    +0.000 A 
BRANCH  23  30
ATOM     29  C   UNL     1       8.555   5.802  12.881  0.00  0.00    +0.000 C 
ATOM     30  O   UNL     1       8.271   5.714  14.270  0.00  0.00    +0.000 OA
ENDBRANCH  23  30
ENDBRANCH   1  27
BRANCH   6  31
ATOM     31  O   UNL     1       3.935   7.238  16.863  0.00  0.00    +0.000 OA
ATOM     32  H   UNL     1       4.053   8.073  17.365  0.00  0.00    +0.000 HD
ENDBRANCH   6  31
BRANCH   3  33
ATOM     33  C   UNL     1       3.375   2.766  20.322  0.00  0.00    +0.000 C 
BRANCH  33  34
ATOM     34  C   UNL     1       4.527   1.778  20.274  0.00  0.00    +0.000 C 
ATOM     35  O   UNL     1       5.364   1.680  21.163  0.00  0.00    +0.000 OA
BRANCH  34  36
ATOM     36  O   UNL     1       4.582   1.033  19.150  0.00  0.00    +0.000 OA
ATOM     37  H   UNL     1       5.458   1.017  18.710  0.00  0.00    +0.000 HD
ENDBRANCH  34  36
ENDBRANCH  33  34
BRANCH  33  38
ATOM     38  C   UNL     1       2.026   2.079  20.092  0.00  0.00    +0.000 C 
BRANCH  38  39
ATOM     39  C   UNL     1       1.479   2.224  18.697  0.00  0.00    +0.000 C 
ATOM     40  O   UNL     1       0.491   2.894  18.435  0.00  0.00    +0.000 OA
BRANCH  39  41
ATOM     41  O   UNL     1       2.140   1.528  17.748  0.00  0.00    +0.000 OA
ATOM     42  H   UNL     1       1.823   0.602  17.604  0.00  0.00    +0.000 HD
ENDBRANCH  39  41
ENDBRANCH  38  39
ENDBRANCH  33  38
ENDBRANCH   3  33
TORSDOF 11
ENDMDL
MODEL 6
REMARK VINA RESULT:      -8.3      1.455      2.539
REMARK  Name = 
REMARK  12 active torsions:
REMARK  status: ('A' for Active; 'I' for Inactive)
REMARK    1  A    between atoms: C_1  and  O_2
REMARK    2  A    between atoms: O_2  and  C_3
REMARK    3  A    between atoms: C_7  and  C_8
REMARK    4  A    between atoms: C_10  and  C_11
REMARK    5  A    between atoms: C_11  and  C_12
REMARK    6  A    between atoms: C_11  and  C_16
REMARK    7  A    between atoms: C_12  and  C_13
REMARK    8  A    between atoms: C_13  and  O_15
REMARK    9  A    between atoms: C_16  and  O_18
REMARK   10  A    between atoms: C_20  and  C_21
REMARK   11  A    between atoms: C_25  and  C_26
REMARK   12  A    between atoms: C_33  and  O_34
REMARK                            x       y       z     vdW  Elec       q    Type
REMARK                         _______ _______ _______ _____ _____    ______ ____
ROOT
ATOM      1  C   UNL     1       4.421   5.138  17.868  0.00  0.00    +0.000 A 
ATOM      2  C   UNL     1       4.087   4.041  18.679  0.00  0.00    +0.000 A 
ATOM      3  C   UNL     1       3.143   4.117  19.728  0.00  0.00    +0.000 A 
ATOM      4  C   UNL     1       2.558   5.362  20.039  0.00  0.00    +0.000 A 
ATOM      5  C   UNL     1       2.849   6.482  19.249  0.00  0.00    +0.000 A 
ATOM      6  C   UNL     1       3.786   6.348  18.183  0.00  0.00    +0.000 A 
ENDROOT
BRANCH   5   7
ATOM      7  C   UNL     1       2.116   7.754  19.332  0.00  0.00    +0.000 A 
ATOM      8  N   UNL     1       1.623   8.151  20.493  0.00  0.00    +0.000 NA
ATOM      9  C   UNL     1       0.864   9.242  20.249  0.00  0.00    +0.000 A 
ATOM     10  C   UNL     1       0.090   9.950  21.165  0.00  0.00    +0.000 A 
ATOM     11  C   UNL     1      -0.646  11.039  20.706  0.00  0.00    +0.000 A 
ATOM     12  C   UNL     1      -0.594  11.401  19.348  0.00  0.00    +0.000 A 
ATOM     13  C   UNL     1       0.193  10.686  18.418  0.00  0.00    +0.000 A 
ATOM     14  C   UNL     1       0.918   9.596  18.912  0.00  0.00    +0.000 A 
ATOM     15  N   UNL     1       1.759   8.650  18.343  0.00  0.00    +0.000 N 
ATOM     16  H   UNL     1       1.993   8.579  17.363  0.00  0.00    +0.000 HD
BRANCH  11  17
ATOM     17  C   UNL     1      -1.458  11.781  21.710  0.00  0.00    +0.000 C 
ATOM     18  N   UNL     1      -2.455  12.543  21.393  0.00  0.00    +0.000 NA
ATOM     19  N   UNL     1      -1.173  11.665  23.039  0.00  0.00    +0.000 N 
ATOM     20  H   UNL     1      -2.635  12.524  20.387  0.00  0.00    +0.000 HD
ATOM     21  H   UNL     1      -0.193  11.591  23.291  0.00  0.00    +0.000 HD
ATOM     22  H   UNL     1      -1.676  12.347  23.595  0.00  0.00    +0.000 HD
ENDBRANCH  11  17
ENDBRANCH   5   7
BRANCH   1  27
ATOM     23  C   UNL     1       5.576   4.338  14.319  0.00  0.00    +0.000 A 
ATOM     24  C   UNL     1       6.925   4.677  14.376  0.00  0.00    +0.000 A 
ATOM     25  C   UNL     1       7.474   5.161  15.559  0.00  0.00    +0.000 A 
ATOM     26  C   UNL     1       6.677   5.278  16.701  0.00  0.00    +0.000 A 
ATOM     27  C   UNL     1       5.305   4.966  16.678  0.00  0.00    +0.000 A 
ATOM     28  C   UNL     1       4.776   4.512  15.453  0.00  0.00    +0.000 A 
BRANCH  23  30
ATOM     29  C   UNL     1       6.149   3.323  12.251  0.00  0.00    +0.000 C 
ATOM     30  O   UNL     1       5.152   3.854  13.112  0.00  0.00    +0.000 OA
ENDBRANCH  23  30
ENDBRANCH   1  27
BRANCH   6  31
ATOM     31  O   UNL     1       4.061   7.430  17.369  0.00  0.00    +0.000 OA
ATOM     32  H   UNL     1       4.918   7.263  16.920  0.00  0.00    +0.000 HD
ENDBRANCH   6  31
BRANCH   3  33
ATOM     33  C   UNL     1       2.746   2.805  20.395  0.00  0.00    +0.000 C 
BRANCH  33  34
ATOM     34  C   UNL     1       1.321   2.755  20.916  0.00  0.00    +0.000 C 
ATOM     35  O   UNL     1       1.045   2.591  22.098  0.00  0.00    +0.000 OA
BRANCH  34  36
ATOM     36  O   UNL     1       0.370   2.867  19.966  0.00  0.00    +0.000 OA
ATOM     37  H   UNL     1       0.589   3.482  19.235  0.00  0.00    +0.000 HD
ENDBRANCH  34  36
ENDBRANCH  33  34
BRANCH  33  38
ATOM     38  C   UNL     1       3.748   2.273  21.424  0.00  0.00    +0.000 C 
BRANCH  38  39
ATOM     39  C   UNL     1       4.842   1.416  20.848  0.00  0.00    +0.000 C 
ATOM     40  O   UNL     1       4.842   1.023  19.690  0.00  0.00    +0.000 OA
BRANCH  39  41
ATOM     41  O   UNL     1       5.819   1.077  21.715  0.00  0.00    +0.000 OA
ATOM     42  H   UNL     1       6.272   1.835  22.161  0.00  0.00    +0.000 HD
ENDBRANCH  39  41
ENDBRANCH  38  39
ENDBRANCH  33  38
ENDBRANCH   3  33
TORSDOF 11
ENDMDL
MODEL 7
REMARK VINA RESULT:      -8.2      1.510      2.295
REMARK  Name = 
REMARK  12 active torsions:
REMARK  status: ('A' for Active; 'I' for Inactive)
REMARK    1  A    between atoms: C_1  and  O_2
REMARK    2  A    between atoms: O_2  and  C_3
REMARK    3  A    between atoms: C_7  and  C_8
REMARK    4  A    between atoms: C_10  and  C_11
REMARK    5  A    between atoms: C_11  and  C_12
REMARK    6  A    between atoms: C_11  and  C_16
REMARK    7  A    between atoms: C_12  and  C_13
REMARK    8  A    between atoms: C_13  and  O_15
REMARK    9  A    between atoms: C_16  and  O_18
REMARK   10  A    between atoms: C_20  and  C_21
REMARK   11  A    between atoms: C_25  and  C_26
REMARK   12  A    between atoms: C_33  and  O_34
REMARK                            x       y       z     vdW  Elec       q    Type
REMARK                         _______ _______ _______ _____ _____    ______ ____
ROOT
ATOM      1  C   UNL     1       4.496   4.989  17.433  0.00  0.00    +0.000 A 
ATOM      2  C   UNL     1       4.407   3.942  18.367  0.00  0.00    +0.000 A 
ATOM      3  C   UNL     1       3.692   4.052  19.582  0.00  0.00    +0.000 A 
ATOM      4  C   UNL     1       3.102   5.286  19.923  0.00  0.00    +0.000 A 
ATOM      5  C   UNL     1       3.151   6.354  19.018  0.00  0.00    +0.000 A 
ATOM      6  C   UNL     1       3.859   6.185  17.792  0.00  0.00    +0.000 A 
ENDROOT
BRANCH   5   7
ATOM      7  C   UNL     1       2.368   7.590  19.167  0.00  0.00    +0.000 A 
ATOM      8  N   UNL     1       2.007   7.995  20.373  0.00  0.00    +0.000 NA
ATOM      9  C   UNL     1       1.167   9.039  20.205  0.00  0.00    +0.000 A 
ATOM     10  C   UNL     1       0.479   9.734  21.197  0.00  0.00    +0.000 A 
ATOM     11  C   UNL     1      -0.367  10.770  20.813  0.00  0.00    +0.000 A 
ATOM     12  C   UNL     1      -0.508  11.095  19.453  0.00  0.00    +0.000 A 
ATOM     13  C   UNL     1       0.190  10.394  18.445  0.00  0.00    +0.000 A 
ATOM     14  C   UNL     1       1.029   9.356  18.864  0.00  0.00    +0.000 A 
ATOM     15  N   UNL     1       1.840   8.437  18.213  0.00  0.00    +0.000 N 
ATOM     16  H   UNL     1       1.950   8.350  17.213  0.00  0.00    +0.000 HD
BRANCH  11  17
ATOM     17  C   UNL     1      -1.082  11.500  21.898  0.00  0.00    +0.000 C 
ATOM     18  N   UNL     1      -0.701  11.483  23.135  0.00  0.00    +0.000 NA
ATOM     19  N   UNL     1      -2.189  12.241  21.606  0.00  0.00    +0.000 N 
ATOM     20  H   UNL     1       0.167  10.956  23.251  0.00  0.00    +0.000 HD
ATOM     21  H   UNL     1      -2.809  11.876  20.892  0.00  0.00    +0.000 HD
ATOM     22  H   UNL     1      -2.677  12.538  22.443  0.00  0.00    +0.000 HD
ENDBRANCH  11  17
ENDBRANCH   5   7
BRANCH   1  27
ATOM     23  C   UNL     1       7.021   5.130  14.574  0.00  0.00    +0.000 A 
ATOM     24  C   UNL     1       6.404   4.336  13.611  0.00  0.00    +0.000 A 
ATOM     25  C   UNL     1       5.169   3.753  13.873  0.00  0.00    +0.000 A 
ATOM     26  C   UNL     1       4.531   3.989  15.094  0.00  0.00    +0.000 A 
ATOM     27  C   UNL     1       5.130   4.769  16.100  0.00  0.00    +0.000 A 
ATOM     28  C   UNL     1       6.397   5.316  15.812  0.00  0.00    +0.000 A 
BRANCH  23  30
ATOM     29  C   UNL     1       8.462   5.780  12.803  0.00  0.00    +0.000 C 
ATOM     30  O   UNL     1       8.221   5.668  14.198  0.00  0.00    +0.000 OA
ENDBRANCH  23  30
ENDBRANCH   1  27
BRANCH   6  31
ATOM     31  O   UNL     1       3.892   7.213  16.869  0.00  0.00    +0.000 OA
ATOM     32  H   UNL     1       4.743   7.690  16.974  0.00  0.00    +0.000 HD
ENDBRANCH   6  31
BRANCH   3  33
ATOM     33  C   UNL     1       3.527   2.778  20.401  0.00  0.00    +0.000 C 
BRANCH  33  34
ATOM     34  C   UNL     1       4.277   1.570  19.868  0.00  0.00    +0.000 C 
ATOM     35  O   UNL     1       3.914   0.935  18.886  0.00  0.00    +0.000 OA
BRANCH  34  36
ATOM     36  O   UNL     1       5.365   1.222  20.587  0.00  0.00    +0.000 OA
ATOM     37  H   UNL     1       5.635   0.284  20.496  0.00  0.00    +0.000 HD
ENDBRANCH  34  36
ENDBRANCH  33  34
BRANCH  33  38
ATOM     38  C   UNL     1       2.084   2.432  20.776  0.00  0.00    +0.000 C 
BRANCH  38  39
ATOM     39  C   UNL     1       1.060   2.805  19.738  0.00  0.00    +0.000 C 
ATOM     40  O   UNL     1       1.026   2.302  18.625  0.00  0.00    +0.000 OA
BRANCH  39  41
ATOM     41  O   UNL     1       0.191   3.768  20.111  0.00  0.00    +0.000 OA
ATOM     42  H   UNL     1       0.401   4.678  19.785  0.00  0.00    +0.000 HD
ENDBRANCH  39  41
ENDBRANCH  38  39
ENDBRANCH  33  38
ENDBRANCH   3  33
TORSDOF 11
ENDMDL
MODEL 8
REMARK VINA RESULT:      -8.2      2.189      3.187
REMARK  Name = 
REMARK  12 active torsions:
REMARK  status: ('A' for Active; 'I' for Inactive)
REMARK    1  A    between atoms: C_1  and  O_2
REMARK    2  A    between atoms: O_2  and  C_3
REMARK    3  A    between atoms: C_7  and  C_8
REMARK    4  A    between atoms: C_10  and  C_11
REMARK    5  A    between atoms: C_11  and  C_12
REMARK    6  A    between atoms: C_11  and  C_16
REMARK    7  A    between atoms: C_12  and  C_13
REMARK    8  A    between atoms: C_13  and  O_15
REMARK    9  A    between atoms: C_16  and  O_18
REMARK   10  A    between atoms: C_20  and  C_21
REMARK   11  A    between atoms: C_25  and  C_26
REMARK   12  A    between atoms: C_33  and  O_34
REMARK                            x       y       z     vdW  Elec       q    Type
REMARK                         _______ _______ _______ _____ _____    ______ ____
ROOT
ATOM      1  C   UNL     1       3.417   5.682  18.686  0.00  0.00    +0.000 A 
ATOM      2  C   UNL     1       2.837   4.531  19.246  0.00  0.00    +0.000 A 
ATOM      3  C   UNL     1       1.765   4.579  20.167  0.00  0.00    +0.000 A 
ATOM      4  C   UNL     1       1.298   5.831  20.615  0.00  0.00    +0.000 A 
ATOM      5  C   UNL     1       1.835   7.006  20.075  0.00  0.00    +0.000 A 
ATOM      6  C   UNL     1       2.895   6.907  19.126  0.00  0.00    +0.000 A 
ENDROOT
BRANCH   5   7
ATOM      7  C   UNL     1       1.258   8.342  20.288  0.00  0.00    +0.000 A 
ATOM      8  N   UNL     1       0.775   8.665  21.474  0.00  0.00    +0.000 NA
ATOM      9  C   UNL     1       0.163   9.862  21.341  0.00  0.00    +0.000 A 
ATOM     10  C   UNL     1      -0.554  10.555  22.314  0.00  0.00    +0.000 A 
ATOM     11  C   UNL     1      -1.135  11.771  21.967  0.00  0.00    +0.000 A 
ATOM     12  C   UNL     1      -0.990  12.273  20.662  0.00  0.00    +0.000 A 
ATOM     13  C   UNL     1      -0.261  11.574  19.674  0.00  0.00    +0.000 A 
ATOM     14  C   UNL     1       0.308  10.354  20.055  0.00  0.00    +0.000 A 
ATOM     15  N   UNL     1       1.049   9.381  19.400  0.00  0.00    +0.000 N 
ATOM     16  H   UNL     1       1.309   9.391  18.424  0.00  0.00    +0.000 HD
BRANCH  11  17
ATOM     17  C   UNL     1      -1.889  12.492  23.031  0.00  0.00    +0.000 C 
ATOM     18  N   UNL     1      -1.487  13.605  23.554  0.00  0.00    +0.000 NA
ATOM     19  N   UNL     1      -3.070  11.988  23.491  0.00  0.00    +0.000 N 
ATOM     20  H   UNL     1      -0.629  13.939  23.109  0.00  0.00    +0.000 HD
ATOM     21  H   UNL     1      -3.139  10.979  23.565  0.00  0.00    +0.000 HD
ATOM     22  H   UNL     1      -3.388  12.470  24.324  0.00  0.00    +0.000 HD
ENDBRANCH  11  17
ENDBRANCH   5   7
BRANCH   1  27
ATOM     23  C   UNL     1       6.603   6.253  16.663  0.00  0.00    +0.000 A 
ATOM     24  C   UNL     1       6.434   5.358  15.610  0.00  0.00    +0.000 A 
ATOM     25  C   UNL     1       5.291   4.568  15.540  0.00  0.00    +0.000 A 
ATOM     26  C   UNL     1       4.297   4.695  16.513  0.00  0.00    +0.000 A 
ATOM     27  C   UNL     1       4.438   5.572  17.604  0.00  0.00    +0.000 A 
ATOM     28  C   UNL     1       5.625   6.331  17.660  0.00  0.00    +0.000 A 
BRANCH  23  30
ATOM     29  C   UNL     1       7.853   8.077  17.527  0.00  0.00    +0.000 C 
ATOM     30  O   UNL     1       7.754   6.991  16.617  0.00  0.00    +0.000 OA
ENDBRANCH  23  30
ENDBRANCH   1  27
BRANCH   6  31
ATOM     31  O   UNL     1       3.416   8.052  18.554  0.00  0.00    +0.000 OA
ATOM     32  H   UNL     1       4.146   8.373  19.127  0.00  0.00    +0.000 HD
ENDBRANCH   6  31
BRANCH   3  33
ATOM     33  C   UNL     1       1.119   3.250  20.540  0.00  0.00    +0.000 C 
BRANCH  33  34
ATOM     34  C   UNL     1       1.706   2.571  21.765  0.00  0.00    +0.000 C 
ATOM     35  O   UNL     1       1.020   2.069  22.646  0.00  0.00    +0.000 OA
BRANCH  34  36
ATOM     36  O   UNL     1       3.054   2.596  21.829  0.00  0.00    +0.000 OA
ATOM     37  H   UNL     1       3.478   1.715  21.903  0.00  0.00    +0.000 HD
ENDBRANCH  34  36
ENDBRANCH  33  34
BRANCH  33  38
ATOM     38  C   UNL     1       0.937   2.270  19.378  0.00  0.00    +0.000 C 
BRANCH  38  39
ATOM     39  C   UNL     1       2.214   1.872  18.688  0.00  0.00    +0.000 C 
ATOM     40  O   UNL     1       3.218   1.524  19.293  0.00  0.00    +0.000 OA
BRANCH  39  41
ATOM     41  O   UNL     1       2.188   1.958  17.342  0.00  0.00    +0.000 OA
ATOM     42  H   UNL     1       1.455   1.462  16.900  0.00  0.00    +0.000 HD
ENDBRANCH  39  41
ENDBRANCH  38  39
ENDBRANCH  33  38
ENDBRANCH   3  33
TORSDOF 11
ENDMDL
MODEL 9
REMARK VINA RESULT:      -8.2      4.684     10.242
REMARK  Name = 
REMARK  12 active torsions:
REMARK  status: ('A' for Active; 'I' for Inactive)
REMARK    1  A    between atoms: C_1  and  O_2
REMARK    2  A    between atoms: O_2  and  C_3
REMARK    3  A    between atoms: C_7  and  C_8
REMARK    4  A    between atoms: C_10  and  C_11
REMARK    5  A    between atoms: C_11  and  C_12
REMARK    6  A    between atoms: C_11  and  C_16
REMARK    7  A    between atoms: C_12  and  C_13
REMARK    8  A    between atoms: C_13  and  O_15
REMARK    9  A    between atoms: C_16  and  O_18
REMARK   10  A    between atoms: C_20  and  C_21
REMARK   11  A    between atoms: C_25  and  C_26
REMARK   12  A    between atoms: C_33  and  O_34
REMARK                            x       y       z     vdW  Elec       q    Type
REMARK                         _______ _______ _______ _____ _____    ______ ____
ROOT
ATOM      1  C   UNL     1      -0.916  11.504  19.889  0.00  0.00    +0.000 A 
ATOM      2  C   UNL     1      -1.787  11.570  18.788  0.00  0.00    +0.000 A 
ATOM      3  C   UNL     1      -1.618  10.785  17.624  0.00  0.00    +0.000 A 
ATOM      4  C   UNL     1      -0.485   9.953  17.514  0.00  0.00    +0.000 A 
ATOM      5  C   UNL     1       0.404   9.844  18.590  0.00  0.00    +0.000 A 
ATOM      6  C   UNL     1       0.174  10.633  19.756  0.00  0.00    +0.000 A 
ENDROOT
BRANCH   5   7
ATOM      7  C   UNL     1       1.468   8.832  18.674  0.00  0.00    +0.000 A 
ATOM      8  N   UNL     1       2.327   8.702  17.678  0.00  0.00    +0.000 NA
ATOM      9  C   UNL     1       3.072   7.605  17.937  0.00  0.00    +0.000 A 
ATOM     10  C   UNL     1       4.051   7.040  17.123  0.00  0.00    +0.000 A 
ATOM     11  C   UNL     1       4.690   5.885  17.563  0.00  0.00    +0.000 A 
ATOM     12  C   UNL     1       4.345   5.318  18.801  0.00  0.00    +0.000 A 
ATOM     13  C   UNL     1       3.354   5.890  19.630  0.00  0.00    +0.000 A 
ATOM     14  C   UNL     1       2.729   7.049  19.158  0.00  0.00    +0.000 A 
ATOM     15  N   UNL     1       1.721   7.873  19.636  0.00  0.00    +0.000 N 
ATOM     16  H   UNL     1       1.205   7.740  20.494  0.00  0.00    +0.000 HD
BRANCH  11  17
ATOM     17  C   UNL     1       5.739   5.309  16.674  0.00  0.00    +0.000 C 
ATOM     18  N   UNL     1       6.272   5.962  15.691  0.00  0.00    +0.000 NA
ATOM     19  N   UNL     1       6.191   4.040  16.885  0.00  0.00    +0.000 N 
ATOM     20  H   UNL     1       5.920   6.921  15.644  0.00  0.00    +0.000 HD
ATOM     21  H   UNL     1       5.508   3.357  17.194  0.00  0.00    +0.000 HD
ATOM     22  H   UNL     1       6.765   3.710  16.118  0.00  0.00    +0.000 HD
ENDBRANCH  11  17
ENDBRANCH   5   7
BRANCH   1  27
ATOM     23  C   UNL     1      -2.559  12.437  23.205  0.00  0.00    +0.000 A 
ATOM     24  C   UNL     1      -1.819  13.552  23.585  0.00  0.00    +0.000 A 
ATOM     25  C   UNL     1      -0.788  14.016  22.774  0.00  0.00    +0.000 A 
ATOM     26  C   UNL     1      -0.515  13.379  21.561  0.00  0.00    +0.000 A 
ATOM     27  C   UNL     1      -1.227  12.237  21.151  0.00  0.00    +0.000 A 
ATOM     28  C   UNL     1      -2.241  11.775  22.015  0.00  0.00    +0.000 A 
BRANCH  23  30
ATOM     29  C   UNL     1      -4.654  12.984  24.179  0.00  0.00    +0.000 C 
ATOM     30  O   UNL     1      -3.560  12.085  24.069  0.00  0.00    +0.000 OA
ENDBRANCH  23  30
ENDBRANCH   1  27
BRANCH   6  31
ATOM     31  O   UNL     1       1.018  10.516  20.843  0.00  0.00    +0.000 OA
ATOM     32  H   UNL     1       1.406  11.399  21.025  0.00  0.00    +0.000 HD
ENDBRANCH   6  31
BRANCH   3  33
ATOM     33  C   UNL     1      -2.743  10.824  16.597  0.00  0.00    +0.000 C 
BRANCH  33  34
ATOM     34  C   UNL     1      -4.128  11.065  17.171  0.00  0.00    +0.000 C 
ATOM     35  O   UNL     1      -4.793  12.063  16.921  0.00  0.00    +0.000 OA
BRANCH  34  36
ATOM     36  O   UNL     1      -4.562  10.105  18.014  0.00  0.00    +0.000 OA
ATOM     37  H   UNL     1      -5.128  10.427  18.747  0.00  0.00    +0.000 HD
ENDBRANCH  34  36
ENDBRANCH  33  34
BRANCH  33  38
ATOM     38  C   UNL     1      -2.738   9.675  15.586  0.00  0.00    +0.000 C 
BRANCH  38  39
ATOM     39  C   UNL     1      -3.143  10.065  14.190  0.00  0.00    +0.000 C 
ATOM     40  O   UNL     1      -4.195  10.634  13.937  0.00  0.00    +0.000 OA
BRANCH  39  41
ATOM     41  O   UNL     1      -2.273   9.711  13.222  0.00  0.00    +0.000 OA
ATOM     42  H   UNL     1      -2.327  10.241  12.388  0.00  0.00    +0.000 HD
ENDBRANCH  39  41
ENDBRANCH  38  39
ENDBRANCH  33  38
ENDBRANCH   3  33
TORSDOF 11
ENDMDL
