MODEL 1
REMARK VINA RESULT:      -8.5      0.000      0.000
REMARK  Name = 
REMARK  6 active torsions:
REMARK  status: ('A' for Active; 'I' for Inactive)
REMARK    1  A    between atoms: C_2  and  C_3
REMARK    2  A    between atoms: C_8  and  N_9
REMARK    3  A    between atoms: C_12  and  N_13
REMARK    4  A    between atoms: N_13  and  C_14
REMARK    5  A    between atoms: C_14  and  C_15
REMARK    6  A    between atoms: C_14  and  C_21
REMARK                            x       y       z     vdW  Elec       q    Type
REMARK                         _______ _______ _______ _____ _____    ______ ____
ROOT
ATOM      1  N   UNL     1       5.154   5.843  18.544  0.00  0.00    +0.000 NA
ATOM      2  H   UNL     1       5.086   6.369  19.413  0.00  0.00    +0.000 HD
ENDROOT
BRANCH   1   6
ATOM      3  N   UNL     1       6.277   5.033  15.158  0.00  0.00    +0.000 N 
ATOM      4  C   UNL     1       5.183   5.971  15.447  0.00  0.00    +0.000 C 
ATOM      5  C   UNL     1       5.674   7.018  16.442  0.00  0.00    +0.000 C 
ATOM      6  C   UNL     1       6.255   6.387  17.722  0.00  0.00    +0.000 C 
ATOM      7  C   UNL     1       7.327   5.354  17.324  0.00  0.00    +0.000 C 
ATOM      8  C   UNL     1       6.788   4.318  16.334  0.00  0.00    +0.000 C 
BRANCH   3  14
ATOM      9  C   UNL     1       7.208   4.599  12.918  0.00  0.00    +0.000 A 
ATOM     10  C   UNL     1       7.060   4.020  11.644  0.00  0.00    +0.000 A 
ATOM     11  C   UNL     1       5.975   3.194  11.358  0.00  0.00    +0.000 A 
ATOM     12  C   UNL     1       5.052   2.909  12.353  0.00  0.00    +0.000 A 
ATOM     13  C   UNL     1       5.199   3.473  13.622  0.00  0.00    +0.000 A 
ATOM     14  C   UNL     1       6.254   4.356  13.933  0.00  0.00    +0.000 A 
BRANCH   9  16
ATOM     15  N   UNL     1       9.197   6.227  13.297  0.00  0.00    +0.000 NA
ATOM     16  C   UNL     1       8.327   5.486  13.113  0.00  0.00    +0.000 C 
ENDBRANCH   9  16
ENDBRANCH   3  14
ENDBRANCH   1   6
BRANCH   1  17
ATOM     17  C   UNL     1       3.817   5.862  17.903  0.00  0.00    +0.000 C 
BRANCH  17  18
ATOM     18  C   UNL     1       2.962   6.977  18.497  0.00  0.00    +0.000 A 
ATOM     19  C   UNL     1       2.595   8.114  17.759  0.00  0.00    +0.000 A 
ATOM     20  C   UNL     1       1.742   9.075  18.308  0.00  0.00    +0.000 A 
ATOM     21  C   UNL     1       1.263   8.918  19.606  0.00  0.00    +0.000 A 
ATOM     22 CL   UNL     1       0.179  10.082  20.260  0.00  0.00    +0.000 Cl
ATOM     23  C   UNL     1       1.644   7.819  20.369  0.00  0.00    +0.000 A 
ATOM     24  C   UNL     1       2.490   6.864  19.812  0.00  0.00    +0.000 A 
ATOM     25  F   UNL     1       2.825   5.798  20.553  0.00  0.00    +0.000 F 
ENDBRANCH  17  18
BRANCH  17  26
ATOM     26  C   UNL     1       3.139   4.509  17.936  0.00  0.00    +0.000 A 
ATOM     27  C   UNL     1       3.863   3.343  18.220  0.00  0.00    +0.000 A 
ATOM     28  C   UNL     1       3.195   2.132  18.375  0.00  0.00    +0.000 A 
ATOM     29  C   UNL     1       1.820   2.117  18.225  0.00  0.00    +0.000 A 
ATOM     30  N   UNL     1       1.089   3.207  17.910  0.00  0.00    +0.000 NA
ATOM     31  C   UNL     1       1.763   4.372  17.774  0.00  0.00    +0.000 A 
ENDBRANCH  17  26
ENDBRANCH   1  17
TORSDOF 6
ENDMDL
MODEL 2
REMARK VINA RESULT:      -8.2      0.853      1.226
REMARK  Name = 
REMARK  6 active torsions:
REMARK  status: ('A' for Active; 'I' for Inactive)
REMARK    1  A    between atoms: C_2  and  C_3
REMARK    2  A    between atoms: C_8  and  N_9
REMARK    3  A    between atoms: C_12  and  N_13
REMARK    4  A    between atoms: N_13  and  C_14
REMARK    5  A    between atoms: C_14  and  C_15
REMARK    6  A    between atoms: C_14  and  C_21
REMARK                            x       y       z     vdW  Elec       q    Type
REMARK                         _______ _______ _______ _____ _____    ______ ____
ROOT
ATOM      1  N   UNL     1       5.225   5.789  18.650  0.00  0.00    +0.000 NA
ATOM      2  H   UNL     1       5.154   6.308  19.523  0.00  0.00    +0.000 HD
ENDROOT
BRANCH   1   6
ATOM      3  N   UNL     1       6.304   5.043  15.235  0.00  0.00    +0.000 N 
ATOM      4  C   UNL     1       5.186   5.943  15.554  0.00  0.00    +0.000 C 
ATOM      5  C   UNL     1       5.664   6.997  16.548  0.00  0.00    +0.000 C 
ATOM      6  C   UNL     1       6.290   6.374  17.811  0.00  0.00    +0.000 C 
ATOM      7  C   UNL     1       7.386   5.380  17.382  0.00  0.00    +0.000 C 
ATOM      8  C   UNL     1       6.861   4.335  16.395  0.00  0.00    +0.000 C 
BRANCH   3  14
ATOM      9  C   UNL     1       7.223   4.634  12.986  0.00  0.00    +0.000 A 
ATOM     10  C   UNL     1       7.070   4.064  11.708  0.00  0.00    +0.000 A 
ATOM     11  C   UNL     1       5.989   3.232  11.422  0.00  0.00    +0.000 A 
ATOM     12  C   UNL     1       5.075   2.932  12.422  0.00  0.00    +0.000 A 
ATOM     13  C   UNL     1       5.226   3.488  13.694  0.00  0.00    +0.000 A 
ATOM     14  C   UNL     1       6.276   4.375  14.005  0.00  0.00    +0.000 A 
BRANCH   9  16
ATOM     15  N   UNL     1       9.228   6.237  13.386  0.00  0.00    +0.000 NA
ATOM     16  C   UNL     1       8.336   5.526  13.180  0.00  0.00    +0.000 C 
ENDBRANCH   9  16
ENDBRANCH   3  14
ENDBRANCH   1   6
BRANCH   1  17
ATOM     17  C   UNL     1       3.875   5.767  18.035  0.00  0.00    +0.000 C 
BRANCH  17  18
ATOM     18  C   UNL     1       2.956   6.758  18.740  0.00  0.00    +0.000 A 
ATOM     19  C   UNL     1       2.536   6.577  20.068  0.00  0.00    +0.000 A 
ATOM     20  C   UNL     1       1.762   7.547  20.709  0.00  0.00    +0.000 A 
ATOM     21  C   UNL     1       1.385   8.699  20.024  0.00  0.00    +0.000 A 
ATOM     22 CL   UNL     1       0.469   9.910  20.832  0.00  0.00    +0.000 Cl
ATOM     23  C   UNL     1       1.758   8.883  18.696  0.00  0.00    +0.000 A 
ATOM     24  C   UNL     1       2.533   7.913  18.067  0.00  0.00    +0.000 A 
ATOM     25  F   UNL     1       2.905   8.119  16.795  0.00  0.00    +0.000 F 
ENDBRANCH  17  18
BRANCH  17  26
ATOM     26  C   UNL     1       3.297   4.370  17.956  0.00  0.00    +0.000 A 
ATOM     27  C   UNL     1       4.101   3.241  18.161  0.00  0.00    +0.000 A 
ATOM     28  C   UNL     1       3.522   1.976  18.215  0.00  0.00    +0.000 A 
ATOM     29  C   UNL     1       2.153   1.874  18.045  0.00  0.00    +0.000 A 
ATOM     30  N   UNL     1       1.347   2.929  17.804  0.00  0.00    +0.000 NA
ATOM     31  C   UNL     1       1.936   4.147  17.765  0.00  0.00    +0.000 A 
ENDBRANCH  17  26
ENDBRANCH   1  17
TORSDOF 6
ENDMDL
MODEL 3
REMARK VINA RESULT:      -8.1      4.409      7.157
REMARK  Name = 
REMARK  6 active torsions:
REMARK  status: ('A' for Active; 'I' for Inactive)
REMARK    1  A    between atoms: C_2  and  C_3
REMARK    2  A    between atoms: C_8  and  N_9
REMARK    3  A    between atoms: C_12  and  N_13
REMARK    4  A    between atoms: N_13  and  C_14
REMARK    5  A    between atoms: C_14  and  C_15
REMARK    6  A    between atoms: C_14  and  C_21
REMARK                            x       y       z     vdW  Elec       q    Type
REMARK                         _______ _______ _______ _____ _____    ______ ____
ROOT
ATOM      1  N   UNL     1       0.555   9.041  19.026  0.00  0.00    +0.000 NA
ATOM      2  H   UNL     1      -0.076   8.281  19.275  0.00  0.00    +0.000 HD
ENDROOT
BRANCH   1   6
ATOM      3  N   UNL     1       2.348   5.861  19.236  0.00  0.00    +0.000 N 
ATOM      4  C   UNL     1       2.266   6.666  18.009  0.00  0.00    +0.000 C 
ATOM      5  C   UNL     1       2.715   8.092  18.318  0.00  0.00    +0.000 C 
ATOM      6  C   UNL     1       1.922   8.719  19.482  0.00  0.00    +0.000 C 
ATOM      7  C   UNL     1       1.985   7.769  20.693  0.00  0.00    +0.000 C 
ATOM      8  C   UNL     1       1.517   6.354  20.341  0.00  0.00    +0.000 C 
BRANCH   3  14
ATOM      9  C   UNL     1       3.790   3.867  19.094  0.00  0.00    +0.000 A 
ATOM     10  C   UNL     1       3.926   2.498  18.797  0.00  0.00    +0.000 A 
ATOM     11  C   UNL     1       2.809   1.717  18.509  0.00  0.00    +0.000 A 
ATOM     12  C   UNL     1       1.545   2.287  18.554  0.00  0.00    +0.000 A 
ATOM     13  C   UNL     1       1.404   3.643  18.857  0.00  0.00    +0.000 A 
ATOM     14  C   UNL     1       2.514   4.477  19.101  0.00  0.00    +0.000 A 
BRANCH   9  16
ATOM     15  N   UNL     1       5.975   5.196  19.555  0.00  0.00    +0.000 NA
ATOM     16  C   UNL     1       4.999   4.615  19.324  0.00  0.00    +0.000 C 
ENDBRANCH   9  16
ENDBRANCH   3  14
ENDBRANCH   1   6
BRANCH   1  17
ATOM     17  C   UNL     1      -0.017  10.294  19.577  0.00  0.00    +0.000 C 
BRANCH  17  18
ATOM     18  C   UNL     1      -1.279  10.681  18.813  0.00  0.00    +0.000 A 
ATOM     19  C   UNL     1      -1.591  10.135  17.557  0.00  0.00    +0.000 A 
ATOM     20  C   UNL     1      -2.796  10.450  16.923  0.00  0.00    +0.000 A 
ATOM     21  C   UNL     1      -3.692  11.326  17.530  0.00  0.00    +0.000 A 
ATOM     22 CL   UNL     1      -5.192  11.676  16.766  0.00  0.00    +0.000 Cl
ATOM     23  C   UNL     1      -3.386  11.909  18.757  0.00  0.00    +0.000 A 
ATOM     24  C   UNL     1      -2.186  11.585  19.382  0.00  0.00    +0.000 A 
ATOM     25  F   UNL     1      -1.920  12.136  20.576  0.00  0.00    +0.000 F 
ENDBRANCH  17  18
BRANCH  17  26
ATOM     26  C   UNL     1       1.001  11.411  19.653  0.00  0.00    +0.000 A 
ATOM     27  C   UNL     1       1.585  11.939  18.494  0.00  0.00    +0.000 A 
ATOM     28  C   UNL     1       2.417  13.052  18.579  0.00  0.00    +0.000 A 
ATOM     29  C   UNL     1       2.655  13.597  19.828  0.00  0.00    +0.000 A 
ATOM     30  N   UNL     1       2.149  13.096  20.974  0.00  0.00    +0.000 NA
ATOM     31  C   UNL     1       1.337  12.020  20.859  0.00  0.00    +0.000 A 
ENDBRANCH  17  26
ENDBRANCH   1  17
TORSDOF 6
ENDMDL
MODEL 4
REMARK VINA RESULT:      -8.0      3.969      8.364
REMARK  Name = 
REMARK  6 active torsions:
REMARK  status: ('A' for Active; 'I' for Inactive)
REMARK    1  A    between atoms: C_2  and  C_3
REMARK    2  A    between atoms: C_8  and  N_9
REMARK    3  A    between atoms: C_12  and  N_13
REMARK    4  A    between atoms: N_13  and  C_14
REMARK    5  A    between atoms: C_14  and  C_15
REMARK    6  A    between atoms: C_14  and  C_21
REMARK                            x       y       z     vdW  Elec       q    Type
REMARK                         _______ _______ _______ _____ _____    ______ ____
ROOT
ATOM      1  N   UNL     1       2.044   6.998  18.698  0.00  0.00    +0.000 NA
ATOM      2  H   UNL     1       2.036   6.986  17.680  0.00  0.00    +0.000 HD
ENDROOT
BRANCH   1   6
ATOM      3  N   UNL     1      -0.054   9.972  19.060  0.00  0.00    +0.000 N 
ATOM      4  C   UNL     1       0.036   8.914  20.077  0.00  0.00    +0.000 C 
ATOM      5  C   UNL     1       1.503   8.675  20.419  0.00  0.00    +0.000 C 
ATOM      6  C   UNL     1       2.355   8.361  19.174  0.00  0.00    +0.000 C 
ATOM      7  C   UNL     1       2.132   9.470  18.128  0.00  0.00    +0.000 C 
ATOM      8  C   UNL     1       0.648   9.668  17.807  0.00  0.00    +0.000 C 
BRANCH   3  14
ATOM      9  C   UNL     1      -1.530  11.756  19.902  0.00  0.00    +0.000 A 
ATOM     10  C   UNL     1      -2.795  12.372  19.902  0.00  0.00    +0.000 A 
ATOM     11  C   UNL     1      -3.783  11.973  19.004  0.00  0.00    +0.000 A 
ATOM     12  C   UNL     1      -3.501  10.984  18.073  0.00  0.00    +0.000 A 
ATOM     13  C   UNL     1      -2.244  10.376  18.063  0.00  0.00    +0.000 A 
ATOM     14  C   UNL     1      -1.238  10.715  18.990  0.00  0.00    +0.000 A 
BRANCH   9  16
ATOM     15  N   UNL     1       0.161  12.585  21.693  0.00  0.00    +0.000 NA
ATOM     16  C   UNL     1      -0.587  12.189  20.900  0.00  0.00    +0.000 C 
ENDBRANCH   9  16
ENDBRANCH   3  14
ENDBRANCH   1   6
BRANCH   1  17
ATOM     17  C   UNL     1       2.983   5.941  19.148  0.00  0.00    +0.000 C 
BRANCH  17  18
ATOM     18  C   UNL     1       3.790   5.413  17.967  0.00  0.00    +0.000 A 
ATOM     19  C   UNL     1       3.691   4.082  17.527  0.00  0.00    +0.000 A 
ATOM     20  C   UNL     1       4.383   3.655  16.391  0.00  0.00    +0.000 A 
ATOM     21  C   UNL     1       5.193   4.547  15.694  0.00  0.00    +0.000 A 
ATOM     22 CL   UNL     1       6.007   4.027  14.271  0.00  0.00    +0.000 Cl
ATOM     23  C   UNL     1       5.336   5.860  16.133  0.00  0.00    +0.000 A 
ATOM     24  C   UNL     1       4.639   6.278  17.264  0.00  0.00    +0.000 A 
ATOM     25  F   UNL     1       4.768   7.553  17.657  0.00  0.00    +0.000 F 
ENDBRANCH  17  18
BRANCH  17  26
ATOM     26  C   UNL     1       2.290   4.848  19.934  0.00  0.00    +0.000 A 
ATOM     27  C   UNL     1       1.254   4.094  19.368  0.00  0.00    +0.000 A 
ATOM     28  C   UNL     1       0.724   3.010  20.061  0.00  0.00    +0.000 A 
ATOM     29  C   UNL     1       1.236   2.720  21.314  0.00  0.00    +0.000 A 
ATOM     30  N   UNL     1       2.203   3.444  21.914  0.00  0.00    +0.000 NA
ATOM     31  C   UNL     1       2.705   4.487  21.213  0.00  0.00    +0.000 A 
ENDBRANCH  17  26
ENDBRANCH   1  17
TORSDOF 6
ENDMDL
MODEL 5
REMARK VINA RESULT:      -8.0      3.898      8.314
REMARK  Name = 
REMARK  6 active torsions:
REMARK  status: ('A' for Active; 'I' for Inactive)
REMARK    1  A    between atoms: C_2  and  C_3
REMARK    2  A    between atoms: C_8  and  N_9
REMARK    3  A    between atoms: C_12  and  N_13
REMARK    4  A    between atoms: N_13  and  C_14
REMARK    5  A    between atoms: C_14  and  C_15
REMARK    6  A    between atoms: C_14  and  C_21
REMARK                            x       y       z     vdW  Elec       q    Type
REMARK                         _______ _______ _______ _____ _____    ______ ____
ROOT
ATOM      1  N   UNL     1       2.108   7.188  18.686  0.00  0.00    +0.000 NA
ATOM      2  H   UNL     1       2.163   7.181  17.669  0.00  0.00    +0.000 HD
ENDROOT
BRANCH   1   6
ATOM      3  N   UNL     1      -0.055  10.109  19.096  0.00  0.00    +0.000 N 
ATOM      4  C   UNL     1       0.056   9.035  20.094  0.00  0.00    +0.000 C 
ATOM      5  C   UNL     1       1.528   8.823  20.435  0.00  0.00    +0.000 C 
ATOM      6  C   UNL     1       2.388   8.549  19.186  0.00  0.00    +0.000 C 
ATOM      7  C   UNL     1       2.142   9.672  18.159  0.00  0.00    +0.000 C 
ATOM      8  C   UNL     1       0.655   9.842  17.839  0.00  0.00    +0.000 C 
BRANCH   3  14
ATOM      9  C   UNL     1      -1.563  11.859  19.954  0.00  0.00    +0.000 A 
ATOM     10  C   UNL     1      -2.841  12.448  19.965  0.00  0.00    +0.000 A 
ATOM     11  C   UNL     1      -3.826  12.030  19.073  0.00  0.00    +0.000 A 
ATOM     12  C   UNL     1      -3.530  11.049  18.137  0.00  0.00    +0.000 A 
ATOM     13  C   UNL     1      -2.261  10.468  18.116  0.00  0.00    +0.000 A 
ATOM     14  C   UNL     1      -1.255  10.826  19.037  0.00  0.00    +0.000 A 
BRANCH   9  16
ATOM     15  N   UNL     1       0.166  12.634  21.733  0.00  0.00    +0.000 NA
ATOM     16  C   UNL     1      -0.621  12.309  20.947  0.00  0.00    +0.000 C 
ENDBRANCH   9  16
ENDBRANCH   3  14
ENDBRANCH   1   6
BRANCH   1  17
ATOM     17  C   UNL     1       3.018   6.130  19.188  0.00  0.00    +0.000 C 
BRANCH  17  18
ATOM     18  C   UNL     1       4.080   5.805  18.144  0.00  0.00    +0.000 A 
ATOM     19  C   UNL     1       4.105   6.423  16.882  0.00  0.00    +0.000 A 
ATOM     20  C   UNL     1       5.140   6.163  15.982  0.00  0.00    +0.000 A 
ATOM     21  C   UNL     1       6.153   5.270  16.327  0.00  0.00    +0.000 A 
ATOM     22 CL   UNL     1       7.448   4.987  15.232  0.00  0.00    +0.000 Cl
ATOM     23  C   UNL     1       6.129   4.618  17.555  0.00  0.00    +0.000 A 
ATOM     24  C   UNL     1       5.095   4.887  18.448  0.00  0.00    +0.000 A 
ATOM     25  F   UNL     1       5.103   4.270  19.638  0.00  0.00    +0.000 F 
ENDBRANCH  17  18
BRANCH  17  26
ATOM     26  C   UNL     1       2.269   4.908  19.677  0.00  0.00    +0.000 A 
ATOM     27  C   UNL     1       1.625   4.045  18.781  0.00  0.00    +0.000 A 
ATOM     28  C   UNL     1       1.059   2.861  19.241  0.00  0.00    +0.000 A 
ATOM     29  C   UNL     1       1.137   2.579  20.594  0.00  0.00    +0.000 A 
ATOM     30  N   UNL     1       1.709   3.401  21.499  0.00  0.00    +0.000 NA
ATOM     31  C   UNL     1       2.259   4.541  21.021  0.00  0.00    +0.000 A 
ENDBRANCH  17  26
ENDBRANCH   1  17
TORSDOF 6
ENDMDL
MODEL 6
REMARK VINA RESULT:      -7.9      3.669      7.955
REMARK  Name = 
REMARK  6 active torsions:
REMARK  status: ('A' for Active; 'I' for Inactive)
REMARK    1  A    between atoms: C_2  and  C_3
REMARK    2  A    between atoms: C_8  and  N_9
REMARK    3  A    between atoms: C_12  and  N_13
REMARK    4  A    between atoms: N_13  and  C_14
REMARK    5  A    between atoms: C_14  and  C_15
REMARK    6  A    between atoms: C_14  and  C_21
REMARK                            x       y       z     vdW  Elec       q    Type
REMARK                         _______ _______ _______ _____ _____    ______ ____
ROOT
ATOM      1  N   UNL     1       3.253   7.264  19.440  0.00  0.00    +0.000 NA
ATOM      2  H   UNL     1       3.538   7.661  20.333  0.00  0.00    +0.000 HD
ENDROOT
BRANCH   1   6
ATOM      3  N   UNL     1       1.160  10.252  19.179  0.00  0.00    +0.000 N 
ATOM      4  C   UNL     1       1.866   9.654  18.037  0.00  0.00    +0.000 C 
ATOM      5  C   UNL     1       1.512   8.172  17.953  0.00  0.00    +0.000 C 
ATOM      6  C   UNL     1       1.795   7.424  19.270  0.00  0.00    +0.000 C 
ATOM      7  C   UNL     1       1.094   8.168  20.423  0.00  0.00    +0.000 C 
ATOM      8  C   UNL     1       1.487   9.646  20.477  0.00  0.00    +0.000 C 
BRANCH   3  14
ATOM      9  C   UNL     1      -0.345  12.144  18.702  0.00  0.00    +0.000 A 
ATOM     10  C   UNL     1      -0.519  13.529  18.524  0.00  0.00    +0.000 A 
ATOM     11  C   UNL     1       0.523  14.417  18.778  0.00  0.00    +0.000 A 
ATOM     12  C   UNL     1       1.735  13.932  19.251  0.00  0.00    +0.000 A 
ATOM     13  C   UNL     1       1.909  12.560  19.438  0.00  0.00    +0.000 A 
ATOM     14  C   UNL     1       0.896  11.626  19.140  0.00  0.00    +0.000 A 
BRANCH   9  16
ATOM     15  N   UNL     1      -2.360  10.603  18.136  0.00  0.00    +0.000 NA
ATOM     16  C   UNL     1      -1.455  11.291  18.362  0.00  0.00    +0.000 C 
ENDBRANCH   9  16
ENDBRANCH   3  14
ENDBRANCH   1   6
BRANCH   1  17
ATOM     17  C   UNL     1       3.746   5.866  19.396  0.00  0.00    +0.000 C 
BRANCH  17  18
ATOM     18  C   UNL     1       4.531   5.621  18.111  0.00  0.00    +0.000 A 
ATOM     19  C   UNL     1       4.453   6.488  17.008  0.00  0.00    +0.000 A 
ATOM     20  C   UNL     1       5.249   6.278  15.880  0.00  0.00    +0.000 A 
ATOM     21  C   UNL     1       6.118   5.191  15.835  0.00  0.00    +0.000 A 
ATOM     22 CL   UNL     1       7.128   4.963  14.462  0.00  0.00    +0.000 Cl
ATOM     23  C   UNL     1       6.185   4.299  16.901  0.00  0.00    +0.000 A 
ATOM     24  C   UNL     1       5.392   4.518  18.022  0.00  0.00    +0.000 A 
ATOM     25  F   UNL     1       5.488   3.662  19.050  0.00  0.00    +0.000 F 
ENDBRANCH  17  18
BRANCH  17  26
ATOM     26  C   UNL     1       2.641   4.855  19.621  0.00  0.00    +0.000 A 
ATOM     27  C   UNL     1       1.986   4.246  18.543  0.00  0.00    +0.000 A 
ATOM     28  C   UNL     1       1.068   3.225  18.775  0.00  0.00    +0.000 A 
ATOM     29  C   UNL     1       0.819   2.853  20.085  0.00  0.00    +0.000 A 
ATOM     30  N   UNL     1       1.395   3.442  21.154  0.00  0.00    +0.000 NA
ATOM     31  C   UNL     1       2.289   4.424  20.897  0.00  0.00    +0.000 A 
ENDBRANCH  17  26
ENDBRANCH   1  17
TORSDOF 6
ENDMDL
MODEL 7
REMARK VINA RESULT:      -7.7      3.985      8.347
REMARK  Name = 
REMARK  6 active torsions:
REMARK  status: ('A' for Active; 'I' for Inactive)
REMARK    1  A    between atoms: C_2  and  C_3
REMARK    2  A    between atoms: C_8  and  N_9
REMARK    3  A    between atoms: C_12  and  N_13
REMARK    4  A    between atoms: N_13  and  C_14
REMARK    5  A    between atoms: C_14  and  C_15
REMARK    6  A    between atoms: C_14  and  C_21
REMARK                            x       y       z     vdW  Elec       q    Type
REMARK                         _______ _______ _______ _____ _____    ______ ____
ROOT
ATOM      1  N   UNL     1       1.989   6.923  19.232  0.00  0.00    +0.000 NA
ATOM      2  H   UNL     1       1.923   6.705  18.240  0.00  0.00    +0.000 HD
ENDROOT
BRANCH   1   6
ATOM      3  N   UNL     1      -0.050   9.958  19.145  0.00  0.00    +0.000 N 
ATOM      4  C   UNL     1       0.107   9.120  20.343  0.00  0.00    +0.000 C 
ATOM      5  C   UNL     1       1.595   8.920  20.619  0.00  0.00    +0.000 C 
ATOM      6  C   UNL     1       2.347   8.346  19.402  0.00  0.00    +0.000 C 
ATOM      7  C   UNL     1       2.054   9.231  18.175  0.00  0.00    +0.000 C 
ATOM      8  C   UNL     1       0.552   9.395  17.930  0.00  0.00    +0.000 C 
BRANCH   3  14
ATOM      9  C   UNL     1      -1.548  11.771  19.881  0.00  0.00    +0.000 A 
ATOM     10  C   UNL     1      -2.811  12.388  19.822  0.00  0.00    +0.000 A 
ATOM     11  C   UNL     1      -3.772  11.960  18.909  0.00  0.00    +0.000 A 
ATOM     12  C   UNL     1      -3.464  10.939  18.021  0.00  0.00    +0.000 A 
ATOM     13  C   UNL     1      -2.209  10.330  18.069  0.00  0.00    +0.000 A 
ATOM     14  C   UNL     1      -1.230  10.699  19.014  0.00  0.00    +0.000 A 
BRANCH   9  16
ATOM     15  N   UNL     1       0.087  12.574  21.735  0.00  0.00    +0.000 NA
ATOM     16  C   UNL     1      -0.634  12.236  20.892  0.00  0.00    +0.000 C 
ENDBRANCH   9  16
ENDBRANCH   3  14
ENDBRANCH   1   6
BRANCH   1  17
ATOM     17  C   UNL     1       2.937   5.956  19.838  0.00  0.00    +0.000 C 
BRANCH  17  18
ATOM     18  C   UNL     1       4.036   5.598  18.844  0.00  0.00    +0.000 A 
ATOM     19  C   UNL     1       5.398   5.636  19.186  0.00  0.00    +0.000 A 
ATOM     20  C   UNL     1       6.373   5.222  18.276  0.00  0.00    +0.000 A 
ATOM     21  C   UNL     1       5.999   4.783  17.009  0.00  0.00    +0.000 A 
ATOM     22 CL   UNL     1       7.200   4.233  15.908  0.00  0.00    +0.000 Cl
ATOM     23  C   UNL     1       4.659   4.772  16.634  0.00  0.00    +0.000 A 
ATOM     24  C   UNL     1       3.694   5.182  17.550  0.00  0.00    +0.000 A 
ATOM     25  F   UNL     1       2.405   5.141  17.180  0.00  0.00    +0.000 F 
ENDBRANCH  17  18
BRANCH  17  26
ATOM     26  C   UNL     1       2.236   4.743  20.415  0.00  0.00    +0.000 A 
ATOM     27  C   UNL     1       1.198   4.108  19.721  0.00  0.00    +0.000 A 
ATOM     28  C   UNL     1       0.661   2.920  20.209  0.00  0.00    +0.000 A 
ATOM     29  C   UNL     1       1.168   2.409  21.390  0.00  0.00    +0.000 A 
ATOM     30  N   UNL     1       2.137   3.009  22.113  0.00  0.00    +0.000 NA
ATOM     31  C   UNL     1       2.646   4.157  21.609  0.00  0.00    +0.000 A 
ENDBRANCH  17  26
ENDBRANCH   1  17
TORSDOF 6
ENDMDL
MODEL 8
REMARK VINA RESULT:      -7.7      4.233      6.995
REMARK  Name = 
REMARK  6 active torsions:
REMARK  status: ('A' for Active; 'I' for Inactive)
REMARK    1  A    between atoms: C_2  and  C_3
REMARK    2  A    between atoms: C_8  and  N_9
REMARK    3  A    between atoms: C_12  and  N_13
REMARK    4  A    between atoms: N_13  and  C_14
REMARK    5  A    between atoms: C_14  and  C_15
REMARK    6  A    between atoms: C_14  and  C_21
REMARK                            x       y       z     vdW  Elec       q    Type
REMARK                         _______ _______ _______ _____ _____    ______ ____
ROOT
ATOM      1  N   UNL     1      -0.030   9.571  19.569  0.00  0.00    +0.000 NA
ATOM      2  H   UNL     1      -0.500   9.335  20.441  0.00  0.00    +0.000 HD
ENDROOT
BRANCH   1   6
ATOM      3  N   UNL     1       2.222   6.777  18.861  0.00  0.00    +0.000 N 
ATOM      4  C   UNL     1       1.801   7.756  17.848  0.00  0.00    +0.000 C 
ATOM      5  C   UNL     1       2.082   9.162  18.368  0.00  0.00    +0.000 C 
ATOM      6  C   UNL     1       1.430   9.425  19.740  0.00  0.00    +0.000 C 
ATOM      7  C   UNL     1       1.852   8.305  20.711  0.00  0.00    +0.000 C 
ATOM      8  C   UNL     1       1.541   6.913  20.155  0.00  0.00    +0.000 C 
BRANCH   3  14
ATOM      9  C   UNL     1       3.742   5.230  17.691  0.00  0.00    +0.000 A 
ATOM     10  C   UNL     1       3.972   3.958  17.135  0.00  0.00    +0.000 A 
ATOM     11  C   UNL     1       3.046   2.930  17.299  0.00  0.00    +0.000 A 
ATOM     12  C   UNL     1       1.903   3.154  18.054  0.00  0.00    +0.000 A 
ATOM     13  C   UNL     1       1.675   4.411  18.616  0.00  0.00    +0.000 A 
ATOM     14  C   UNL     1       2.562   5.490  18.427  0.00  0.00    +0.000 A 
BRANCH   9  16
ATOM     15  N   UNL     1       5.482   7.090  17.176  0.00  0.00    +0.000 NA
ATOM     16  C   UNL     1       4.722   6.252  17.426  0.00  0.00    +0.000 C 
ENDBRANCH   9  16
ENDBRANCH   3  14
ENDBRANCH   1   6
BRANCH   1  17
ATOM     17  C   UNL     1      -0.488  10.923  19.167  0.00  0.00    +0.000 C 
BRANCH  17  18
ATOM     18  C   UNL     1      -0.725  11.790  20.400  0.00  0.00    +0.000 A 
ATOM     19  C   UNL     1      -1.086  11.242  21.642  0.00  0.00    +0.000 A 
ATOM     20  C   UNL     1      -1.215  12.057  22.769  0.00  0.00    +0.000 A 
ATOM     21  C   UNL     1      -1.001  13.429  22.662  0.00  0.00    +0.000 A 
ATOM     22 CL   UNL     1      -1.118  14.422  24.062  0.00  0.00    +0.000 Cl
ATOM     23  C   UNL     1      -0.680  13.999  21.434  0.00  0.00    +0.000 A 
ATOM     24  C   UNL     1      -0.550  13.178  20.318  0.00  0.00    +0.000 A 
ATOM     25  F   UNL     1      -0.214  13.740  19.147  0.00  0.00    +0.000 F 
ENDBRANCH  17  18
BRANCH  17  26
ATOM     26  C   UNL     1      -1.677  10.878  18.232  0.00  0.00    +0.000 A 
ATOM     27  C   UNL     1      -1.697  10.016  17.127  0.00  0.00    +0.000 A 
ATOM     28  C   UNL     1      -2.853   9.896  16.361  0.00  0.00    +0.000 A 
ATOM     29  C   UNL     1      -3.954  10.657  16.712  0.00  0.00    +0.000 A 
ATOM     30  N   UNL     1      -3.964  11.531  17.740  0.00  0.00    +0.000 NA
ATOM     31  C   UNL     1      -2.830  11.620  18.473  0.00  0.00    +0.000 A 
ENDBRANCH  17  26
ENDBRANCH   1  17
TORSDOF 6
ENDMDL
MODEL 9
REMARK VINA RESULT:      -7.5      4.322      7.143
REMARK  Name = 
REMARK  6 active torsions:
REMARK  status: ('A' for Active; 'I' for Inactive)
REMARK    1  A    between atoms: C_2  and  C_3
REMARK    2  A    between atoms: C_8  and  N_9
REMARK    3  A    between atoms: C_12  and  N_13
REMARK    4  A    between atoms: N_13  and  C_14
REMARK    5  A    between atoms: C_14  and  C_15
REMARK    6  A    between atoms: C_14  and  C_21
REMARK                            x       y       z     vdW  Elec       q    Type
REMARK                         _______ _______ _______ _____ _____    ______ ____
ROOT
ATOM      1  N   UNL     1       0.549   9.085  19.131  0.00  0.00    +0.000 NA
ATOM      2  H   UNL     1      -0.088   8.333  19.386  0.00  0.00    +0.000 HD
ENDROOT
BRANCH   1   6
ATOM      3  N   UNL     1       2.324   5.890  19.270  0.00  0.00    +0.000 N 
ATOM      4  C   UNL     1       2.241   6.720  18.059  0.00  0.00    +0.000 C 
ATOM      5  C   UNL     1       2.700   8.136  18.394  0.00  0.00    +0.000 C 
ATOM      6  C   UNL     1       1.917   8.745  19.574  0.00  0.00    +0.000 C 
ATOM      7  C   UNL     1       1.980   7.771  20.766  0.00  0.00    +0.000 C 
ATOM      8  C   UNL     1       1.501   6.367  20.388  0.00  0.00    +0.000 C 
BRANCH   3  14
ATOM      9  C   UNL     1       3.751   3.888  19.101  0.00  0.00    +0.000 A 
ATOM     10  C   UNL     1       3.879   2.525  18.776  0.00  0.00    +0.000 A 
ATOM     11  C   UNL     1       2.760   1.759  18.458  0.00  0.00    +0.000 A 
ATOM     12  C   UNL     1       1.500   2.339  18.501  0.00  0.00    +0.000 A 
ATOM     13  C   UNL     1       1.366   3.688  18.832  0.00  0.00    +0.000 A 
ATOM     14  C   UNL     1       2.479   4.508  19.107  0.00  0.00    +0.000 A 
BRANCH   9  16
ATOM     15  N   UNL     1       5.964   5.173  19.550  0.00  0.00    +0.000 NA
ATOM     16  C   UNL     1       4.963   4.621  19.361  0.00  0.00    +0.000 C 
ENDBRANCH   9  16
ENDBRANCH   3  14
ENDBRANCH   1   6
BRANCH   1  17
ATOM     17  C   UNL     1      -0.001  10.345  19.689  0.00  0.00    +0.000 C 
BRANCH  17  18
ATOM     18  C   UNL     1      -1.308  10.706  18.990  0.00  0.00    +0.000 A 
ATOM     19  C   UNL     1      -2.254  11.567  19.570  0.00  0.00    +0.000 A 
ATOM     20  C   UNL     1      -3.401  11.942  18.866  0.00  0.00    +0.000 A 
ATOM     21  C   UNL     1      -3.622  11.446  17.583  0.00  0.00    +0.000 A 
ATOM     22 CL   UNL     1      -5.014  11.946  16.705  0.00  0.00    +0.000 Cl
ATOM     23  C   UNL     1      -2.717  10.562  17.004  0.00  0.00    +0.000 A 
ATOM     24  C   UNL     1      -1.575  10.198  17.711  0.00  0.00    +0.000 A 
ATOM     25  F   UNL     1      -0.701   9.366  17.127  0.00  0.00    +0.000 F 
ENDBRANCH  17  18
BRANCH  17  26
ATOM     26  C   UNL     1       1.010  11.471  19.683  0.00  0.00    +0.000 A 
ATOM     27  C   UNL     1       1.566  11.939  18.485  0.00  0.00    +0.000 A 
ATOM     28  C   UNL     1       2.390  13.061  18.493  0.00  0.00    +0.000 A 
ATOM     29  C   UNL     1       2.650  13.675  19.706  0.00  0.00    +0.000 A 
ATOM     30  N   UNL     1       2.171  13.233  20.887  0.00  0.00    +0.000 NA
ATOM     31  C   UNL     1       1.366  12.146  20.848  0.00  0.00    +0.000 A 
ENDBRANCH  17  26
ENDBRANCH   1  17
TORSDOF 6
ENDMDL
