MODEL 1
REMARK VINA RESULT:      -8.0      0.000      0.000
REMARK  Name = 
REMARK  6 active torsions:
REMARK  status: ('A' for Active; 'I' for Inactive)
REMARK    1  A    between atoms: C_1  and  C_2
REMARK    2  A    between atoms: C_3  and  C_4
REMARK    3  A    between atoms: C_10  and  S_11
REMARK    4  A    between atoms: S_11  and  C_12
REMARK    5  A    between atoms: C_12  and  C_13
REMARK    6  A    between atoms: C_24  and  N_25
REMARK                            x       y       z     vdW  Elec       q    Type
REMARK                         _______ _______ _______ _____ _____    ______ ____
ROOT
ATOM      1  C   UNL     1       3.031   7.033  18.360  0.00  0.00    +0.000 C 
ATOM      2  O   UNL     1       2.583   6.744  19.456  0.00  0.00    +0.000 OA
ATOM      3  N   UNL     1       2.845   8.246  17.716  0.00  0.00    +0.000 N 
ATOM      4  C   UNL     1       2.111   9.308  18.228  0.00  0.00    +0.000 A 
ATOM      5  N   UNL     1       2.152  10.523  17.714  0.00  0.00    +0.000 NA
ATOM      6  N   UNL     1       1.378  11.429  18.433  0.00  0.00    +0.000 NA
ATOM      7  C   UNL     1       0.739  10.854  19.432  0.00  0.00    +0.000 A 
ATOM      8  S   UNL     1       1.014   9.163  19.536  0.00  0.00    +0.000 S 
ATOM      9  H   UNL     1       3.321   8.455  16.854  0.00  0.00    +0.000 HD
ENDROOT
BRANCH   1  12
ATOM     10  C   UNL     1       6.056   7.241  17.458  0.00  0.00    +0.000 C 
ATOM     11  C   UNL     1       5.186   6.031  17.258  0.00  0.00    +0.000 A 
ATOM     12  C   UNL     1       3.838   5.962  17.672  0.00  0.00    +0.000 A 
ATOM     13  C   UNL     1       3.142   4.734  17.543  0.00  0.00    +0.000 A 
ATOM     14  C   UNL     1       3.735   3.590  17.001  0.00  0.00    +0.000 A 
ATOM     15  C   UNL     1       5.041   3.652  16.549  0.00  0.00    +0.000 A 
ATOM     16  C   UNL     1       5.744   4.861  16.670  0.00  0.00    +0.000 A 
BRANCH  16  17
ATOM     17  N   UNL     1       7.112   4.854  16.159  0.00  0.00    +0.000 N 
ATOM     18  O   UNL     1       7.290   5.325  15.031  0.00  0.00    +0.000 OA
ATOM     19  O   UNL     1       7.982   4.365  16.886  0.00  0.00    +0.000 OA
ENDBRANCH  16  17
ENDBRANCH   1  12
BRANCH   7  20
ATOM     20  S   UNL     1      -0.258  11.731  20.594  0.00  0.00    +0.000 S 
BRANCH  20  21
ATOM     21  C   UNL     1      -1.314  12.711  19.501  0.00  0.00    +0.000 C 
BRANCH  21  22
ATOM     22  C   UNL     1      -2.738  12.205  19.342  0.00  0.00    +0.000 A 
ATOM     23  C   UNL     1      -3.742  12.708  20.195  0.00  0.00    +0.000 A 
ATOM     24  C   UNL     1      -5.096  12.450  19.949  0.00  0.00    +0.000 A 
ATOM     25  C   UNL     1      -5.477  11.679  18.854  0.00  0.00    +0.000 A 
ATOM     26  C   UNL     1      -4.493  11.111  18.046  0.00  0.00    +0.000 A 
ATOM     27  C   UNL     1      -3.131  11.349  18.303  0.00  0.00    +0.000 A 
ATOM     28 CL   UNL     1      -1.982  10.567  17.276  0.00  0.00    +0.000 Cl
ENDBRANCH  21  22
ENDBRANCH  20  21
ENDBRANCH   7  20
TORSDOF 5
ENDMDL
MODEL 2
REMARK VINA RESULT:      -8.0      2.401      2.882
REMARK  Name = 
REMARK  6 active torsions:
REMARK  status: ('A' for Active; 'I' for Inactive)
REMARK    1  A    between atoms: C_1  and  C_2
REMARK    2  A    between atoms: C_3  and  C_4
REMARK    3  A    between atoms: C_10  and  S_11
REMARK    4  A    between atoms: S_11  and  C_12
REMARK    5  A    between atoms: C_12  and  C_13
REMARK    6  A    between atoms: C_24  and  N_25
REMARK                            x       y       z     vdW  Elec       q    Type
REMARK                         _______ _______ _______ _____ _____    ______ ____
ROOT
ATOM      1  C   UNL     1       2.268   7.425  18.831  0.00  0.00    +0.000 C 
ATOM      2  O   UNL     1       1.805   8.105  17.932  0.00  0.00    +0.000 OA
ATOM      3  N   UNL     1       2.124   7.687  20.185  0.00  0.00    +0.000 N 
ATOM      4  C   UNL     1       1.435   8.771  20.710  0.00  0.00    +0.000 A 
ATOM      5  N   UNL     1       1.107   8.863  21.986  0.00  0.00    +0.000 NA
ATOM      6  N   UNL     1       0.369  10.012  22.262  0.00  0.00    +0.000 NA
ATOM      7  C   UNL     1       0.213  10.770  21.196  0.00  0.00    +0.000 A 
ATOM      8  S   UNL     1       0.986  10.149  19.796  0.00  0.00    +0.000 S 
ATOM      9  H   UNL     1       2.451   7.035  20.878  0.00  0.00    +0.000 HD
ENDROOT
BRANCH   1  12
ATOM     10  C   UNL     1       1.671   4.413  19.591  0.00  0.00    +0.000 C 
ATOM     11  C   UNL     1       2.820   4.866  18.733  0.00  0.00    +0.000 A 
ATOM     12  C   UNL     1       3.063   6.218  18.406  0.00  0.00    +0.000 A 
ATOM     13  C   UNL     1       4.103   6.527  17.493  0.00  0.00    +0.000 A 
ATOM     14  C   UNL     1       4.911   5.542  16.917  0.00  0.00    +0.000 A 
ATOM     15  C   UNL     1       4.715   4.216  17.261  0.00  0.00    +0.000 A 
ATOM     16  C   UNL     1       3.690   3.894  18.164  0.00  0.00    +0.000 A 
BRANCH  16  17
ATOM     17  N   UNL     1       3.552   2.478  18.489  0.00  0.00    +0.000 N 
ATOM     18  O   UNL     1       4.156   2.072  19.488  0.00  0.00    +0.000 OA
ATOM     19  O   UNL     1       2.857   1.792  17.734  0.00  0.00    +0.000 OA
ENDBRANCH  16  17
ENDBRANCH   1  12
BRANCH   7  20
ATOM     20  S   UNL     1      -0.745  12.252  21.178  0.00  0.00    +0.000 S 
BRANCH  20  21
ATOM     21  C   UNL     1      -1.221  12.357  19.438  0.00  0.00    +0.000 C 
BRANCH  21  22
ATOM     22  C   UNL     1      -2.627  11.878  19.115  0.00  0.00    +0.000 A 
ATOM     23  C   UNL     1      -3.720  12.460  19.790  0.00  0.00    +0.000 A 
ATOM     24  C   UNL     1      -5.036  12.221  19.375  0.00  0.00    +0.000 A 
ATOM     25  C   UNL     1      -5.291  11.391  18.287  0.00  0.00    +0.000 A 
ATOM     26  C   UNL     1      -4.226  10.748  17.657  0.00  0.00    +0.000 A 
ATOM     27  C   UNL     1      -2.904  10.967  18.084  0.00  0.00    +0.000 A 
ATOM     28 CL   UNL     1      -1.653  10.092  17.274  0.00  0.00    +0.000 Cl
ENDBRANCH  21  22
ENDBRANCH  20  21
ENDBRANCH   7  20
TORSDOF 5
ENDMDL
MODEL 3
REMARK VINA RESULT:      -8.0      4.189      9.562
REMARK  Name = 
REMARK  6 active torsions:
REMARK  status: ('A' for Active; 'I' for Inactive)
REMARK    1  A    between atoms: C_1  and  C_2
REMARK    2  A    between atoms: C_3  and  C_4
REMARK    3  A    between atoms: C_10  and  S_11
REMARK    4  A    between atoms: S_11  and  C_12
REMARK    5  A    between atoms: C_12  and  C_13
REMARK    6  A    between atoms: C_24  and  N_25
REMARK                            x       y       z     vdW  Elec       q    Type
REMARK                         _______ _______ _______ _____ _____    ______ ____
ROOT
ATOM      1  C   UNL     1       1.420   7.975  20.386  0.00  0.00    +0.000 C 
ATOM      2  O   UNL     1       2.065   8.216  19.380  0.00  0.00    +0.000 OA
ATOM      3  N   UNL     1       1.348   6.740  21.011  0.00  0.00    +0.000 N 
ATOM      4  C   UNL     1       1.998   5.594  20.573  0.00  0.00    +0.000 A 
ATOM      5  N   UNL     1       2.111   4.506  21.311  0.00  0.00    +0.000 NA
ATOM      6  N   UNL     1       2.853   3.511  20.680  0.00  0.00    +0.000 NA
ATOM      7  C   UNL     1       3.228   3.865  19.467  0.00  0.00    +0.000 A 
ATOM      8  S   UNL     1       2.669   5.421  19.006  0.00  0.00    +0.000 S 
ATOM      9  H   UNL     1       0.875   6.630  21.892  0.00  0.00    +0.000 HD
ENDROOT
BRANCH   1  12
ATOM     10  C   UNL     1      -0.022  10.279  18.768  0.00  0.00    +0.000 C 
ATOM     11  C   UNL     1      -0.005  10.170  20.267  0.00  0.00    +0.000 A 
ATOM     12  C   UNL     1       0.643   9.128  20.966  0.00  0.00    +0.000 A 
ATOM     13  C   UNL     1       0.498   9.053  22.375  0.00  0.00    +0.000 A 
ATOM     14  C   UNL     1      -0.249   9.983  23.102  0.00  0.00    +0.000 A 
ATOM     15  C   UNL     1      -0.856  11.035  22.438  0.00  0.00    +0.000 A 
ATOM     16  C   UNL     1      -0.721  11.125  21.043  0.00  0.00    +0.000 A 
BRANCH  16  17
ATOM     17  N   UNL     1      -1.376  12.267  20.415  0.00  0.00    +0.000 N 
ATOM     18  O   UNL     1      -0.692  13.283  20.249  0.00  0.00    +0.000 OA
ATOM     19  O   UNL     1      -2.565  12.138  20.111  0.00  0.00    +0.000 OA
ENDBRANCH  16  17
ENDBRANCH   1  12
BRANCH   7  20
ATOM     20  S   UNL     1       4.255   2.875  18.430  0.00  0.00    +0.000 S 
BRANCH  20  21
ATOM     21  C   UNL     1       4.770   4.071  17.177  0.00  0.00    +0.000 C 
BRANCH  21  22
ATOM     22  C   UNL     1       5.750   5.133  17.651  0.00  0.00    +0.000 A 
ATOM     23  C   UNL     1       6.521   4.886  18.806  0.00  0.00    +0.000 A 
ATOM     24  C   UNL     1       7.588   5.722  19.155  0.00  0.00    +0.000 A 
ATOM     25  C   UNL     1       7.904   6.825  18.367  0.00  0.00    +0.000 A 
ATOM     26  C   UNL     1       7.105   7.126  17.265  0.00  0.00    +0.000 A 
ATOM     27  C   UNL     1       6.018   6.302  16.923  0.00  0.00    +0.000 A 
ATOM     28 CL   UNL     1       5.056   6.778  15.568  0.00  0.00    +0.000 Cl
ENDBRANCH  21  22
ENDBRANCH  20  21
ENDBRANCH   7  20
TORSDOF 5
ENDMDL
MODEL 4
REMARK VINA RESULT:      -7.9      1.398      1.565
REMARK  Name = 
REMARK  6 active torsions:
REMARK  status: ('A' for Active; 'I' for Inactive)
REMARK    1  A    between atoms: C_1  and  C_2
REMARK    2  A    between atoms: C_3  and  C_4
REMARK    3  A    between atoms: C_10  and  S_11
REMARK    4  A    between atoms: S_11  and  C_12
REMARK    5  A    between atoms: C_12  and  C_13
REMARK    6  A    between atoms: C_24  and  N_25
REMARK                            x       y       z     vdW  Elec       q    Type
REMARK                         _______ _______ _______ _____ _____    ______ ____
ROOT
ATOM      1  C   UNL     1       2.862   7.230  17.997  0.00  0.00    +0.000 C 
ATOM      2  O   UNL     1       2.630   8.053  17.128  0.00  0.00    +0.000 OA
ATOM      3  N   UNL     1       2.412   7.302  19.306  0.00  0.00    +0.000 N 
ATOM      4  C   UNL     1       1.635   8.332  19.818  0.00  0.00    +0.000 A 
ATOM      5  N   UNL     1       1.021   8.256  20.985  0.00  0.00    +0.000 NA
ATOM      6  N   UNL     1       0.256   9.387  21.256  0.00  0.00    +0.000 NA
ATOM      7  C   UNL     1       0.362  10.297  20.309  0.00  0.00    +0.000 A 
ATOM      8  S   UNL     1       1.430   9.846  19.044  0.00  0.00    +0.000 S 
ATOM      9  H   UNL     1       2.559   6.542  19.948  0.00  0.00    +0.000 HD
ENDROOT
BRANCH   1  12
ATOM     10  C   UNL     1       5.953   7.296  17.327  0.00  0.00    +0.000 C 
ATOM     11  C   UNL     1       5.095   6.063  17.279  0.00  0.00    +0.000 A 
ATOM     12  C   UNL     1       3.717   6.059  17.586  0.00  0.00    +0.000 A 
ATOM     13  C   UNL     1       3.025   4.821  17.625  0.00  0.00    +0.000 A 
ATOM     14  C   UNL     1       3.654   3.603  17.352  0.00  0.00    +0.000 A 
ATOM     15  C   UNL     1       4.994   3.593  17.007  0.00  0.00    +0.000 A 
ATOM     16  C   UNL     1       5.692   4.810  16.963  0.00  0.00    +0.000 A 
BRANCH  16  17
ATOM     17  N   UNL     1       7.097   4.721  16.577  0.00  0.00    +0.000 N 
ATOM     18  O   UNL     1       7.905   4.442  17.469  0.00  0.00    +0.000 OA
ATOM     19  O   UNL     1       7.372   4.946  15.395  0.00  0.00    +0.000 OA
ENDBRANCH  16  17
ENDBRANCH   1  12
BRANCH   7  20
ATOM     20  S   UNL     1      -0.545  11.811  20.297  0.00  0.00    +0.000 S 
BRANCH  20  21
ATOM     21  C   UNL     1      -1.180  11.842  18.605  0.00  0.00    +0.000 C 
BRANCH  21  22
ATOM     22  C   UNL     1      -2.686  11.692  18.470  0.00  0.00    +0.000 A 
ATOM     23  C   UNL     1      -3.521  12.251  19.459  0.00  0.00    +0.000 A 
ATOM     24  C   UNL     1      -4.906  12.338  19.271  0.00  0.00    +0.000 A 
ATOM     25  C   UNL     1      -5.488  11.863  18.099  0.00  0.00    +0.000 A 
ATOM     26  C   UNL     1      -4.686  11.239  17.145  0.00  0.00    +0.000 A 
ATOM     27  C   UNL     1      -3.297  11.128  17.339  0.00  0.00    +0.000 A 
ATOM     28 CL   UNL     1      -2.390  10.299  16.125  0.00  0.00    +0.000 Cl
ENDBRANCH  21  22
ENDBRANCH  20  21
ENDBRANCH   7  20
TORSDOF 5
ENDMDL
MODEL 5
REMARK VINA RESULT:      -7.9      1.740      2.116
REMARK  Name = 
REMARK  6 active torsions:
REMARK  status: ('A' for Active; 'I' for Inactive)
REMARK    1  A    between atoms: C_1  and  C_2
REMARK    2  A    between atoms: C_3  and  C_4
REMARK    3  A    between atoms: C_10  and  S_11
REMARK    4  A    between atoms: S_11  and  C_12
REMARK    5  A    between atoms: C_12  and  C_13
REMARK    6  A    between atoms: C_24  and  N_25
REMARK                            x       y       z     vdW  Elec       q    Type
REMARK                         _______ _______ _______ _____ _____    ______ ____
ROOT
ATOM      1  C   UNL     1       2.646   7.449  18.097  0.00  0.00    +0.000 C 
ATOM      2  O   UNL     1       2.512   8.200  17.147  0.00  0.00    +0.000 OA
ATOM      3  N   UNL     1       2.155   7.680  19.372  0.00  0.00    +0.000 N 
ATOM      4  C   UNL     1       1.445   8.811  19.753  0.00  0.00    +0.000 A 
ATOM      5  N   UNL     1       0.786   8.895  20.893  0.00  0.00    +0.000 NA
ATOM      6  N   UNL     1       0.105  10.103  21.024  0.00  0.00    +0.000 NA
ATOM      7  C   UNL     1       0.318  10.907  20.002  0.00  0.00    +0.000 A 
ATOM      8  S   UNL     1       1.392  10.255  18.832  0.00  0.00    +0.000 S 
ATOM      9  H   UNL     1       2.218   6.976  20.089  0.00  0.00    +0.000 HD
ENDROOT
BRANCH   1  12
ATOM     10  C   UNL     1       5.744   7.219  17.501  0.00  0.00    +0.000 C 
ATOM     11  C   UNL     1       4.797   6.052  17.563  0.00  0.00    +0.000 A 
ATOM     12  C   UNL     1       3.417   6.181  17.834  0.00  0.00    +0.000 A 
ATOM     13  C   UNL     1       2.635   5.009  17.988  0.00  0.00    +0.000 A 
ATOM     14  C   UNL     1       3.176   3.726  17.862  0.00  0.00    +0.000 A 
ATOM     15  C   UNL     1       4.516   3.581  17.553  0.00  0.00    +0.000 A 
ATOM     16  C   UNL     1       5.304   4.733  17.397  0.00  0.00    +0.000 A 
BRANCH  16  17
ATOM     17  N   UNL     1       6.705   4.502  17.058  0.00  0.00    +0.000 N 
ATOM     18  O   UNL     1       6.983   4.413  15.857  0.00  0.00    +0.000 OA
ATOM     19  O   UNL     1       7.502   4.398  17.995  0.00  0.00    +0.000 OA
ENDBRANCH  16  17
ENDBRANCH   1  12
BRANCH   7  20
ATOM     20  S   UNL     1      -0.462  12.477  19.811  0.00  0.00    +0.000 S 
BRANCH  20  21
ATOM     21  C   UNL     1      -2.211  12.022  19.847  0.00  0.00    +0.000 C 
BRANCH  21  22
ATOM     22  C   UNL     1      -2.849  11.768  18.491  0.00  0.00    +0.000 A 
ATOM     23  C   UNL     1      -2.023  11.432  17.399  0.00  0.00    +0.000 A 
ATOM     24  C   UNL     1      -2.569  10.972  16.194  0.00  0.00    +0.000 A 
ATOM     25  C   UNL     1      -3.948  10.845  16.050  0.00  0.00    +0.000 A 
ATOM     26  C   UNL     1      -4.781  11.246  17.093  0.00  0.00    +0.000 A 
ATOM     27  C   UNL     1      -4.238  11.729  18.297  0.00  0.00    +0.000 A 
ATOM     28 CL   UNL     1      -5.348  12.245  19.518  0.00  0.00    +0.000 Cl
ENDBRANCH  21  22
ENDBRANCH  20  21
ENDBRANCH   7  20
TORSDOF 5
ENDMDL
MODEL 6
REMARK VINA RESULT:      -7.9      1.815      2.161
REMARK  Name = 
REMARK  6 active torsions:
REMARK  status: ('A' for Active; 'I' for Inactive)
REMARK    1  A    between atoms: C_1  and  C_2
REMARK    2  A    between atoms: C_3  and  C_4
REMARK    3  A    between atoms: C_10  and  S_11
REMARK    4  A    between atoms: S_11  and  C_12
REMARK    5  A    between atoms: C_12  and  C_13
REMARK    6  A    between atoms: C_24  and  N_25
REMARK                            x       y       z     vdW  Elec       q    Type
REMARK                         _______ _______ _______ _____ _____    ______ ____
ROOT
ATOM      1  C   UNL     1       2.694   7.096  18.302  0.00  0.00    +0.000 C 
ATOM      2  O   UNL     1       2.285   7.943  17.526  0.00  0.00    +0.000 OA
ATOM      3  N   UNL     1       2.437   7.070  19.663  0.00  0.00    +0.000 N 
ATOM      4  C   UNL     1       1.680   8.015  20.343  0.00  0.00    +0.000 A 
ATOM      5  N   UNL     1       1.251   7.838  21.578  0.00  0.00    +0.000 NA
ATOM      6  N   UNL     1       0.464   8.897  22.024  0.00  0.00    +0.000 NA
ATOM      7  C   UNL     1       0.372   9.858  21.127  0.00  0.00    +0.000 A 
ATOM      8  S   UNL     1       1.269   9.548  19.697  0.00  0.00    +0.000 S 
ATOM      9  H   UNL     1       2.726   6.291  20.232  0.00  0.00    +0.000 HD
ENDROOT
BRANCH   1  12
ATOM     10  C   UNL     1       5.703   7.373  17.366  0.00  0.00    +0.000 C 
ATOM     11  C   UNL     1       4.893   6.109  17.275  0.00  0.00    +0.000 A 
ATOM     12  C   UNL     1       3.551   6.011  17.703  0.00  0.00    +0.000 A 
ATOM     13  C   UNL     1       2.915   4.744  17.684  0.00  0.00    +0.000 A 
ATOM     14  C   UNL     1       3.562   3.588  17.237  0.00  0.00    +0.000 A 
ATOM     15  C   UNL     1       4.863   3.674  16.774  0.00  0.00    +0.000 A 
ATOM     16  C   UNL     1       5.506   4.922  16.786  0.00  0.00    +0.000 A 
BRANCH  16  17
ATOM     17  N   UNL     1       6.871   4.937  16.269  0.00  0.00    +0.000 N 
ATOM     18  O   UNL     1       7.025   5.328  15.107  0.00  0.00    +0.000 OA
ATOM     19  O   UNL     1       7.764   4.545  17.025  0.00  0.00    +0.000 OA
ENDBRANCH  16  17
ENDBRANCH   1  12
BRANCH   7  20
ATOM     20  S   UNL     1      -0.621  11.302  21.336  0.00  0.00    +0.000 S 
BRANCH  20  21
ATOM     21  C   UNL     1      -0.651  11.969  19.657  0.00  0.00    +0.000 C 
BRANCH  21  22
ATOM     22  C   UNL     1      -1.875  11.606  18.832  0.00  0.00    +0.000 A 
ATOM     23  C   UNL     1      -1.739  10.680  17.777  0.00  0.00    +0.000 A 
ATOM     24  C   UNL     1      -2.863  10.144  17.137  0.00  0.00    +0.000 A 
ATOM     25  C   UNL     1      -4.144  10.525  17.527  0.00  0.00    +0.000 A 
ATOM     26  C   UNL     1      -4.293  11.497  18.516  0.00  0.00    +0.000 A 
ATOM     27  C   UNL     1      -3.167  12.055  19.147  0.00  0.00    +0.000 A 
ATOM     28 CL   UNL     1      -3.447  13.285  20.328  0.00  0.00    +0.000 Cl
ENDBRANCH  21  22
ENDBRANCH  20  21
ENDBRANCH   7  20
TORSDOF 5
ENDMDL
MODEL 7
REMARK VINA RESULT:      -7.8      2.488      3.090
REMARK  Name = 
REMARK  6 active torsions:
REMARK  status: ('A' for Active; 'I' for Inactive)
REMARK    1  A    between atoms: C_1  and  C_2
REMARK    2  A    between atoms: C_3  and  C_4
REMARK    3  A    between atoms: C_10  and  S_11
REMARK    4  A    between atoms: S_11  and  C_12
REMARK    5  A    between atoms: C_12  and  C_13
REMARK    6  A    between atoms: C_24  and  N_25
REMARK                            x       y       z     vdW  Elec       q    Type
REMARK                         _______ _______ _______ _____ _____    ______ ____
ROOT
ATOM      1  C   UNL     1       2.573   7.461  18.394  0.00  0.00    +0.000 C 
ATOM      2  O   UNL     1       2.394   8.157  17.410  0.00  0.00    +0.000 OA
ATOM      3  N   UNL     1       2.104   7.743  19.667  0.00  0.00    +0.000 N 
ATOM      4  C   UNL     1       1.366   8.869  20.006  0.00  0.00    +0.000 A 
ATOM      5  N   UNL     1       0.730   8.991  21.156  0.00  0.00    +0.000 NA
ATOM      6  N   UNL     1       0.014  10.182  21.242  0.00  0.00    +0.000 NA
ATOM      7  C   UNL     1       0.178  10.939  20.175  0.00  0.00    +0.000 A 
ATOM      8  S   UNL     1       1.245  10.261  19.015  0.00  0.00    +0.000 S 
ATOM      9  H   UNL     1       2.205   7.079  20.417  0.00  0.00    +0.000 HD
ENDROOT
BRANCH   1  12
ATOM     10  C   UNL     1       2.151   4.679  19.839  0.00  0.00    +0.000 C 
ATOM     11  C   UNL     1       3.214   4.955  18.812  0.00  0.00    +0.000 A 
ATOM     12  C   UNL     1       3.379   6.206  18.178  0.00  0.00    +0.000 A 
ATOM     13  C   UNL     1       4.334   6.328  17.138  0.00  0.00    +0.000 A 
ATOM     14  C   UNL     1       5.135   5.258  16.727  0.00  0.00    +0.000 A 
ATOM     15  C   UNL     1       5.016   4.037  17.366  0.00  0.00    +0.000 A 
ATOM     16  C   UNL     1       4.075   3.900  18.399  0.00  0.00    +0.000 A 
BRANCH  16  17
ATOM     17  N   UNL     1       4.018   2.588  19.035  0.00  0.00    +0.000 N 
ATOM     18  O   UNL     1       3.226   1.768  18.556  0.00  0.00    +0.000 OA
ATOM     19  O   UNL     1       4.751   2.402  20.010  0.00  0.00    +0.000 OA
ENDBRANCH  16  17
ENDBRANCH   1  12
BRANCH   7  20
ATOM     20  S   UNL     1      -0.658  12.472  19.922  0.00  0.00    +0.000 S 
BRANCH  20  21
ATOM     21  C   UNL     1      -2.386  11.943  19.883  0.00  0.00    +0.000 C 
BRANCH  21  22
ATOM     22  C   UNL     1      -2.972  11.732  18.497  0.00  0.00    +0.000 A 
ATOM     23  C   UNL     1      -2.109  11.409  17.430  0.00  0.00    +0.000 A 
ATOM     24  C   UNL     1      -2.613  10.986  16.194  0.00  0.00    +0.000 A 
ATOM     25  C   UNL     1      -3.987  10.884  15.992  0.00  0.00    +0.000 A 
ATOM     26  C   UNL     1      -4.855  11.272  17.012  0.00  0.00    +0.000 A 
ATOM     27  C   UNL     1      -4.353  11.719  18.247  0.00  0.00    +0.000 A 
ATOM     28 CL   UNL     1      -5.503  12.222  19.435  0.00  0.00    +0.000 Cl
ENDBRANCH  21  22
ENDBRANCH  20  21
ENDBRANCH   7  20
TORSDOF 5
ENDMDL
MODEL 8
REMARK VINA RESULT:      -7.8      2.687      3.243
REMARK  Name = 
REMARK  6 active torsions:
REMARK  status: ('A' for Active; 'I' for Inactive)
REMARK    1  A    between atoms: C_1  and  C_2
REMARK    2  A    between atoms: C_3  and  C_4
REMARK    3  A    between atoms: C_10  and  S_11
REMARK    4  A    between atoms: S_11  and  C_12
REMARK    5  A    between atoms: C_12  and  C_13
REMARK    6  A    between atoms: C_24  and  N_25
REMARK                            x       y       z     vdW  Elec       q    Type
REMARK                         _______ _______ _______ _____ _____    ______ ____
ROOT
ATOM      1  C   UNL     1       2.273   7.288  19.223  0.00  0.00    +0.000 C 
ATOM      2  O   UNL     1       1.701   7.876  18.320  0.00  0.00    +0.000 OA
ATOM      3  N   UNL     1       2.176   7.605  20.568  0.00  0.00    +0.000 N 
ATOM      4  C   UNL     1       1.417   8.649  21.082  0.00  0.00    +0.000 A 
ATOM      5  N   UNL     1       1.149   8.777  22.368  0.00  0.00    +0.000 NA
ATOM      6  N   UNL     1       0.324   9.867  22.632  0.00  0.00    +0.000 NA
ATOM      7  C   UNL     1       0.042  10.552  21.542  0.00  0.00    +0.000 A 
ATOM      8  S   UNL     1       0.795   9.931  20.131  0.00  0.00    +0.000 S 
ATOM      9  H   UNL     1       2.597   7.022  21.271  0.00  0.00    +0.000 HD
ENDROOT
BRANCH   1  12
ATOM     10  C   UNL     1       2.149   4.330  20.335  0.00  0.00    +0.000 C 
ATOM     11  C   UNL     1       3.120   4.811  19.291  0.00  0.00    +0.000 A 
ATOM     12  C   UNL     1       3.152   6.137  18.809  0.00  0.00    +0.000 A 
ATOM     13  C   UNL     1       4.026   6.458  17.740  0.00  0.00    +0.000 A 
ATOM     14  C   UNL     1       4.874   5.512  17.156  0.00  0.00    +0.000 A 
ATOM     15  C   UNL     1       4.887   4.218  17.645  0.00  0.00    +0.000 A 
ATOM     16  C   UNL     1       4.027   3.885  18.704  0.00  0.00    +0.000 A 
BRANCH  16  17
ATOM     17  N   UNL     1       4.107   2.506  19.176  0.00  0.00    +0.000 N 
ATOM     18  O   UNL     1       3.414   1.671  18.584  0.00  0.00    +0.000 OA
ATOM     19  O   UNL     1       4.847   2.281  20.138  0.00  0.00    +0.000 OA
ENDBRANCH  16  17
ENDBRANCH   1  12
BRANCH   7  20
ATOM     20  S   UNL     1      -1.049  11.938  21.511  0.00  0.00    +0.000 S 
BRANCH  20  21
ATOM     21  C   UNL     1      -1.047  12.363  19.754  0.00  0.00    +0.000 C 
BRANCH  21  22
ATOM     22  C   UNL     1      -2.259  11.892  18.967  0.00  0.00    +0.000 A 
ATOM     23  C   UNL     1      -2.080  10.949  17.933  0.00  0.00    +0.000 A 
ATOM     24  C   UNL     1      -3.177  10.318  17.333  0.00  0.00    +0.000 A 
ATOM     25  C   UNL     1      -4.473  10.619  17.743  0.00  0.00    +0.000 A 
ATOM     26  C   UNL     1      -4.669  11.604  18.709  0.00  0.00    +0.000 A 
ATOM     27  C   UNL     1      -3.573  12.257  19.299  0.00  0.00    +0.000 A 
ATOM     28 CL   UNL     1      -3.914  13.496  20.455  0.00  0.00    +0.000 Cl
ENDBRANCH  21  22
ENDBRANCH  20  21
ENDBRANCH   7  20
TORSDOF 5
ENDMDL
MODEL 9
REMARK VINA RESULT:      -7.6      1.659      2.169
REMARK  Name = 
REMARK  6 active torsions:
REMARK  status: ('A' for Active; 'I' for Inactive)
REMARK    1  A    between atoms: C_1  and  C_2
REMARK    2  A    between atoms: C_3  and  C_4
REMARK    3  A    between atoms: C_10  and  S_11
REMARK    4  A    between atoms: S_11  and  C_12
REMARK    5  A    between atoms: C_12  and  C_13
REMARK    6  A    between atoms: C_24  and  N_25
REMARK                            x       y       z     vdW  Elec       q    Type
REMARK                         _______ _______ _______ _____ _____    ______ ____
ROOT
ATOM      1  C   UNL     1       3.006   6.804  18.687  0.00  0.00    +0.000 C 
ATOM      2  O   UNL     1       2.980   6.537  19.876  0.00  0.00    +0.000 OA
ATOM      3  N   UNL     1       2.422   7.918  18.105  0.00  0.00    +0.000 N 
ATOM      4  C   UNL     1       1.712   8.889  18.798  0.00  0.00    +0.000 A 
ATOM      5  N   UNL     1       1.380  10.051  18.266  0.00  0.00    +0.000 NA
ATOM      6  N   UNL     1       0.723  10.880  19.172  0.00  0.00    +0.000 NA
ATOM      7  C   UNL     1       0.537  10.294  20.338  0.00  0.00    +0.000 A 
ATOM      8  S   UNL     1       1.119   8.681  20.392  0.00  0.00    +0.000 S 
ATOM      9  H   UNL     1       2.561   8.129  17.131  0.00  0.00    +0.000 HD
ENDROOT
BRANCH   1  12
ATOM     10  C   UNL     1       5.874   7.180  17.407  0.00  0.00    +0.000 C 
ATOM     11  C   UNL     1       5.008   5.966  17.220  0.00  0.00    +0.000 A 
ATOM     12  C   UNL     1       3.731   5.820  17.805  0.00  0.00    +0.000 A 
ATOM     13  C   UNL     1       3.047   4.586  17.663  0.00  0.00    +0.000 A 
ATOM     14  C   UNL     1       3.582   3.512  16.947  0.00  0.00    +0.000 A 
ATOM     15  C   UNL     1       4.812   3.651  16.331  0.00  0.00    +0.000 A 
ATOM     16  C   UNL     1       5.502   4.867  16.461  0.00  0.00    +0.000 A 
BRANCH  16  17
ATOM     17  N   UNL     1       6.786   4.945  15.772  0.00  0.00    +0.000 N 
ATOM     18  O   UNL     1       7.776   4.528  16.384  0.00  0.00    +0.000 OA
ATOM     19  O   UNL     1       6.789   5.434  14.639  0.00  0.00    +0.000 OA
ENDBRANCH  16  17
ENDBRANCH   1  12
BRANCH   7  20
ATOM     20  S   UNL     1      -0.184  11.096  21.734  0.00  0.00    +0.000 S 
BRANCH  20  21
ATOM     21  C   UNL     1      -1.506  12.055  20.961  0.00  0.00    +0.000 C 
BRANCH  21  22
ATOM     22  C   UNL     1      -2.748  12.259  21.813  0.00  0.00    +0.000 A 
ATOM     23  C   UNL     1      -2.630  12.219  23.217  0.00  0.00    +0.000 A 
ATOM     24  C   UNL     1      -3.686  12.620  24.044  0.00  0.00    +0.000 A 
ATOM     25  C   UNL     1      -4.885  13.061  23.489  0.00  0.00    +0.000 A 
ATOM     26  C   UNL     1      -5.044  13.035  22.105  0.00  0.00    +0.000 A 
ATOM     27  C   UNL     1      -3.994  12.612  21.271  0.00  0.00    +0.000 A 
ATOM     28 CL   UNL     1      -4.299  12.570  19.570  0.00  0.00    +0.000 Cl
ENDBRANCH  21  22
ENDBRANCH  20  21
ENDBRANCH   7  20
TORSDOF 5
ENDMDL
