MODEL 1
REMARK VINA RESULT:      -8.1      0.000      0.000
REMARK  Name = 
REMARK  4 active torsions:
REMARK  status: ('A' for Active; 'I' for Inactive)
REMARK    1  A    between atoms: O_1  and  C_2
REMARK    2  A    between atoms: C_4  and  N_5
REMARK    3  A    between atoms: N_10  and  C_11
REMARK    4  A    between atoms: C_25  and  O_26
REMARK                            x       y       z     vdW  Elec       q    Type
REMARK                         _______ _______ _______ _____ _____    ______ ____
ROOT
ATOM      1  N   UNL     1       0.979   9.440  19.528  0.00  0.00    +0.000 N 
ATOM      2  C   UNL     1       0.566   8.983  20.754  0.00  0.00    +0.000 A 
ATOM      3  N   UNL     1       1.091   7.806  21.037  0.00  0.00    +0.000 NA
ATOM      4  C   UNL     1       1.895   7.496  19.951  0.00  0.00    +0.000 A 
ATOM      5  C   UNL     1       2.708   6.367  19.652  0.00  0.00    +0.000 A 
ATOM      6  N   UNL     1       2.808   5.289  20.518  0.00  0.00    +0.000 N 
ATOM      7  N   UNL     1       3.411   6.393  18.494  0.00  0.00    +0.000 NA
ATOM      8  C   UNL     1       3.297   7.476  17.700  0.00  0.00    +0.000 A 
ATOM      9 CL   UNL     1       4.299   7.490  16.311  0.00  0.00    +0.000 Cl
ATOM     10  N   UNL     1       2.541   8.576  17.860  0.00  0.00    +0.000 NA
ATOM     11  C   UNL     1       1.851   8.517  19.009  0.00  0.00    +0.000 A 
ATOM     12  H   UNL     1       2.131   5.316  21.276  0.00  0.00    +0.000 HD
ENDROOT
BRANCH   6  13
ATOM     13  C   UNL     1       3.324   3.988  20.110  0.00  0.00    +0.000 C 
ATOM     14  C   UNL     1       2.754   2.892  21.046  0.00  0.00    +0.000 C 
ATOM     15  C   UNL     1       1.907   2.011  20.109  0.00  0.00    +0.000 C 
ATOM     16  C   UNL     1       0.700   2.777  19.533  0.00  0.00    +0.000 C 
ATOM     17  C   UNL     1       1.339   3.759  18.541  0.00  0.00    +0.000 C 
ATOM     18  C   UNL     1       2.839   3.485  18.720  0.00  0.00    +0.000 C 
ATOM     19  C   UNL     1       2.823   1.953  18.892  0.00  0.00    +0.000 C 
ENDBRANCH   6  13
BRANCH   1  22
ATOM     20  C   UNL     1      -1.781  11.315  18.154  0.00  0.00    +0.000 C 
ATOM     21  C   UNL     1      -0.608  10.390  17.759  0.00  0.00    +0.000 C 
ATOM     22  C   UNL     1       0.433  10.614  18.850  0.00  0.00    +0.000 C 
ATOM     23  C   UNL     1       1.395  11.813  18.760  0.00  0.00    +0.000 C 
ATOM     24  C   UNL     1       0.090  11.966  19.459  0.00  0.00    +0.000 C 
ATOM     25  C   UNL     1      -1.088  12.564  18.737  0.00  0.00    +0.000 C 
BRANCH  20  26
ATOM     26  O   UNL     1      -2.592  11.611  17.030  0.00  0.00    +0.000 OA
ATOM     27  H   UNL     1      -2.127  11.274  16.243  0.00  0.00    +0.000 HD
ENDBRANCH  20  26
BRANCH  25  28
ATOM     28  O   UNL     1      -0.618  13.447  17.717  0.00  0.00    +0.000 OA
ATOM     29  H   UNL     1      -1.169  14.249  17.757  0.00  0.00    +0.000 HD
ENDBRANCH  25  28
ENDBRANCH   1  22
TORSDOF 4
ENDMDL
MODEL 2
REMARK VINA RESULT:      -7.9      3.165      4.260
REMARK  Name = 
REMARK  4 active torsions:
REMARK  status: ('A' for Active; 'I' for Inactive)
REMARK    1  A    between atoms: O_1  and  C_2
REMARK    2  A    between atoms: C_4  and  N_5
REMARK    3  A    between atoms: N_10  and  C_11
REMARK    4  A    between atoms: C_25  and  O_26
REMARK                            x       y       z     vdW  Elec       q    Type
REMARK                         _______ _______ _______ _____ _____    ______ ____
ROOT
ATOM      1  N   UNL     1       1.149   8.970  19.221  0.00  0.00    +0.000 N 
ATOM      2  C   UNL     1       1.601   9.519  18.049  0.00  0.00    +0.000 A 
ATOM      3  N   UNL     1       2.524   8.765  17.482  0.00  0.00    +0.000 NA
ATOM      4  C   UNL     1       2.662   7.668  18.319  0.00  0.00    +0.000 A 
ATOM      5  C   UNL     1       3.501   6.520  18.264  0.00  0.00    +0.000 A 
ATOM      6  N   UNL     1       4.412   6.330  17.237  0.00  0.00    +0.000 N 
ATOM      7  N   UNL     1       3.359   5.596  19.245  0.00  0.00    +0.000 NA
ATOM      8  C   UNL     1       2.441   5.818  20.206  0.00  0.00    +0.000 A 
ATOM      9 CL   UNL     1       2.237   4.557  21.347  0.00  0.00    +0.000 Cl
ATOM     10  N   UNL     1       1.623   6.871  20.379  0.00  0.00    +0.000 NA
ATOM     11  C   UNL     1       1.794   7.772  19.399  0.00  0.00    +0.000 A 
ATOM     12  H   UNL     1       4.531   7.148  16.647  0.00  0.00    +0.000 HD
ENDROOT
BRANCH   6  13
ATOM     13  C   UNL     1       5.517   5.382  17.321  0.00  0.00    +0.000 C 
ATOM     14  C   UNL     1       5.011   3.968  16.935  0.00  0.00    +0.000 C 
ATOM     15  C   UNL     1       5.805   3.628  15.660  0.00  0.00    +0.000 C 
ATOM     16  C   UNL     1       5.444   4.565  14.490  0.00  0.00    +0.000 C 
ATOM     17  C   UNL     1       6.072   5.906  14.897  0.00  0.00    +0.000 C 
ATOM     18  C   UNL     1       6.655   5.593  16.283  0.00  0.00    +0.000 C 
ATOM     19  C   UNL     1       7.179   4.162  16.048  0.00  0.00    +0.000 C 
ENDBRANCH   6  13
BRANCH   1  22
ATOM     20  C   UNL     1       0.291   9.998  22.572  0.00  0.00    +0.000 C 
ATOM     21  C   UNL     1      -0.032   8.942  21.492  0.00  0.00    +0.000 C 
ATOM     22  C   UNL     1       0.269   9.646  20.173  0.00  0.00    +0.000 C 
ATOM     23  C   UNL     1      -0.785  10.568  19.535  0.00  0.00    +0.000 C 
ATOM     24  C   UNL     1       0.207  11.133  20.489  0.00  0.00    +0.000 C 
ATOM     25  C   UNL     1      -0.163  11.329  21.936  0.00  0.00    +0.000 C 
BRANCH  20  26
ATOM     26  O   UNL     1      -0.387   9.708  23.782  0.00  0.00    +0.000 OA
ATOM     27  H   UNL     1       0.280   9.702  24.492  0.00  0.00    +0.000 HD
ENDBRANCH  20  26
BRANCH  25  28
ATOM     28  O   UNL     1      -1.574  11.524  22.040  0.00  0.00    +0.000 OA
ATOM     29  H   UNL     1      -1.880  10.994  22.798  0.00  0.00    +0.000 HD
ENDBRANCH  25  28
ENDBRANCH   1  22
TORSDOF 4
ENDMDL
MODEL 3
REMARK VINA RESULT:      -7.9      3.272      4.505
REMARK  Name = 
REMARK  4 active torsions:
REMARK  status: ('A' for Active; 'I' for Inactive)
REMARK    1  A    between atoms: O_1  and  C_2
REMARK    2  A    between atoms: C_4  and  N_5
REMARK    3  A    between atoms: N_10  and  C_11
REMARK    4  A    between atoms: C_25  and  O_26
REMARK                            x       y       z     vdW  Elec       q    Type
REMARK                         _______ _______ _______ _____ _____    ______ ____
ROOT
ATOM      1  N   UNL     1       1.215   8.729  19.315  0.00  0.00    +0.000 N 
ATOM      2  C   UNL     1       1.712   9.245  18.145  0.00  0.00    +0.000 A 
ATOM      3  N   UNL     1       2.580   8.426  17.581  0.00  0.00    +0.000 NA
ATOM      4  C   UNL     1       2.634   7.322  18.417  0.00  0.00    +0.000 A 
ATOM      5  C   UNL     1       3.388   6.116  18.365  0.00  0.00    +0.000 A 
ATOM      6  N   UNL     1       4.287   5.861  17.341  0.00  0.00    +0.000 N 
ATOM      7  N   UNL     1       3.174   5.203  19.343  0.00  0.00    +0.000 NA
ATOM      8  C   UNL     1       2.270   5.491  20.300  0.00  0.00    +0.000 A 
ATOM      9 CL   UNL     1       1.970   4.247  21.439  0.00  0.00    +0.000 Cl
ATOM     10  N   UNL     1       1.531   6.600  20.471  0.00  0.00    +0.000 NA
ATOM     11  C   UNL     1       1.771   7.487  19.494  0.00  0.00    +0.000 A 
ATOM     12  H   UNL     1       4.468   6.669  16.753  0.00  0.00    +0.000 HD
ENDROOT
BRANCH   6  13
ATOM     13  C   UNL     1       5.320   4.835  17.429  0.00  0.00    +0.000 C 
ATOM     14  C   UNL     1       5.852   4.519  16.008  0.00  0.00    +0.000 C 
ATOM     15  C   UNL     1       7.331   4.948  16.064  0.00  0.00    +0.000 C 
ATOM     16  C   UNL     1       7.482   6.468  16.269  0.00  0.00    +0.000 C 
ATOM     17  C   UNL     1       7.043   6.679  17.725  0.00  0.00    +0.000 C 
ATOM     18  C   UNL     1       6.626   5.266  18.156  0.00  0.00    +0.000 C 
ATOM     19  C   UNL     1       7.709   4.428  17.447  0.00  0.00    +0.000 C 
ENDBRANCH   6  13
BRANCH   1  22
ATOM     20  C   UNL     1       0.438   9.840  22.658  0.00  0.00    +0.000 C 
ATOM     21  C   UNL     1       0.047   8.795  21.591  0.00  0.00    +0.000 C 
ATOM     22  C   UNL     1       0.383   9.466  20.263  0.00  0.00    +0.000 C 
ATOM     23  C   UNL     1      -0.617  10.444  19.621  0.00  0.00    +0.000 C 
ATOM     24  C   UNL     1       0.412  10.957  20.565  0.00  0.00    +0.000 C 
ATOM     25  C   UNL     1       0.061  11.190  22.011  0.00  0.00    +0.000 C 
BRANCH  20  26
ATOM     26  O   UNL     1      -0.251   9.603  23.874  0.00  0.00    +0.000 OA
ATOM     27  H   UNL     1       0.387   9.203  24.493  0.00  0.00    +0.000 HD
ENDBRANCH  20  26
BRANCH  25  28
ATOM     28  O   UNL     1      -1.335  11.470  22.119  0.00  0.00    +0.000 OA
ATOM     29  H   UNL     1      -1.641  11.074  22.955  0.00  0.00    +0.000 HD
ENDBRANCH  25  28
ENDBRANCH   1  22
TORSDOF 4
ENDMDL
MODEL 4
REMARK VINA RESULT:      -7.6      3.019      4.370
REMARK  Name = 
REMARK  4 active torsions:
REMARK  status: ('A' for Active; 'I' for Inactive)
REMARK    1  A    between atoms: O_1  and  C_2
REMARK    2  A    between atoms: C_4  and  N_5
REMARK    3  A    between atoms: N_10  and  C_11
REMARK    4  A    between atoms: C_25  and  O_26
REMARK                            x       y       z     vdW  Elec       q    Type
REMARK                         _______ _______ _______ _____ _____    ______ ____
ROOT
ATOM      1  N   UNL     1       1.374   8.928  19.361  0.00  0.00    +0.000 N 
ATOM      2  C   UNL     1       1.750   9.418  18.136  0.00  0.00    +0.000 A 
ATOM      3  N   UNL     1       2.517   8.565  17.484  0.00  0.00    +0.000 NA
ATOM      4  C   UNL     1       2.628   7.464  18.319  0.00  0.00    +0.000 A 
ATOM      5  C   UNL     1       3.327   6.232  18.192  0.00  0.00    +0.000 A 
ATOM      6  N   UNL     1       4.092   5.938  17.074  0.00  0.00    +0.000 N 
ATOM      7  N   UNL     1       3.195   5.333  19.198  0.00  0.00    +0.000 NA
ATOM      8  C   UNL     1       2.419   5.659  20.250  0.00  0.00    +0.000 A 
ATOM      9 CL   UNL     1       2.208   4.433  21.428  0.00  0.00    +0.000 Cl
ATOM     10  N   UNL     1       1.745   6.795  20.494  0.00  0.00    +0.000 NA
ATOM     11  C   UNL     1       1.902   7.668  19.487  0.00  0.00    +0.000 A 
ATOM     12  H   UNL     1       4.232   6.735  16.460  0.00  0.00    +0.000 HD
ENDROOT
BRANCH   6  13
ATOM     13  C   UNL     1       5.090   4.875  17.052  0.00  0.00    +0.000 C 
ATOM     14  C   UNL     1       5.743   4.812  15.647  0.00  0.00    +0.000 C 
ATOM     15  C   UNL     1       7.219   5.165  15.910  0.00  0.00    +0.000 C 
ATOM     16  C   UNL     1       7.383   6.613  16.414  0.00  0.00    +0.000 C 
ATOM     17  C   UNL     1       6.817   6.563  17.841  0.00  0.00    +0.000 C 
ATOM     18  C   UNL     1       6.333   5.110  17.956  0.00  0.00    +0.000 C 
ATOM     19  C   UNL     1       7.458   4.381  17.195  0.00  0.00    +0.000 C 
ENDBRANCH   6  13
BRANCH   1  22
ATOM     20  C   UNL     1       0.414  12.063  20.866  0.00  0.00    +0.000 C 
ATOM     21  C   UNL     1       1.414  10.894  20.999  0.00  0.00    +0.000 C 
ATOM     22  C   UNL     1       0.684   9.701  20.392  0.00  0.00    +0.000 C 
ATOM     23  C   UNL     1      -0.315   8.897  21.242  0.00  0.00    +0.000 C 
ATOM     24  C   UNL     1      -0.793  10.063  20.452  0.00  0.00    +0.000 C 
ATOM     25  C   UNL     1      -0.960  11.406  21.113  0.00  0.00    +0.000 C 
BRANCH  20  26
ATOM     26  O   UNL     1       0.708  13.088  21.800  0.00  0.00    +0.000 OA
ATOM     27  H   UNL     1       1.227  12.683  22.518  0.00  0.00    +0.000 HD
ENDBRANCH  20  26
BRANCH  25  28
ATOM     28  O   UNL     1      -1.226  11.217  22.504  0.00  0.00    +0.000 OA
ATOM     29  H   UNL     1      -0.868  10.344  22.747  0.00  0.00    +0.000 HD
ENDBRANCH  25  28
ENDBRANCH   1  22
TORSDOF 4
ENDMDL
MODEL 5
REMARK VINA RESULT:      -7.6      2.402      3.305
REMARK  Name = 
REMARK  4 active torsions:
REMARK  status: ('A' for Active; 'I' for Inactive)
REMARK    1  A    between atoms: O_1  and  C_2
REMARK    2  A    between atoms: C_4  and  N_5
REMARK    3  A    between atoms: N_10  and  C_11
REMARK    4  A    between atoms: C_25  and  O_26
REMARK                            x       y       z     vdW  Elec       q    Type
REMARK                         _______ _______ _______ _____ _____    ______ ____
ROOT
ATOM      1  N   UNL     1       1.399  11.266  18.910  0.00  0.00    +0.000 N 
ATOM      2  C   UNL     1       1.861  10.655  17.772  0.00  0.00    +0.000 A 
ATOM      3  N   UNL     1       2.030   9.358  17.951  0.00  0.00    +0.000 NA
ATOM      4  C   UNL     1       1.642   9.117  19.259  0.00  0.00    +0.000 A 
ATOM      5  C   UNL     1       1.606   7.932  20.046  0.00  0.00    +0.000 A 
ATOM      6  N   UNL     1       2.014   6.708  19.540  0.00  0.00    +0.000 N 
ATOM      7  N   UNL     1       1.128   8.036  21.309  0.00  0.00    +0.000 NA
ATOM      8  C   UNL     1       0.720   9.245  21.743  0.00  0.00    +0.000 A 
ATOM      9 CL   UNL     1       0.024   9.279  23.307  0.00  0.00    +0.000 Cl
ATOM     10  N   UNL     1       0.739  10.430  21.109  0.00  0.00    +0.000 NA
ATOM     11  C   UNL     1       1.225  10.297  19.865  0.00  0.00    +0.000 A 
ATOM     12  H   UNL     1       2.484   6.779  18.642  0.00  0.00    +0.000 HD
ENDROOT
BRANCH   6  13
ATOM     13  C   UNL     1       2.331   5.564  20.388  0.00  0.00    +0.000 C 
ATOM     14  C   UNL     1       1.072   4.673  20.539  0.00  0.00    +0.000 C 
ATOM     15  C   UNL     1       1.481   3.342  19.881  0.00  0.00    +0.000 C 
ATOM     16  C   UNL     1       1.733   3.503  18.368  0.00  0.00    +0.000 C 
ATOM     17  C   UNL     1       3.047   4.295  18.306  0.00  0.00    +0.000 C 
ATOM     18  C   UNL     1       3.350   4.554  19.789  0.00  0.00    +0.000 C 
ATOM     19  C   UNL     1       2.907   3.211  20.402  0.00  0.00    +0.000 C 
ENDBRANCH   6  13
BRANCH   1  22
ATOM     20  C   UNL     1      -0.463  14.217  19.831  0.00  0.00    +0.000 C 
ATOM     21  C   UNL     1       0.016  13.399  18.612  0.00  0.00    +0.000 C 
ATOM     22  C   UNL     1       1.290  12.712  19.093  0.00  0.00    +0.000 C 
ATOM     23  C   UNL     1       2.629  13.470  19.067  0.00  0.00    +0.000 C 
ATOM     24  C   UNL     1       1.767  13.540  20.277  0.00  0.00    +0.000 C 
ATOM     25  C   UNL     1       0.845  14.713  20.482  0.00  0.00    +0.000 C 
BRANCH  20  26
ATOM     26  O   UNL     1      -1.313  15.276  19.427  0.00  0.00    +0.000 OA
ATOM     27  H   UNL     1      -1.014  16.079  19.892  0.00  0.00    +0.000 HD
ENDBRANCH  20  26
BRANCH  25  28
ATOM     28  O   UNL     1       1.381  15.856  19.812  0.00  0.00    +0.000 OA
ATOM     29  H   UNL     1       0.892  16.633  20.140  0.00  0.00    +0.000 HD
ENDBRANCH  25  28
ENDBRANCH   1  22
TORSDOF 4
ENDMDL
MODEL 6
REMARK VINA RESULT:      -7.4      2.678      3.835
REMARK  Name = 
REMARK  4 active torsions:
REMARK  status: ('A' for Active; 'I' for Inactive)
REMARK    1  A    between atoms: O_1  and  C_2
REMARK    2  A    between atoms: C_4  and  N_5
REMARK    3  A    between atoms: N_10  and  C_11
REMARK    4  A    between atoms: C_25  and  O_26
REMARK                            x       y       z     vdW  Elec       q    Type
REMARK                         _______ _______ _______ _____ _____    ______ ____
ROOT
ATOM      1  N   UNL     1       1.214  11.519  19.273  0.00  0.00    +0.000 N 
ATOM      2  C   UNL     1       1.580  10.971  18.070  0.00  0.00    +0.000 A 
ATOM      3  N   UNL     1       1.771   9.668  18.166  0.00  0.00    +0.000 NA
ATOM      4  C   UNL     1       1.499   9.357  19.489  0.00  0.00    +0.000 A 
ATOM      5  C   UNL     1       1.539   8.133  20.213  0.00  0.00    +0.000 A 
ATOM      6  N   UNL     1       1.908   6.940  19.612  0.00  0.00    +0.000 N 
ATOM      7  N   UNL     1       1.171   8.167  21.517  0.00  0.00    +0.000 NA
ATOM      8  C   UNL     1       0.795   9.349  22.045  0.00  0.00    +0.000 A 
ATOM      9 CL   UNL     1       0.236   9.297  23.664  0.00  0.00    +0.000 Cl
ATOM     10  N   UNL     1       0.752  10.564  21.474  0.00  0.00    +0.000 NA
ATOM     11  C   UNL     1       1.130  10.500  20.189  0.00  0.00    +0.000 A 
ATOM     12  H   UNL     1       2.298   7.062  18.681  0.00  0.00    +0.000 HD
ENDROOT
BRANCH   6  13
ATOM     13  C   UNL     1       2.304   5.758  20.369  0.00  0.00    +0.000 C 
ATOM     14  C   UNL     1       1.096   4.795  20.485  0.00  0.00    +0.000 C 
ATOM     15  C   UNL     1       1.554   3.536  19.725  0.00  0.00    +0.000 C 
ATOM     16  C   UNL     1       1.759   3.815  18.222  0.00  0.00    +0.000 C 
ATOM     17  C   UNL     1       3.029   4.677  18.187  0.00  0.00    +0.000 C 
ATOM     18  C   UNL     1       3.357   4.847  19.678  0.00  0.00    +0.000 C 
ATOM     19  C   UNL     1       2.998   3.443  20.204  0.00  0.00    +0.000 C 
ENDBRANCH   6  13
BRANCH   1  22
ATOM     20  C   UNL     1       2.665  14.815  19.497  0.00  0.00    +0.000 C 
ATOM     21  C   UNL     1       2.223  13.608  20.354  0.00  0.00    +0.000 C 
ATOM     22  C   UNL     1       1.113  12.952  19.539  0.00  0.00    +0.000 C 
ATOM     23  C   UNL     1      -0.325  13.494  19.624  0.00  0.00    +0.000 C 
ATOM     24  C   UNL     1       0.608  14.040  18.602  0.00  0.00    +0.000 C 
ATOM     25  C   UNL     1       1.351  15.323  18.867  0.00  0.00    +0.000 C 
BRANCH  20  26
ATOM     26  O   UNL     1       3.306  15.794  20.296  0.00  0.00    +0.000 OA
ATOM     27  H   UNL     1       4.111  15.386  20.661  0.00  0.00    +0.000 HD
ENDBRANCH  20  26
BRANCH  25  28
ATOM     28  O   UNL     1       0.594  16.128  19.772  0.00  0.00    +0.000 OA
ATOM     29  H   UNL     1      -0.060  16.617  19.240  0.00  0.00    +0.000 HD
ENDBRANCH  25  28
ENDBRANCH   1  22
TORSDOF 4
ENDMDL
MODEL 7
REMARK VINA RESULT:      -7.4      3.652      8.122
REMARK  Name = 
REMARK  4 active torsions:
REMARK  status: ('A' for Active; 'I' for Inactive)
REMARK    1  A    between atoms: O_1  and  C_2
REMARK    2  A    between atoms: C_4  and  N_5
REMARK    3  A    between atoms: N_10  and  C_11
REMARK    4  A    between atoms: C_25  and  O_26
REMARK                            x       y       z     vdW  Elec       q    Type
REMARK                         _______ _______ _______ _____ _____    ______ ____
ROOT
ATOM      1  N   UNL     1       2.363   7.227  19.131  0.00  0.00    +0.000 N 
ATOM      2  C   UNL     1       2.619   7.739  17.884  0.00  0.00    +0.000 A 
ATOM      3  N   UNL     1       2.147   8.964  17.754  0.00  0.00    +0.000 NA
ATOM      4  C   UNL     1       1.574   9.266  18.980  0.00  0.00    +0.000 A 
ATOM      5  C   UNL     1       0.894  10.418  19.463  0.00  0.00    +0.000 A 
ATOM      6  N   UNL     1       0.684  11.530  18.663  0.00  0.00    +0.000 N 
ATOM      7  N   UNL     1       0.481  10.404  20.753  0.00  0.00    +0.000 NA
ATOM      8  C   UNL     1       0.734   9.307  21.494  0.00  0.00    +0.000 A 
ATOM      9 CL   UNL     1       0.284   9.404  23.144  0.00  0.00    +0.000 Cl
ATOM     10  N   UNL     1       1.331   8.157  21.141  0.00  0.00    +0.000 NA
ATOM     11  C   UNL     1       1.720   8.197  19.858  0.00  0.00    +0.000 A 
ATOM     12  H   UNL     1       0.906  11.371  17.684  0.00  0.00    +0.000 HD
ENDROOT
BRANCH   6  13
ATOM     13  C   UNL     1      -0.294  12.564  18.982  0.00  0.00    +0.000 C 
ATOM     14  C   UNL     1      -0.263  12.848  20.505  0.00  0.00    +0.000 C 
ATOM     15  C   UNL     1       0.200  14.315  20.597  0.00  0.00    +0.000 C 
ATOM     16  C   UNL     1       1.641  14.496  20.080  0.00  0.00    +0.000 C 
ATOM     17  C   UNL     1       1.504  14.310  18.562  0.00  0.00    +0.000 C 
ATOM     18  C   UNL     1       0.014  13.973  18.401  0.00  0.00    +0.000 C 
ATOM     19  C   UNL     1      -0.600  14.922  19.451  0.00  0.00    +0.000 C 
ENDBRANCH   6  13
BRANCH   1  22
ATOM     20  C   UNL     1       1.180   3.886  19.806  0.00  0.00    +0.000 C 
ATOM     21  C   UNL     1       1.605   5.200  20.497  0.00  0.00    +0.000 C 
ATOM     22  C   UNL     1       2.590   5.838  19.524  0.00  0.00    +0.000 C 
ATOM     23  C   UNL     1       4.066   5.401  19.528  0.00  0.00    +0.000 C 
ATOM     24  C   UNL     1       3.091   4.694  18.654  0.00  0.00    +0.000 C 
ATOM     25  C   UNL     1       2.468   3.400  19.110  0.00  0.00    +0.000 C 
BRANCH  20  26
ATOM     26  O   UNL     1       0.682   2.956  20.752  0.00  0.00    +0.000 OA
ATOM     27  H   UNL     1       0.706   2.077  20.332  0.00  0.00    +0.000 HD
ENDBRANCH  20  26
BRANCH  25  28
ATOM     28  O   UNL     1       3.356   2.742  20.015  0.00  0.00    +0.000 OA
ATOM     29  H   UNL     1       4.242   2.761  19.610  0.00  0.00    +0.000 HD
ENDBRANCH  25  28
ENDBRANCH   1  22
TORSDOF 4
ENDMDL
MODEL 8
REMARK VINA RESULT:      -7.4      2.558      3.242
REMARK  Name = 
REMARK  4 active torsions:
REMARK  status: ('A' for Active; 'I' for Inactive)
REMARK    1  A    between atoms: O_1  and  C_2
REMARK    2  A    between atoms: C_4  and  N_5
REMARK    3  A    between atoms: N_10  and  C_11
REMARK    4  A    between atoms: C_25  and  O_26
REMARK                            x       y       z     vdW  Elec       q    Type
REMARK                         _______ _______ _______ _____ _____    ______ ____
ROOT
ATOM      1  N   UNL     1      -0.558  10.649  21.800  0.00  0.00    +0.000 N 
ATOM      2  C   UNL     1      -0.665   9.619  22.699  0.00  0.00    +0.000 A 
ATOM      3  N   UNL     1       0.021   8.560  22.311  0.00  0.00    +0.000 NA
ATOM      4  C   UNL     1       0.613   8.930  21.113  0.00  0.00    +0.000 A 
ATOM      5  C   UNL     1       1.456   8.230  20.205  0.00  0.00    +0.000 A 
ATOM      6  N   UNL     1       1.836   6.916  20.426  0.00  0.00    +0.000 N 
ATOM      7  N   UNL     1       1.902   8.908  19.119  0.00  0.00    +0.000 NA
ATOM      8  C   UNL     1       1.522  10.192  18.966  0.00  0.00    +0.000 A 
ATOM      9 CL   UNL     1       2.213  11.019  17.634  0.00  0.00    +0.000 Cl
ATOM     10  N   UNL     1       0.710  10.940  19.732  0.00  0.00    +0.000 NA
ATOM     11  C   UNL     1       0.278  10.240  20.792  0.00  0.00    +0.000 A 
ATOM     12  H   UNL     1       1.329   6.472  21.186  0.00  0.00    +0.000 HD
ENDROOT
BRANCH   6  13
ATOM     13  C   UNL     1       2.385   6.061  19.379  0.00  0.00    +0.000 C 
ATOM     14  C   UNL     1       3.719   5.442  19.868  0.00  0.00    +0.000 C 
ATOM     15  C   UNL     1       3.430   3.930  19.908  0.00  0.00    +0.000 C 
ATOM     16  C   UNL     1       2.362   3.576  20.961  0.00  0.00    +0.000 C 
ATOM     17  C   UNL     1       1.063   4.122  20.352  0.00  0.00    +0.000 C 
ATOM     18  C   UNL     1       1.555   4.786  19.058  0.00  0.00    +0.000 C 
ATOM     19  C   UNL     1       2.632   3.774  18.619  0.00  0.00    +0.000 C 
ENDBRANCH   6  13
BRANCH   1  22
ATOM     20  C   UNL     1      -3.476  12.588  20.935  0.00  0.00    +0.000 C 
ATOM     21  C   UNL     1      -1.996  12.362  20.556  0.00  0.00    +0.000 C 
ATOM     22  C   UNL     1      -1.343  11.881  21.847  0.00  0.00    +0.000 C 
ATOM     23  C   UNL     1      -0.881  12.901  22.902  0.00  0.00    +0.000 C 
ATOM     24  C   UNL     1      -2.264  12.356  22.962  0.00  0.00    +0.000 C 
ATOM     25  C   UNL     1      -3.410  13.137  22.375  0.00  0.00    +0.000 C 
BRANCH  20  26
ATOM     26  O   UNL     1      -4.098  13.485  20.032  0.00  0.00    +0.000 OA
ATOM     27  H   UNL     1      -4.274  12.992  19.211  0.00  0.00    +0.000 HD
ENDBRANCH  20  26
BRANCH  25  28
ATOM     28  O   UNL     1      -3.097  14.531  22.408  0.00  0.00    +0.000 OA
ATOM     29  H   UNL     1      -2.401  14.651  23.079  0.00  0.00    +0.000 HD
ENDBRANCH  25  28
ENDBRANCH   1  22
TORSDOF 4
ENDMDL
MODEL 9
REMARK VINA RESULT:      -7.3      2.955      4.134
REMARK  Name = 
REMARK  4 active torsions:
REMARK  status: ('A' for Active; 'I' for Inactive)
REMARK    1  A    between atoms: O_1  and  C_2
REMARK    2  A    between atoms: C_4  and  N_5
REMARK    3  A    between atoms: N_10  and  C_11
REMARK    4  A    between atoms: C_25  and  O_26
REMARK                            x       y       z     vdW  Elec       q    Type
REMARK                         _______ _______ _______ _____ _____    ______ ____
ROOT
ATOM      1  N   UNL     1       1.346   9.168  19.173  0.00  0.00    +0.000 N 
ATOM      2  C   UNL     1       1.786   9.631  17.960  0.00  0.00    +0.000 A 
ATOM      3  N   UNL     1       2.622   8.784  17.388  0.00  0.00    +0.000 NA
ATOM      4  C   UNL     1       2.711   7.714  18.265  0.00  0.00    +0.000 A 
ATOM      5  C   UNL     1       3.455   6.502  18.226  0.00  0.00    +0.000 A 
ATOM      6  N   UNL     1       4.301   6.199  17.170  0.00  0.00    +0.000 N 
ATOM      7  N   UNL     1       3.285   5.632  19.251  0.00  0.00    +0.000 NA
ATOM      8  C   UNL     1       2.432   5.965  20.239  0.00  0.00    +0.000 A 
ATOM      9 CL   UNL     1       2.182   4.771  21.441  0.00  0.00    +0.000 Cl
ATOM     10  N   UNL     1       1.708   7.086  20.400  0.00  0.00    +0.000 NA
ATOM     11  C   UNL     1       1.903   7.930  19.376  0.00  0.00    +0.000 A 
ATOM     12  H   UNL     1       4.457   6.981  16.541  0.00  0.00    +0.000 HD
ENDROOT
BRANCH   6  13
ATOM     13  C   UNL     1       5.331   5.169  17.249  0.00  0.00    +0.000 C 
ATOM     14  C   UNL     1       4.807   3.866  16.594  0.00  0.00    +0.000 C 
ATOM     15  C   UNL     1       5.747   3.654  15.392  0.00  0.00    +0.000 C 
ATOM     16  C   UNL     1       5.599   4.772  14.342  0.00  0.00    +0.000 C 
ATOM     17  C   UNL     1       6.238   5.991  15.022  0.00  0.00    +0.000 C 
ATOM     18  C   UNL     1       6.610   5.442  16.407  0.00  0.00    +0.000 C 
ATOM     19  C   UNL     1       7.082   4.024  16.027  0.00  0.00    +0.000 C 
ENDBRANCH   6  13
BRANCH   1  22
ATOM     20  C   UNL     1       0.439  12.297  20.723  0.00  0.00    +0.000 C 
ATOM     21  C   UNL     1       1.290  11.025  20.933  0.00  0.00    +0.000 C 
ATOM     22  C   UNL     1       0.566   9.949  20.130  0.00  0.00    +0.000 C 
ATOM     23  C   UNL     1      -0.633   9.207  20.746  0.00  0.00    +0.000 C 
ATOM     24  C   UNL     1      -0.860  10.458  19.974  0.00  0.00    +0.000 C 
ATOM     25  C   UNL     1      -1.012  11.773  20.694  0.00  0.00    +0.000 C 
BRANCH  20  26
ATOM     26  O   UNL     1       0.664  13.233  21.763  0.00  0.00    +0.000 OA
ATOM     27  H   UNL     1       0.644  14.121  21.361  0.00  0.00    +0.000 HD
ENDBRANCH  20  26
BRANCH  25  28
ATOM     28  O   UNL     1      -1.526  11.536  22.005  0.00  0.00    +0.000 OA
ATOM     29  H   UNL     1      -2.488  11.410  21.915  0.00  0.00    +0.000 HD
ENDBRANCH  25  28
ENDBRANCH   1  22
TORSDOF 4
ENDMDL
