MODEL 1
REMARK VINA RESULT:      -8.1      0.000      0.000
REMARK  Name = 
REMARK  9 active torsions:
REMARK  status: ('A' for Active; 'I' for Inactive)
REMARK    1  A    between atoms: C_1  and  C_2
REMARK    2  A    between atoms: C_2  and  C_3
REMARK    3  A    between atoms: C_2  and  C_4
REMARK    4  A    between atoms: C_2  and  N_5
REMARK    5  A    between atoms: C_6  and  C_8
REMARK    6  A    between atoms: C_8  and  S_9
REMARK    7  A    between atoms: S_9  and  C_10
REMARK    8  A    between atoms: C_13  and  C_14
REMARK    9  A    between atoms: C_14  and  N_15
REMARK                            x       y       z     vdW  Elec       q    Type
REMARK                         _______ _______ _______ _____ _____    ______ ____
ROOT
ATOM      1  C   UNL     1       6.874   6.041  18.125  0.00  0.00    +0.000 A 
ATOM      2  N   UNL     1       6.522   6.031  19.392  0.00  0.00    +0.000 NA
ATOM      3  N   UNL     1       5.745   4.931  19.602  0.00  0.00    +0.000 NA
ATOM      4  C   UNL     1       5.637   4.263  18.463  0.00  0.00    +0.000 A 
ATOM      5  N   UNL     1       6.309   4.956  17.455  0.00  0.00    +0.000 N 
ATOM      6  C   UNL     1       6.394   4.713  16.051  0.00  0.00    +0.000 A 
ATOM      7  C   UNL     1       5.326   4.161  15.344  0.00  0.00    +0.000 A 
ATOM      8  C   UNL     1       5.419   4.062  13.952  0.00  0.00    +0.000 A 
ATOM      9  C   UNL     1       6.553   4.522  13.294  0.00  0.00    +0.000 A 
ATOM     10  C   UNL     1       7.564   5.052  14.063  0.00  0.00    +0.000 A 
ATOM     11  N   UNL     1       7.503   5.154  15.406  0.00  0.00    +0.000 NA
ENDROOT
BRANCH   1  12
ATOM     12  S   UNL     1       7.666   7.395  17.366  0.00  0.00    +0.000 S 
BRANCH  12  13
ATOM     13  C   UNL     1       8.480   8.178  18.778  0.00  0.00    +0.000 C 
BRANCH  13  15
ATOM     14  N   UNL     1       9.771  10.223  19.219  0.00  0.00    +0.000 N 
ATOM     15  C   UNL     1       8.746   9.648  18.485  0.00  0.00    +0.000 C 
ATOM     16  O   UNL     1       8.125  10.246  17.607  0.00  0.00    +0.000 OA
ATOM     17  H   UNL     1      10.088   9.699  20.029  0.00  0.00    +0.000 HD
BRANCH  14  19
ATOM     18  C   UNL     1       9.024  12.581  19.430  0.00  0.00    +0.000 C 
ATOM     19  C   UNL     1      10.188  11.631  19.104  0.00  0.00    +0.000 C 
ATOM     20  C   UNL     1      10.730  11.924  17.695  0.00  0.00    +0.000 C 
ATOM     21  C   UNL     1      11.318  11.902  20.116  0.00  0.00    +0.000 C 
ENDBRANCH  14  19
ENDBRANCH  13  15
ENDBRANCH  12  13
ENDBRANCH   1  12
BRANCH   4  22
ATOM     22  C   UNL     1       4.905   2.968  18.347  0.00  0.00    +0.000 C 
BRANCH  22  23
ATOM     23  N   UNL     1       3.610   2.995  19.038  0.00  0.00    +0.000 N 
ATOM     24  C   UNL     1       3.634   3.055  20.500  0.00  0.00    +0.000 C 
ATOM     25  C   UNL     1       2.525   2.276  21.207  0.00  0.00    +0.000 C 
ATOM     26  C   UNL     1       1.184   2.999  21.237  0.00  0.00    +0.000 C 
ATOM     27  C   UNL     1       0.529   3.090  19.868  0.00  0.00    +0.000 C 
ATOM     28  C   UNL     1       1.315   3.956  18.903  0.00  0.00    +0.000 C 
ATOM     29  C   UNL     1       2.512   3.297  18.250  0.00  0.00    +0.000 C 
ATOM     30  O   UNL     1       2.541   3.152  17.026  0.00  0.00    +0.000 OA
ENDBRANCH  22  23
ENDBRANCH   4  22
TORSDOF 6
ENDMDL
MODEL 2
REMARK VINA RESULT:      -8.1      0.927      1.617
REMARK  Name = 
REMARK  9 active torsions:
REMARK  status: ('A' for Active; 'I' for Inactive)
REMARK    1  A    between atoms: C_1  and  C_2
REMARK    2  A    between atoms: C_2  and  C_3
REMARK    3  A    between atoms: C_2  and  C_4
REMARK    4  A    between atoms: C_2  and  N_5
REMARK    5  A    between atoms: C_6  and  C_8
REMARK    6  A    between atoms: C_8  and  S_9
REMARK    7  A    between atoms: S_9  and  C_10
REMARK    8  A    between atoms: C_13  and  C_14
REMARK    9  A    between atoms: C_14  and  N_15
REMARK                            x       y       z     vdW  Elec       q    Type
REMARK                         _______ _______ _______ _____ _____    ______ ____
ROOT
ATOM      1  C   UNL     1       7.036   6.137  18.212  0.00  0.00    +0.000 A 
ATOM      2  N   UNL     1       6.739   6.136  19.493  0.00  0.00    +0.000 NA
ATOM      3  N   UNL     1       5.947   5.053  19.739  0.00  0.00    +0.000 NA
ATOM      4  C   UNL     1       5.777   4.386  18.607  0.00  0.00    +0.000 A 
ATOM      5  N   UNL     1       6.420   5.062  17.570  0.00  0.00    +0.000 N 
ATOM      6  C   UNL     1       6.440   4.816  16.164  0.00  0.00    +0.000 A 
ATOM      7  C   UNL     1       5.331   4.286  15.505  0.00  0.00    +0.000 A 
ATOM      8  C   UNL     1       5.362   4.182  14.111  0.00  0.00    +0.000 A 
ATOM      9  C   UNL     1       6.477   4.617  13.403  0.00  0.00    +0.000 A 
ATOM     10  C   UNL     1       7.531   5.127  14.127  0.00  0.00    +0.000 A 
ATOM     11  N   UNL     1       7.530   5.232  15.471  0.00  0.00    +0.000 NA
ENDROOT
BRANCH   1  12
ATOM     12  S   UNL     1       7.824   7.472  17.417  0.00  0.00    +0.000 S 
BRANCH  12  13
ATOM     13  C   UNL     1       8.594   8.324  18.814  0.00  0.00    +0.000 C 
BRANCH  13  15
ATOM     14  N   UNL     1       9.845  10.407  19.182  0.00  0.00    +0.000 N 
ATOM     15  C   UNL     1       8.827   9.789  18.475  0.00  0.00    +0.000 C 
ATOM     16  O   UNL     1       8.186  10.347  17.585  0.00  0.00    +0.000 OA
ATOM     17  H   UNL     1      10.179   9.914  20.005  0.00  0.00    +0.000 HD
BRANCH  14  19
ATOM     18  C   UNL     1      11.317  12.215  20.036  0.00  0.00    +0.000 C 
ATOM     19  C   UNL     1      10.231  11.820  19.022  0.00  0.00    +0.000 C 
ATOM     20  C   UNL     1       9.007  12.739  19.173  0.00  0.00    +0.000 C 
ATOM     21  C   UNL     1      10.808  12.023  17.607  0.00  0.00    +0.000 C 
ENDBRANCH  14  19
ENDBRANCH  13  15
ENDBRANCH  12  13
ENDBRANCH   1  12
BRANCH   4  22
ATOM     22  C   UNL     1       5.014   3.107  18.526  0.00  0.00    +0.000 C 
BRANCH  22  23
ATOM     23  N   UNL     1       3.743   3.167  19.259  0.00  0.00    +0.000 N 
ATOM     24  C   UNL     1       2.586   3.713  18.549  0.00  0.00    +0.000 C 
ATOM     25  C   UNL     1       1.619   4.532  19.403  0.00  0.00    +0.000 C 
ATOM     26  C   UNL     1       0.661   3.689  20.235  0.00  0.00    +0.000 C 
ATOM     27  C   UNL     1       1.355   2.947  21.367  0.00  0.00    +0.000 C 
ATOM     28  C   UNL     1       2.325   1.894  20.865  0.00  0.00    +0.000 C 
ATOM     29  C   UNL     1       3.677   2.405  20.414  0.00  0.00    +0.000 C 
ATOM     30  O   UNL     1       4.698   2.039  21.001  0.00  0.00    +0.000 OA
ENDBRANCH  22  23
ENDBRANCH   4  22
TORSDOF 6
ENDMDL
MODEL 3
REMARK VINA RESULT:      -7.8      0.911      1.636
REMARK  Name = 
REMARK  9 active torsions:
REMARK  status: ('A' for Active; 'I' for Inactive)
REMARK    1  A    between atoms: C_1  and  C_2
REMARK    2  A    between atoms: C_2  and  C_3
REMARK    3  A    between atoms: C_2  and  C_4
REMARK    4  A    between atoms: C_2  and  N_5
REMARK    5  A    between atoms: C_6  and  C_8
REMARK    6  A    between atoms: C_8  and  S_9
REMARK    7  A    between atoms: S_9  and  C_10
REMARK    8  A    between atoms: C_13  and  C_14
REMARK    9  A    between atoms: C_14  and  N_15
REMARK                            x       y       z     vdW  Elec       q    Type
REMARK                         _______ _______ _______ _____ _____    ______ ____
ROOT
ATOM      1  C   UNL     1       6.903   6.136  18.129  0.00  0.00    +0.000 A 
ATOM      2  N   UNL     1       6.558   6.107  19.397  0.00  0.00    +0.000 NA
ATOM      3  N   UNL     1       5.840   4.967  19.610  0.00  0.00    +0.000 NA
ATOM      4  C   UNL     1       5.764   4.295  18.471  0.00  0.00    +0.000 A 
ATOM      5  N   UNL     1       6.395   5.022  17.461  0.00  0.00    +0.000 N 
ATOM      6  C   UNL     1       6.487   4.784  16.057  0.00  0.00    +0.000 A 
ATOM      7  C   UNL     1       5.448   4.176  15.353  0.00  0.00    +0.000 A 
ATOM      8  C   UNL     1       5.540   4.082  13.961  0.00  0.00    +0.000 A 
ATOM      9  C   UNL     1       6.646   4.601  13.299  0.00  0.00    +0.000 A 
ATOM     10  C   UNL     1       7.631   5.185  14.064  0.00  0.00    +0.000 A 
ATOM     11  N   UNL     1       7.569   5.283  15.407  0.00  0.00    +0.000 NA
ENDROOT
BRANCH   1  12
ATOM     12  S   UNL     1       7.620   7.529  17.367  0.00  0.00    +0.000 S 
BRANCH  12  13
ATOM     13  C   UNL     1       8.542   8.261  18.741  0.00  0.00    +0.000 C 
BRANCH  13  15
ATOM     14  N   UNL     1       9.825  10.306  19.200  0.00  0.00    +0.000 N 
ATOM     15  C   UNL     1       8.780   9.742  18.487  0.00  0.00    +0.000 C 
ATOM     16  O   UNL     1       8.118  10.361  17.654  0.00  0.00    +0.000 OA
ATOM     17  H   UNL     1      10.179   9.760  19.980  0.00  0.00    +0.000 HD
BRANCH  14  19
ATOM     18  C   UNL     1      10.546  12.121  17.667  0.00  0.00    +0.000 C 
ATOM     19  C   UNL     1      10.222  11.722  19.116  0.00  0.00    +0.000 C 
ATOM     20  C   UNL     1      11.431  12.003  20.024  0.00  0.00    +0.000 C 
ATOM     21  C   UNL     1       9.049  12.599  19.598  0.00  0.00    +0.000 C 
ENDBRANCH  14  19
ENDBRANCH  13  15
ENDBRANCH  12  13
ENDBRANCH   1  12
BRANCH   4  22
ATOM     22  C   UNL     1       5.101   2.963  18.357  0.00  0.00    +0.000 C 
BRANCH  22  23
ATOM     23  N   UNL     1       3.667   3.025  18.667  0.00  0.00    +0.000 N 
ATOM     24  C   UNL     1       2.756   3.317  17.559  0.00  0.00    +0.000 C 
ATOM     25  C   UNL     1       1.542   4.173  17.917  0.00  0.00    +0.000 C 
ATOM     26  C   UNL     1       0.415   3.399  18.589  0.00  0.00    +0.000 C 
ATOM     27  C   UNL     1       0.766   2.944  19.998  0.00  0.00    +0.000 C 
ATOM     28  C   UNL     1       1.886   1.922  20.017  0.00  0.00    +0.000 C 
ATOM     29  C   UNL     1       3.289   2.478  19.882  0.00  0.00    +0.000 C 
ATOM     30  O   UNL     1       4.099   2.327  20.798  0.00  0.00    +0.000 OA
ENDBRANCH  22  23
ENDBRANCH   4  22
TORSDOF 6
ENDMDL
MODEL 4
REMARK VINA RESULT:      -7.6      4.562      7.462
REMARK  Name = 
REMARK  9 active torsions:
REMARK  status: ('A' for Active; 'I' for Inactive)
REMARK    1  A    between atoms: C_1  and  C_2
REMARK    2  A    between atoms: C_2  and  C_3
REMARK    3  A    between atoms: C_2  and  C_4
REMARK    4  A    between atoms: C_2  and  N_5
REMARK    5  A    between atoms: C_6  and  C_8
REMARK    6  A    between atoms: C_8  and  S_9
REMARK    7  A    between atoms: S_9  and  C_10
REMARK    8  A    between atoms: C_13  and  C_14
REMARK    9  A    between atoms: C_14  and  N_15
REMARK                            x       y       z     vdW  Elec       q    Type
REMARK                         _______ _______ _______ _____ _____    ______ ____
ROOT
ATOM      1  C   UNL     1       3.279   6.662  17.931  0.00  0.00    +0.000 A 
ATOM      2  N   UNL     1       4.051   7.300  17.078  0.00  0.00    +0.000 NA
ATOM      3  N   UNL     1       4.866   6.382  16.483  0.00  0.00    +0.000 NA
ATOM      4  C   UNL     1       4.576   5.182  16.964  0.00  0.00    +0.000 A 
ATOM      5  N   UNL     1       3.586   5.301  17.941  0.00  0.00    +0.000 N 
ATOM      6  C   UNL     1       3.019   4.331  18.820  0.00  0.00    +0.000 A 
ATOM      7  C   UNL     1       3.779   3.275  19.323  0.00  0.00    +0.000 A 
ATOM      8  C   UNL     1       3.207   2.427  20.276  0.00  0.00    +0.000 A 
ATOM      9  C   UNL     1       1.909   2.651  20.720  0.00  0.00    +0.000 A 
ATOM     10  C   UNL     1       1.224   3.713  20.175  0.00  0.00    +0.000 A 
ATOM     11  N   UNL     1       1.749   4.542  19.250  0.00  0.00    +0.000 NA
ENDROOT
BRANCH   1  12
ATOM     12  S   UNL     1       2.256   7.475  19.083  0.00  0.00    +0.000 S 
BRANCH  12  13
ATOM     13  C   UNL     1       1.829   8.988  18.187  0.00  0.00    +0.000 C 
BRANCH  13  15
ATOM     14  N   UNL     1       0.597  11.094  18.480  0.00  0.00    +0.000 N 
ATOM     15  C   UNL     1       1.021   9.918  19.079  0.00  0.00    +0.000 C 
ATOM     16  O   UNL     1       0.722   9.599  20.230  0.00  0.00    +0.000 OA
ATOM     17  H   UNL     1       1.046  11.334  17.602  0.00  0.00    +0.000 HD
BRANCH  14  19
ATOM     18  C   UNL     1       0.549  12.656  20.409  0.00  0.00    +0.000 C 
ATOM     19  C   UNL     1      -0.186  12.139  19.162  0.00  0.00    +0.000 C 
ATOM     20  C   UNL     1      -1.577  11.611  19.550  0.00  0.00    +0.000 C 
ATOM     21  C   UNL     1      -0.378  13.327  18.199  0.00  0.00    +0.000 C 
ENDBRANCH  14  19
ENDBRANCH  13  15
ENDBRANCH  12  13
ENDBRANCH   1  12
BRANCH   4  22
ATOM     22  C   UNL     1       5.236   3.934  16.484  0.00  0.00    +0.000 C 
BRANCH  22  23
ATOM     23  N   UNL     1       5.883   4.111  15.178  0.00  0.00    +0.000 N 
ATOM     24  C   UNL     1       5.031   4.023  13.992  0.00  0.00    +0.000 C 
ATOM     25  C   UNL     1       5.677   3.378  12.766  0.00  0.00    +0.000 C 
ATOM     26  C   UNL     1       6.596   4.310  11.989  0.00  0.00    +0.000 C 
ATOM     27  C   UNL     1       7.875   4.644  12.741  0.00  0.00    +0.000 C 
ATOM     28  C   UNL     1       7.617   5.455  13.996  0.00  0.00    +0.000 C 
ATOM     29  C   UNL     1       7.150   4.669  15.204  0.00  0.00    +0.000 C 
ATOM     30  O   UNL     1       7.843   4.643  16.224  0.00  0.00    +0.000 OA
ENDBRANCH  22  23
ENDBRANCH   4  22
TORSDOF 6
ENDMDL
MODEL 5
REMARK VINA RESULT:      -7.5      0.962      1.291
REMARK  Name = 
REMARK  9 active torsions:
REMARK  status: ('A' for Active; 'I' for Inactive)
REMARK    1  A    between atoms: C_1  and  C_2
REMARK    2  A    between atoms: C_2  and  C_3
REMARK    3  A    between atoms: C_2  and  C_4
REMARK    4  A    between atoms: C_2  and  N_5
REMARK    5  A    between atoms: C_6  and  C_8
REMARK    6  A    between atoms: C_8  and  S_9
REMARK    7  A    between atoms: S_9  and  C_10
REMARK    8  A    between atoms: C_13  and  C_14
REMARK    9  A    between atoms: C_14  and  N_15
REMARK                            x       y       z     vdW  Elec       q    Type
REMARK                         _______ _______ _______ _____ _____    ______ ____
ROOT
ATOM      1  C   UNL     1       7.156   6.110  17.893  0.00  0.00    +0.000 A 
ATOM      2  N   UNL     1       6.877   6.189  19.176  0.00  0.00    +0.000 NA
ATOM      3  N   UNL     1       6.023   5.171  19.482  0.00  0.00    +0.000 NA
ATOM      4  C   UNL     1       5.796   4.463  18.386  0.00  0.00    +0.000 A 
ATOM      5  N   UNL     1       6.465   5.048  17.310  0.00  0.00    +0.000 N 
ATOM      6  C   UNL     1       6.449   4.735  15.918  0.00  0.00    +0.000 A 
ATOM      7  C   UNL     1       5.300   4.245  15.297  0.00  0.00    +0.000 A 
ATOM      8  C   UNL     1       5.304   4.074  13.909  0.00  0.00    +0.000 A 
ATOM      9  C   UNL     1       6.434   4.403  13.169  0.00  0.00    +0.000 A 
ATOM     10  C   UNL     1       7.528   4.878  13.856  0.00  0.00    +0.000 A 
ATOM     11  N   UNL     1       7.553   5.047  15.193  0.00  0.00    +0.000 NA
ENDROOT
BRANCH   1  12
ATOM     12  S   UNL     1       8.015   7.353  17.025  0.00  0.00    +0.000 S 
BRANCH  12  13
ATOM     13  C   UNL     1       7.352   8.854  17.789  0.00  0.00    +0.000 C 
BRANCH  13  15
ATOM     14  N   UNL     1       8.504  11.020  17.935  0.00  0.00    +0.000 N 
ATOM     15  C   UNL     1       8.483   9.700  18.356  0.00  0.00    +0.000 C 
ATOM     16  O   UNL     1       9.274   9.239  19.178  0.00  0.00    +0.000 OA
ATOM     17  H   UNL     1       7.925  11.241  17.131  0.00  0.00    +0.000 HD
BRANCH  14  19
ATOM     18  C   UNL     1      10.912  11.617  17.844  0.00  0.00    +0.000 C 
ATOM     19  C   UNL     1       9.514  12.009  18.350  0.00  0.00    +0.000 C 
ATOM     20  C   UNL     1       9.530  12.162  19.880  0.00  0.00    +0.000 C 
ATOM     21  C   UNL     1       9.155  13.377  17.737  0.00  0.00    +0.000 C 
ENDBRANCH  14  19
ENDBRANCH  13  15
ENDBRANCH  12  13
ENDBRANCH   1  12
BRANCH   4  22
ATOM     22  C   UNL     1       4.952   3.233  18.375  0.00  0.00    +0.000 C 
BRANCH  22  23
ATOM     23  N   UNL     1       3.733   3.384  19.180  0.00  0.00    +0.000 N 
ATOM     24  C   UNL     1       3.733   2.779  20.512  0.00  0.00    +0.000 C 
ATOM     25  C   UNL     1       2.397   2.191  20.965  0.00  0.00    +0.000 C 
ATOM     26  C   UNL     1       1.407   3.229  21.479  0.00  0.00    +0.000 C 
ATOM     27  C   UNL     1       0.870   4.131  20.378  0.00  0.00    +0.000 C 
ATOM     28  C   UNL     1       1.945   5.014  19.774  0.00  0.00    +0.000 C 
ATOM     29  C   UNL     1       2.842   4.353  18.749  0.00  0.00    +0.000 C 
ATOM     30  O   UNL     1       2.854   4.765  17.587  0.00  0.00    +0.000 OA
ENDBRANCH  22  23
ENDBRANCH   4  22
TORSDOF 6
ENDMDL
MODEL 6
REMARK VINA RESULT:      -7.5      6.740      9.560
REMARK  Name = 
REMARK  9 active torsions:
REMARK  status: ('A' for Active; 'I' for Inactive)
REMARK    1  A    between atoms: C_1  and  C_2
REMARK    2  A    between atoms: C_2  and  C_3
REMARK    3  A    between atoms: C_2  and  C_4
REMARK    4  A    between atoms: C_2  and  N_5
REMARK    5  A    between atoms: C_6  and  C_8
REMARK    6  A    between atoms: C_8  and  S_9
REMARK    7  A    between atoms: S_9  and  C_10
REMARK    8  A    between atoms: C_13  and  C_14
REMARK    9  A    between atoms: C_14  and  N_15
REMARK                            x       y       z     vdW  Elec       q    Type
REMARK                         _______ _______ _______ _____ _____    ______ ____
ROOT
ATOM      1  C   UNL     1       0.890   9.575  18.416  0.00  0.00    +0.000 A 
ATOM      2  N   UNL     1       1.562   9.241  17.337  0.00  0.00    +0.000 NA
ATOM      3  N   UNL     1       2.428   8.243  17.674  0.00  0.00    +0.000 NA
ATOM      4  C   UNL     1       2.270   7.960  18.958  0.00  0.00    +0.000 A 
ATOM      5  N   UNL     1       1.318   8.820  19.508  0.00  0.00    +0.000 N 
ATOM      6  C   UNL     1       0.881   8.991  20.856  0.00  0.00    +0.000 A 
ATOM      7  C   UNL     1       1.754   8.820  21.930  0.00  0.00    +0.000 A 
ATOM      8  C   UNL     1       1.304   9.122  23.219  0.00  0.00    +0.000 A 
ATOM      9  C   UNL     1       0.013   9.597  23.414  0.00  0.00    +0.000 A 
ATOM     10  C   UNL     1      -0.788   9.737  22.303  0.00  0.00    +0.000 A 
ATOM     11  N   UNL     1      -0.382   9.448  21.051  0.00  0.00    +0.000 NA
ENDROOT
BRANCH   1  12
ATOM     12  S   UNL     1      -0.149  10.971  18.499  0.00  0.00    +0.000 S 
BRANCH  12  13
ATOM     13  C   UNL     1      -1.715  10.296  17.896  0.00  0.00    +0.000 C 
BRANCH  13  15
ATOM     14  N   UNL     1      -4.131  10.694  18.102  0.00  0.00    +0.000 N 
ATOM     15  C   UNL     1      -2.863  11.231  18.247  0.00  0.00    +0.000 C 
ATOM     16  O   UNL     1      -2.653  12.361  18.688  0.00  0.00    +0.000 OA
ATOM     17  H   UNL     1      -4.192   9.833  17.568  0.00  0.00    +0.000 HD
BRANCH  14  19
ATOM     18  C   UNL     1      -5.744  12.354  17.205  0.00  0.00    +0.000 C 
ATOM     19  C   UNL     1      -5.381  11.426  18.375  0.00  0.00    +0.000 C 
ATOM     20  C   UNL     1      -5.263  12.237  19.676  0.00  0.00    +0.000 C 
ATOM     21  C   UNL     1      -6.527  10.410  18.547  0.00  0.00    +0.000 C 
ENDBRANCH  14  19
ENDBRANCH  13  15
ENDBRANCH  12  13
ENDBRANCH   1  12
BRANCH   4  22
ATOM     22  C   UNL     1       3.017   6.868  19.647  0.00  0.00    +0.000 C 
BRANCH  22  23
ATOM     23  N   UNL     1       2.401   5.551  19.437  0.00  0.00    +0.000 N 
ATOM     24  C   UNL     1       1.290   5.186  20.316  0.00  0.00    +0.000 C 
ATOM     25  C   UNL     1       1.220   3.710  20.706  0.00  0.00    +0.000 C 
ATOM     26  C   UNL     1       0.616   2.814  19.632  0.00  0.00    +0.000 C 
ATOM     27  C   UNL     1       1.514   2.661  18.414  0.00  0.00    +0.000 C 
ATOM     28  C   UNL     1       1.692   3.962  17.655  0.00  0.00    +0.000 C 
ATOM     29  C   UNL     1       2.700   4.931  18.236  0.00  0.00    +0.000 C 
ATOM     30  O   UNL     1       3.698   5.243  17.582  0.00  0.00    +0.000 OA
ENDBRANCH  22  23
ENDBRANCH   4  22
TORSDOF 6
ENDMDL
MODEL 7
REMARK VINA RESULT:      -7.5      4.408      7.879
REMARK  Name = 
REMARK  9 active torsions:
REMARK  status: ('A' for Active; 'I' for Inactive)
REMARK    1  A    between atoms: C_1  and  C_2
REMARK    2  A    between atoms: C_2  and  C_3
REMARK    3  A    between atoms: C_2  and  C_4
REMARK    4  A    between atoms: C_2  and  N_5
REMARK    5  A    between atoms: C_6  and  C_8
REMARK    6  A    between atoms: C_8  and  S_9
REMARK    7  A    between atoms: S_9  and  C_10
REMARK    8  A    between atoms: C_13  and  C_14
REMARK    9  A    between atoms: C_14  and  N_15
REMARK                            x       y       z     vdW  Elec       q    Type
REMARK                         _______ _______ _______ _____ _____    ______ ____
ROOT
ATOM      1  C   UNL     1       3.239   6.791  17.863  0.00  0.00    +0.000 A 
ATOM      2  N   UNL     1       4.042   7.399  17.018  0.00  0.00    +0.000 NA
ATOM      3  N   UNL     1       4.859   6.458  16.465  0.00  0.00    +0.000 NA
ATOM      4  C   UNL     1       4.540   5.273  16.964  0.00  0.00    +0.000 A 
ATOM      5  N   UNL     1       3.526   5.427  17.911  0.00  0.00    +0.000 N 
ATOM      6  C   UNL     1       2.922   4.484  18.795  0.00  0.00    +0.000 A 
ATOM      7  C   UNL     1       3.653   3.428  19.340  0.00  0.00    +0.000 A 
ATOM      8  C   UNL     1       3.044   2.610  20.296  0.00  0.00    +0.000 A 
ATOM      9  C   UNL     1       1.738   2.861  20.700  0.00  0.00    +0.000 A 
ATOM     10  C   UNL     1       1.083   3.920  20.113  0.00  0.00    +0.000 A 
ATOM     11  N   UNL     1       1.644   4.721  19.186  0.00  0.00    +0.000 NA
ENDROOT
BRANCH   1  12
ATOM     12  S   UNL     1       2.197   7.643  18.969  0.00  0.00    +0.000 S 
BRANCH  12  13
ATOM     13  C   UNL     1       1.887   9.180  18.067  0.00  0.00    +0.000 C 
BRANCH  13  15
ATOM     14  N   UNL     1      -0.331  10.004  17.401  0.00  0.00    +0.000 N 
ATOM     15  C   UNL     1       0.533   9.755  18.456  0.00  0.00    +0.000 C 
ATOM     16  O   UNL     1       0.225   9.921  19.636  0.00  0.00    +0.000 OA
ATOM     17  H   UNL     1       0.085  10.003  16.475  0.00  0.00    +0.000 HD
BRANCH  14  19
ATOM     18  C   UNL     1      -2.527   9.738  18.528  0.00  0.00    +0.000 C 
ATOM     19  C   UNL     1      -1.683  10.570  17.549  0.00  0.00    +0.000 C 
ATOM     20  C   UNL     1      -2.388  10.656  16.185  0.00  0.00    +0.000 C 
ATOM     21  C   UNL     1      -1.568  11.998  18.118  0.00  0.00    +0.000 C 
ENDBRANCH  14  19
ENDBRANCH  13  15
ENDBRANCH  12  13
ENDBRANCH   1  12
BRANCH   4  22
ATOM     22  C   UNL     1       5.195   4.005  16.529  0.00  0.00    +0.000 C 
BRANCH  22  23
ATOM     23  N   UNL     1       5.845   4.133  15.218  0.00  0.00    +0.000 N 
ATOM     24  C   UNL     1       4.988   4.037  14.035  0.00  0.00    +0.000 C 
ATOM     25  C   UNL     1       5.616   3.346  12.825  0.00  0.00    +0.000 C 
ATOM     26  C   UNL     1       6.558   4.235  12.024  0.00  0.00    +0.000 C 
ATOM     27  C   UNL     1       7.846   4.555  12.767  0.00  0.00    +0.000 C 
ATOM     28  C   UNL     1       7.610   5.403  14.002  0.00  0.00    +0.000 C 
ATOM     29  C   UNL     1       7.125   4.660  15.229  0.00  0.00    +0.000 C 
ATOM     30  O   UNL     1       7.819   4.641  16.249  0.00  0.00    +0.000 OA
ENDBRANCH  22  23
ENDBRANCH   4  22
TORSDOF 6
ENDMDL
MODEL 8
REMARK VINA RESULT:      -7.5      6.311      8.880
REMARK  Name = 
REMARK  9 active torsions:
REMARK  status: ('A' for Active; 'I' for Inactive)
REMARK    1  A    between atoms: C_1  and  C_2
REMARK    2  A    between atoms: C_2  and  C_3
REMARK    3  A    between atoms: C_2  and  C_4
REMARK    4  A    between atoms: C_2  and  N_5
REMARK    5  A    between atoms: C_6  and  C_8
REMARK    6  A    between atoms: C_8  and  S_9
REMARK    7  A    between atoms: S_9  and  C_10
REMARK    8  A    between atoms: C_13  and  C_14
REMARK    9  A    between atoms: C_14  and  N_15
REMARK                            x       y       z     vdW  Elec       q    Type
REMARK                         _______ _______ _______ _____ _____    ______ ____
ROOT
ATOM      1  C   UNL     1       1.994   8.030  19.260  0.00  0.00    +0.000 A 
ATOM      2  N   UNL     1       2.216   8.025  17.964  0.00  0.00    +0.000 NA
ATOM      3  N   UNL     1       1.709   9.181  17.447  0.00  0.00    +0.000 NA
ATOM      4  C   UNL     1       1.193   9.896  18.435  0.00  0.00    +0.000 A 
ATOM      5  N   UNL     1       1.305   9.185  19.631  0.00  0.00    +0.000 N 
ATOM      6  C   UNL     1       0.809   9.470  20.938  0.00  0.00    +0.000 A 
ATOM      7  C   UNL     1      -0.400  10.139  21.126  0.00  0.00    +0.000 A 
ATOM      8  C   UNL     1      -0.897  10.280  22.426  0.00  0.00    +0.000 A 
ATOM      9  C   UNL     1      -0.198   9.747  23.502  0.00  0.00    +0.000 A 
ATOM     10  C   UNL     1       0.989   9.103  23.234  0.00  0.00    +0.000 A 
ATOM     11  N   UNL     1       1.493   8.957  21.992  0.00  0.00    +0.000 NA
ENDROOT
BRANCH   1  12
ATOM     12  S   UNL     1       2.258   6.641  20.278  0.00  0.00    +0.000 S 
BRANCH  12  13
ATOM     13  C   UNL     1       2.626   5.359  19.056  0.00  0.00    +0.000 C 
BRANCH  13  15
ATOM     14  N   UNL     1       4.350   5.626  17.325  0.00  0.00    +0.000 N 
ATOM     15  C   UNL     1       4.097   5.405  18.669  0.00  0.00    +0.000 C 
ATOM     16  O   UNL     1       4.983   5.314  19.519  0.00  0.00    +0.000 OA
ATOM     17  H   UNL     1       3.561   5.506  16.697  0.00  0.00    +0.000 HD
BRANCH  14  19
ATOM     18  C   UNL     1       6.536   4.468  17.121  0.00  0.00    +0.000 C 
ATOM     19  C   UNL     1       5.697   5.696  16.733  0.00  0.00    +0.000 C 
ATOM     20  C   UNL     1       6.415   6.985  17.166  0.00  0.00    +0.000 C 
ATOM     21  C   UNL     1       5.568   5.714  15.197  0.00  0.00    +0.000 C 
ENDBRANCH  14  19
ENDBRANCH  13  15
ENDBRANCH  12  13
ENDBRANCH   1  12
BRANCH   4  22
ATOM     22  C   UNL     1       0.606  11.253  18.235  0.00  0.00    +0.000 C 
BRANCH  22  23
ATOM     23  N   UNL     1      -0.847  11.210  18.030  0.00  0.00    +0.000 N 
ATOM     24  C   UNL     1      -1.412   9.963  17.512  0.00  0.00    +0.000 C 
ATOM     25  C   UNL     1      -2.593  10.126  16.555  0.00  0.00    +0.000 C 
ATOM     26  C   UNL     1      -3.921  10.394  17.251  0.00  0.00    +0.000 C 
ATOM     27  C   UNL     1      -3.987  11.771  17.893  0.00  0.00    +0.000 C 
ATOM     28  C   UNL     1      -3.009  11.926  19.042  0.00  0.00    +0.000 C 
ATOM     29  C   UNL     1      -1.573  12.211  18.652  0.00  0.00    +0.000 C 
ATOM     30  O   UNL     1      -1.043  13.269  18.998  0.00  0.00    +0.000 OA
ENDBRANCH  22  23
ENDBRANCH   4  22
TORSDOF 6
ENDMDL
MODEL 9
REMARK VINA RESULT:      -7.4      5.644      7.390
REMARK  Name = 
REMARK  9 active torsions:
REMARK  status: ('A' for Active; 'I' for Inactive)
REMARK    1  A    between atoms: C_1  and  C_2
REMARK    2  A    between atoms: C_2  and  C_3
REMARK    3  A    between atoms: C_2  and  C_4
REMARK    4  A    between atoms: C_2  and  N_5
REMARK    5  A    between atoms: C_6  and  C_8
REMARK    6  A    between atoms: C_8  and  S_9
REMARK    7  A    between atoms: S_9  and  C_10
REMARK    8  A    between atoms: C_13  and  C_14
REMARK    9  A    between atoms: C_14  and  N_15
REMARK                            x       y       z     vdW  Elec       q    Type
REMARK                         _______ _______ _______ _____ _____    ______ ____
ROOT
ATOM      1  C   UNL     1       1.584   9.477  18.373  0.00  0.00    +0.000 A 
ATOM      2  N   UNL     1       2.361   8.860  17.510  0.00  0.00    +0.000 NA
ATOM      3  N   UNL     1       2.745   7.675  18.064  0.00  0.00    +0.000 NA
ATOM      4  C   UNL     1       2.186   7.566  19.261  0.00  0.00    +0.000 A 
ATOM      5  N   UNL     1       1.458   8.723  19.539  0.00  0.00    +0.000 N 
ATOM      6  C   UNL     1       0.776   9.136  20.723  0.00  0.00    +0.000 A 
ATOM      7  C   UNL     1       1.248   8.794  21.990  0.00  0.00    +0.000 A 
ATOM      8  C   UNL     1       0.612   9.330  23.113  0.00  0.00    +0.000 A 
ATOM      9  C   UNL     1      -0.463  10.198  22.960  0.00  0.00    +0.000 A 
ATOM     10  C   UNL     1      -0.871  10.484  21.676  0.00  0.00    +0.000 A 
ATOM     11  N   UNL     1      -0.279   9.977  20.576  0.00  0.00    +0.000 NA
ENDROOT
BRANCH   1  12
ATOM     12  S   UNL     1       1.065  11.129  18.177  0.00  0.00    +0.000 S 
BRANCH  12  13
ATOM     13  C   UNL     1       2.645  11.984  17.966  0.00  0.00    +0.000 C 
BRANCH  13  15
ATOM     14  N   UNL     1       2.857  14.428  17.832  0.00  0.00    +0.000 N 
ATOM     15  C   UNL     1       2.606  13.341  18.653  0.00  0.00    +0.000 C 
ATOM     16  O   UNL     1       2.309  13.446  19.842  0.00  0.00    +0.000 OA
ATOM     17  H   UNL     1       3.263  14.219  16.925  0.00  0.00    +0.000 HD
BRANCH  14  19
ATOM     18  C   UNL     1       3.063  16.794  17.107  0.00  0.00    +0.000 C 
ATOM     19  C   UNL     1       2.880  15.829  18.289  0.00  0.00    +0.000 C 
ATOM     20  C   UNL     1       3.998  16.043  19.324  0.00  0.00    +0.000 C 
ATOM     21  C   UNL     1       1.534  16.157  18.965  0.00  0.00    +0.000 C 
ENDBRANCH  14  19
ENDBRANCH  13  15
ENDBRANCH  12  13
ENDBRANCH   1  12
BRANCH   4  22
ATOM     22  C   UNL     1       2.343   6.358  20.123  0.00  0.00    +0.000 C 
BRANCH  22  23
ATOM     23  N   UNL     1       2.620   5.146  19.342  0.00  0.00    +0.000 N 
ATOM     24  C   UNL     1       1.497   4.542  18.625  0.00  0.00    +0.000 C 
ATOM     25  C   UNL     1       1.505   3.015  18.559  0.00  0.00    +0.000 C 
ATOM     26  C   UNL     1       2.439   2.446  17.498  0.00  0.00    +0.000 C 
ATOM     27  C   UNL     1       3.909   2.644  17.834  0.00  0.00    +0.000 C 
ATOM     28  C   UNL     1       4.313   4.106  17.838  0.00  0.00    +0.000 C 
ATOM     29  C   UNL     1       3.956   4.886  19.086  0.00  0.00    +0.000 C 
ATOM     30  O   UNL     1       4.850   5.375  19.780  0.00  0.00    +0.000 OA
ENDBRANCH  22  23
ENDBRANCH   4  22
TORSDOF 6
ENDMDL
