MODEL 1
REMARK VINA RESULT:      -7.7      0.000      0.000
REMARK  Name = 
REMARK  5 active torsions:
REMARK  status: ('A' for Active; 'I' for Inactive)
REMARK    1  A    between atoms: C_1  and  C_2
REMARK    2  A    between atoms: C_5  and  S_6
REMARK    3  A    between atoms: S_6  and  C_7
REMARK    4  A    between atoms: C_7  and  C_8
REMARK    5  A    between atoms: C_19  and  C_20
REMARK                            x       y       z     vdW  Elec       q    Type
REMARK                         _______ _______ _______ _____ _____    ______ ____
ROOT
ATOM      1  C   UNL     1       4.162   3.937  17.038  0.00  0.00    +0.000 A 
ATOM      2  C   UNL     1       3.925   2.590  17.272  0.00  0.00    +0.000 A 
ATOM      3  N   UNL     1       3.219   2.095  18.315  0.00  0.00    +0.000 NA
ATOM      4  C   UNL     1       2.750   2.917  19.251  0.00  0.00    +0.000 A 
ATOM      5  N   UNL     1       2.121   2.333  20.263  0.00  0.00    +0.000 NA
ATOM      6  C   UNL     1       1.677   3.100  21.247  0.00  0.00    +0.000 A 
ATOM      7  N   UNL     1       1.013   2.498  22.290  0.00  0.00    +0.000 N 
ATOM      8  N   UNL     1       1.805   4.418  21.290  0.00  0.00    +0.000 NA
ATOM      9  C   UNL     1       2.441   4.994  20.265  0.00  0.00    +0.000 A 
ATOM     10  N   UNL     1       2.631   6.369  20.441  0.00  0.00    +0.000 N 
ATOM     11  C   UNL     1       2.915   4.296  19.139  0.00  0.00    +0.000 A 
ATOM     12  C   UNL     1       3.543   4.822  17.943  0.00  0.00    +0.000 A 
ATOM     13  C   UNL     1       3.506   6.308  17.672  0.00  0.00    +0.000 C 
ATOM     14  H   UNL     1       0.617   1.620  21.986  0.00  0.00    +0.000 HD
ATOM     15  H   UNL     1       0.393   3.161  22.733  0.00  0.00    +0.000 HD
ATOM     16  H   UNL     1       2.241   6.600  21.354  0.00  0.00    +0.000 HD
ATOM     17  H   UNL     1       3.620   6.599  20.405  0.00  0.00    +0.000 HD
ENDROOT
BRANCH   1  18
ATOM     18  C   UNL     1       5.006   4.308  15.825  0.00  0.00    +0.000 C 
BRANCH  18  19
ATOM     19  S   UNL     1       6.804   4.329  16.165  0.00  0.00    +0.000 S 
BRANCH  19  24
ATOM     20  C   UNL     1       8.926   9.223  18.999  0.00  0.00    +0.000 C 
ATOM     21  C   UNL     1       8.184   8.055  18.419  0.00  0.00    +0.000 A 
ATOM     22  C   UNL     1       8.282   6.786  18.996  0.00  0.00    +0.000 A 
ATOM     23  C   UNL     1       7.734   5.676  18.349  0.00  0.00    +0.000 A 
ATOM     24  C   UNL     1       7.080   5.813  17.117  0.00  0.00    +0.000 A 
ATOM     25  C   UNL     1       6.898   7.092  16.589  0.00  0.00    +0.000 A 
ATOM     26  C   UNL     1       7.449   8.204  17.237  0.00  0.00    +0.000 A 
ENDBRANCH  19  24
ENDBRANCH  18  19
ENDBRANCH   1  18
TORSDOF 3
ENDMDL
MODEL 2
REMARK VINA RESULT:      -7.5      2.199      4.070
REMARK  Name = 
REMARK  5 active torsions:
REMARK  status: ('A' for Active; 'I' for Inactive)
REMARK    1  A    between atoms: C_1  and  C_2
REMARK    2  A    between atoms: C_5  and  S_6
REMARK    3  A    between atoms: S_6  and  C_7
REMARK    4  A    between atoms: C_7  and  C_8
REMARK    5  A    between atoms: C_19  and  C_20
REMARK                            x       y       z     vdW  Elec       q    Type
REMARK                         _______ _______ _______ _____ _____    ______ ____
ROOT
ATOM      1  C   UNL     1       4.855   5.696  17.671  0.00  0.00    +0.000 A 
ATOM      2  C   UNL     1       5.247   4.379  17.867  0.00  0.00    +0.000 A 
ATOM      3  N   UNL     1       4.668   3.516  18.734  0.00  0.00    +0.000 NA
ATOM      4  C   UNL     1       3.686   3.932  19.531  0.00  0.00    +0.000 A 
ATOM      5  N   UNL     1       3.223   3.030  20.386  0.00  0.00    +0.000 NA
ATOM      6  C   UNL     1       2.278   3.405  21.236  0.00  0.00    +0.000 A 
ATOM      7  N   UNL     1       1.786   2.469  22.115  0.00  0.00    +0.000 N 
ATOM      8  N   UNL     1       1.751   4.621  21.287  0.00  0.00    +0.000 NA
ATOM      9  C   UNL     1       2.227   5.519  20.420  0.00  0.00    +0.000 A 
ATOM     10  N   UNL     1       1.699   6.800  20.614  0.00  0.00    +0.000 N 
ATOM     11  C   UNL     1       3.193   5.232  19.438  0.00  0.00    +0.000 A 
ATOM     12  C   UNL     1       3.721   6.099  18.403  0.00  0.00    +0.000 A 
ATOM     13  C   UNL     1       3.036   7.414  18.109  0.00  0.00    +0.000 C 
ATOM     14  H   UNL     1       1.927   1.540  21.743  0.00  0.00    +0.000 HD
ATOM     15  H   UNL     1       0.850   2.720  22.399  0.00  0.00    +0.000 HD
ATOM     16  H   UNL     1       1.071   6.736  21.414  0.00  0.00    +0.000 HD
ATOM     17  H   UNL     1       2.443   7.469  20.794  0.00  0.00    +0.000 HD
ENDROOT
BRANCH   1  18
ATOM     18  C   UNL     1       5.645   6.529  16.670  0.00  0.00    +0.000 C 
BRANCH  18  19
ATOM     19  S   UNL     1       7.101   5.658  15.984  0.00  0.00    +0.000 S 
BRANCH  19  24
ATOM     20  C   UNL     1       5.831   2.237  11.169  0.00  0.00    +0.000 C 
ATOM     21  C   UNL     1       6.032   3.272  12.237  0.00  0.00    +0.000 A 
ATOM     22  C   UNL     1       7.220   4.003  12.312  0.00  0.00    +0.000 A 
ATOM     23  C   UNL     1       7.467   4.832  13.408  0.00  0.00    +0.000 A 
ATOM     24  C   UNL     1       6.535   4.945  14.449  0.00  0.00    +0.000 A 
ATOM     25  C   UNL     1       5.309   4.291  14.328  0.00  0.00    +0.000 A 
ATOM     26  C   UNL     1       5.061   3.459  13.229  0.00  0.00    +0.000 A 
ENDBRANCH  19  24
ENDBRANCH  18  19
ENDBRANCH   1  18
TORSDOF 3
ENDMDL
MODEL 3
REMARK VINA RESULT:      -7.5      3.547      6.062
REMARK  Name = 
REMARK  5 active torsions:
REMARK  status: ('A' for Active; 'I' for Inactive)
REMARK    1  A    between atoms: C_1  and  C_2
REMARK    2  A    between atoms: C_5  and  S_6
REMARK    3  A    between atoms: S_6  and  C_7
REMARK    4  A    between atoms: C_7  and  C_8
REMARK    5  A    between atoms: C_19  and  C_20
REMARK                            x       y       z     vdW  Elec       q    Type
REMARK                         _______ _______ _______ _____ _____    ______ ____
ROOT
ATOM      1  C   UNL     1       4.539   4.084  18.694  0.00  0.00    +0.000 A 
ATOM      2  C   UNL     1       4.006   3.264  17.709  0.00  0.00    +0.000 A 
ATOM      3  N   UNL     1       4.462   3.176  16.439  0.00  0.00    +0.000 NA
ATOM      4  C   UNL     1       5.454   3.966  16.032  0.00  0.00    +0.000 A 
ATOM      5  N   UNL     1       5.792   3.849  14.755  0.00  0.00    +0.000 NA
ATOM      6  C   UNL     1       6.741   4.645  14.285  0.00  0.00    +0.000 A 
ATOM      7  N   UNL     1       7.102   4.517  12.965  0.00  0.00    +0.000 N 
ATOM      8  N   UNL     1       7.389   5.549  15.006  0.00  0.00    +0.000 NA
ATOM      9  C   UNL     1       7.039   5.657  16.291  0.00  0.00    +0.000 A 
ATOM     10  N   UNL     1       7.690   6.706  16.950  0.00  0.00    +0.000 N 
ATOM     11  C   UNL     1       6.083   4.837  16.919  0.00  0.00    +0.000 A 
ATOM     12  C   UNL     1       5.683   4.812  18.312  0.00  0.00    +0.000 A 
ATOM     13  C   UNL     1       6.510   5.550  19.339  0.00  0.00    +0.000 C 
ATOM     14  H   UNL     1       6.879   3.588  12.635  0.00  0.00    +0.000 HD
ATOM     15  H   UNL     1       8.049   4.843  12.832  0.00  0.00    +0.000 HD
ATOM     16  H   UNL     1       8.280   7.162  16.255  0.00  0.00    +0.000 HD
ATOM     17  H   UNL     1       7.014   7.361  17.332  0.00  0.00    +0.000 HD
ENDROOT
BRANCH   1  18
ATOM     18  C   UNL     1       3.874   4.071  20.064  0.00  0.00    +0.000 C 
BRANCH  18  19
ATOM     19  S   UNL     1       2.122   4.599  20.031  0.00  0.00    +0.000 S 
BRANCH  19  24
ATOM     20  C   UNL     1       1.199  10.353  18.439  0.00  0.00    +0.000 C 
ATOM     21  C   UNL     1       1.655   9.004  18.912  0.00  0.00    +0.000 A 
ATOM     22  C   UNL     1       2.239   8.094  18.028  0.00  0.00    +0.000 A 
ATOM     23  C   UNL     1       2.495   6.783  18.437  0.00  0.00    +0.000 A 
ATOM     24  C   UNL     1       2.173   6.358  19.733  0.00  0.00    +0.000 A 
ATOM     25  C   UNL     1       1.680   7.292  20.645  0.00  0.00    +0.000 A 
ATOM     26  C   UNL     1       1.421   8.605  20.235  0.00  0.00    +0.000 A 
ENDBRANCH  19  24
ENDBRANCH  18  19
ENDBRANCH   1  18
TORSDOF 3
ENDMDL
MODEL 4
REMARK VINA RESULT:      -7.1      4.903      7.156
REMARK  Name = 
REMARK  5 active torsions:
REMARK  status: ('A' for Active; 'I' for Inactive)
REMARK    1  A    between atoms: C_1  and  C_2
REMARK    2  A    between atoms: C_5  and  S_6
REMARK    3  A    between atoms: S_6  and  C_7
REMARK    4  A    between atoms: C_7  and  C_8
REMARK    5  A    between atoms: C_19  and  C_20
REMARK                            x       y       z     vdW  Elec       q    Type
REMARK                         _______ _______ _______ _____ _____    ______ ____
ROOT
ATOM      1  C   UNL     1       2.121   8.172  18.770  0.00  0.00    +0.000 A 
ATOM      2  C   UNL     1       1.494   8.089  20.006  0.00  0.00    +0.000 A 
ATOM      3  N   UNL     1       1.510   7.004  20.815  0.00  0.00    +0.000 NA
ATOM      4  C   UNL     1       2.104   5.882  20.412  0.00  0.00    +0.000 A 
ATOM      5  N   UNL     1       2.016   4.856  21.248  0.00  0.00    +0.000 NA
ATOM      6  C   UNL     1       2.548   3.701  20.876  0.00  0.00    +0.000 A 
ATOM      7  N   UNL     1       2.470   2.640  21.746  0.00  0.00    +0.000 N 
ATOM      8  N   UNL     1       3.174   3.498  19.725  0.00  0.00    +0.000 NA
ATOM      9  C   UNL     1       3.254   4.540  18.892  0.00  0.00    +0.000 A 
ATOM     10  N   UNL     1       3.829   4.211  17.659  0.00  0.00    +0.000 N 
ATOM     11  C   UNL     1       2.774   5.828  19.192  0.00  0.00    +0.000 A 
ATOM     12  C   UNL     1       2.876   7.040  18.404  0.00  0.00    +0.000 A 
ATOM     13  C   UNL     1       3.805   7.081  17.213  0.00  0.00    +0.000 C 
ATOM     14  H   UNL     1       2.368   2.978  22.693  0.00  0.00    +0.000 HD
ATOM     15  H   UNL     1       3.219   1.987  21.563  0.00  0.00    +0.000 HD
ATOM     16  H   UNL     1       4.036   3.213  17.693  0.00  0.00    +0.000 HD
ATOM     17  H   UNL     1       3.188   4.420  16.900  0.00  0.00    +0.000 HD
ENDROOT
BRANCH   1  18
ATOM     18  C   UNL     1       1.970   9.468  17.985  0.00  0.00    +0.000 C 
BRANCH  18  19
ATOM     19  S   UNL     1       1.137  10.798  18.926  0.00  0.00    +0.000 S 
BRANCH  19  24
ATOM     20  C   UNL     1      -4.514  11.270  16.844  0.00  0.00    +0.000 C 
ATOM     21  C   UNL     1      -3.204  10.973  17.511  0.00  0.00    +0.000 A 
ATOM     22  C   UNL     1      -2.773  11.721  18.609  0.00  0.00    +0.000 A 
ATOM     23  C   UNL     1      -1.479  11.554  19.110  0.00  0.00    +0.000 A 
ATOM     24  C   UNL     1      -0.594  10.639  18.523  0.00  0.00    +0.000 A 
ATOM     25  C   UNL     1      -1.056   9.825  17.488  0.00  0.00    +0.000 A 
ATOM     26  C   UNL     1      -2.352   9.993  16.986  0.00  0.00    +0.000 A 
ENDBRANCH  19  24
ENDBRANCH  18  19
ENDBRANCH   1  18
TORSDOF 3
ENDMDL
MODEL 5
REMARK VINA RESULT:      -7.1      3.146      5.760
REMARK  Name = 
REMARK  5 active torsions:
REMARK  status: ('A' for Active; 'I' for Inactive)
REMARK    1  A    between atoms: C_1  and  C_2
REMARK    2  A    between atoms: C_5  and  S_6
REMARK    3  A    between atoms: S_6  and  C_7
REMARK    4  A    between atoms: C_7  and  C_8
REMARK    5  A    between atoms: C_19  and  C_20
REMARK                            x       y       z     vdW  Elec       q    Type
REMARK                         _______ _______ _______ _____ _____    ______ ____
ROOT
ATOM      1  C   UNL     1       4.436   3.060  18.114  0.00  0.00    +0.000 A 
ATOM      2  C   UNL     1       4.827   3.362  19.411  0.00  0.00    +0.000 A 
ATOM      3  N   UNL     1       5.669   4.363  19.757  0.00  0.00    +0.000 NA
ATOM      4  C   UNL     1       6.247   5.102  18.813  0.00  0.00    +0.000 A 
ATOM      5  N   UNL     1       7.102   6.020  19.247  0.00  0.00    +0.000 NA
ATOM      6  C   UNL     1       7.741   6.751  18.347  0.00  0.00    +0.000 A 
ATOM      7  N   UNL     1       8.618   7.712  18.795  0.00  0.00    +0.000 N 
ATOM      8  N   UNL     1       7.581   6.641  17.036  0.00  0.00    +0.000 NA
ATOM      9  C   UNL     1       6.718   5.712  16.612  0.00  0.00    +0.000 A 
ATOM     10  N   UNL     1       6.692   5.585  15.219  0.00  0.00    +0.000 N 
ATOM     11  C   UNL     1       5.943   4.908  17.467  0.00  0.00    +0.000 A 
ATOM     12  C   UNL     1       4.926   3.933  17.122  0.00  0.00    +0.000 A 
ATOM     13  C   UNL     1       4.392   3.879  15.710  0.00  0.00    +0.000 C 
ATOM     14  H   UNL     1       8.371   7.993  19.733  0.00  0.00    +0.000 HD
ATOM     15  H   UNL     1       8.717   8.439  18.101  0.00  0.00    +0.000 HD
ATOM     16  H   UNL     1       7.379   6.244  14.855  0.00  0.00    +0.000 HD
ATOM     17  H   UNL     1       6.923   4.635  14.943  0.00  0.00    +0.000 HD
ENDROOT
BRANCH   1  18
ATOM     18  C   UNL     1       3.500   1.876  17.913  0.00  0.00    +0.000 C 
BRANCH  18  19
ATOM     19  S   UNL     1       1.925   2.026  18.833  0.00  0.00    +0.000 S 
BRANCH  19  24
ATOM     20  C   UNL     1       2.194   8.017  19.559  0.00  0.00    +0.000 C 
ATOM     21  C   UNL     1       1.877   6.563  19.370  0.00  0.00    +0.000 A 
ATOM     22  C   UNL     1       1.760   5.706  20.466  0.00  0.00    +0.000 A 
ATOM     23  C   UNL     1       1.642   4.328  20.272  0.00  0.00    +0.000 A 
ATOM     24  C   UNL     1       1.640   3.781  18.982  0.00  0.00    +0.000 A 
ATOM     25  C   UNL     1       1.660   4.644  17.885  0.00  0.00    +0.000 A 
ATOM     26  C   UNL     1       1.779   6.026  18.080  0.00  0.00    +0.000 A 
ENDBRANCH  19  24
ENDBRANCH  18  19
ENDBRANCH   1  18
TORSDOF 3
ENDMDL
MODEL 6
REMARK VINA RESULT:      -7.0      5.094      7.544
REMARK  Name = 
REMARK  5 active torsions:
REMARK  status: ('A' for Active; 'I' for Inactive)
REMARK    1  A    between atoms: C_1  and  C_2
REMARK    2  A    between atoms: C_5  and  S_6
REMARK    3  A    between atoms: S_6  and  C_7
REMARK    4  A    between atoms: C_7  and  C_8
REMARK    5  A    between atoms: C_19  and  C_20
REMARK                            x       y       z     vdW  Elec       q    Type
REMARK                         _______ _______ _______ _____ _____    ______ ____
ROOT
ATOM      1  C   UNL     1       2.181   7.283  19.576  0.00  0.00    +0.000 A 
ATOM      2  C   UNL     1       2.753   7.851  18.446  0.00  0.00    +0.000 A 
ATOM      3  N   UNL     1       3.507   7.188  17.539  0.00  0.00    +0.000 NA
ATOM      4  C   UNL     1       3.809   5.906  17.735  0.00  0.00    +0.000 A 
ATOM      5  N   UNL     1       4.602   5.360  16.823  0.00  0.00    +0.000 NA
ATOM      6  C   UNL     1       4.973   4.100  16.994  0.00  0.00    +0.000 A 
ATOM      7  N   UNL     1       5.784   3.526  16.043  0.00  0.00    +0.000 N 
ATOM      8  N   UNL     1       4.600   3.337  18.012  0.00  0.00    +0.000 NA
ATOM      9  C   UNL     1       3.802   3.901  18.924  0.00  0.00    +0.000 A 
ATOM     10  N   UNL     1       3.546   3.066  20.018  0.00  0.00    +0.000 N 
ATOM     11  C   UNL     1       3.299   5.211  18.830  0.00  0.00    +0.000 A 
ATOM     12  C   UNL     1       2.372   5.894  19.711  0.00  0.00    +0.000 A 
ATOM     13  C   UNL     1       1.609   5.103  20.747  0.00  0.00    +0.000 C 
ATOM     14  H   UNL     1       5.673   4.006  15.161  0.00  0.00    +0.000 HD
ATOM     15  H   UNL     1       5.665   2.523  16.047  0.00  0.00    +0.000 HD
ATOM     16  H   UNL     1       4.068   2.206  19.854  0.00  0.00    +0.000 HD
ATOM     17  H   UNL     1       3.846   3.509  20.882  0.00  0.00    +0.000 HD
ENDROOT
BRANCH   1  18
ATOM     18  C   UNL     1       1.384   8.194  20.501  0.00  0.00    +0.000 C 
BRANCH  18  19
ATOM     19  S   UNL     1       0.827   9.742  19.699  0.00  0.00    +0.000 S 
BRANCH  19  24
ATOM     20  C   UNL     1      -3.090  12.207  23.581  0.00  0.00    +0.000 C 
ATOM     21  C   UNL     1      -1.950  11.756  22.716  0.00  0.00    +0.000 A 
ATOM     22  C   UNL     1      -1.761  12.292  21.440  0.00  0.00    +0.000 A 
ATOM     23  C   UNL     1      -0.809  11.740  20.580  0.00  0.00    +0.000 A 
ATOM     24  C   UNL     1      -0.030  10.645  20.977  0.00  0.00    +0.000 A 
ATOM     25  C   UNL     1      -0.150  10.172  22.284  0.00  0.00    +0.000 A 
ATOM     26  C   UNL     1      -1.106  10.724  23.146  0.00  0.00    +0.000 A 
ENDBRANCH  19  24
ENDBRANCH  18  19
ENDBRANCH   1  18
TORSDOF 3
ENDMDL
MODEL 7
REMARK VINA RESULT:      -7.0      5.031      7.513
REMARK  Name = 
REMARK  5 active torsions:
REMARK  status: ('A' for Active; 'I' for Inactive)
REMARK    1  A    between atoms: C_1  and  C_2
REMARK    2  A    between atoms: C_5  and  S_6
REMARK    3  A    between atoms: S_6  and  C_7
REMARK    4  A    between atoms: C_7  and  C_8
REMARK    5  A    between atoms: C_19  and  C_20
REMARK                            x       y       z     vdW  Elec       q    Type
REMARK                         _______ _______ _______ _____ _____    ______ ____
ROOT
ATOM      1  C   UNL     1       2.206   7.745  19.086  0.00  0.00    +0.000 A 
ATOM      2  C   UNL     1       2.835   8.158  17.920  0.00  0.00    +0.000 A 
ATOM      3  N   UNL     1       3.627   7.379  17.146  0.00  0.00    +0.000 NA
ATOM      4  C   UNL     1       3.910   6.135  17.524  0.00  0.00    +0.000 A 
ATOM      5  N   UNL     1       4.741   5.471  16.732  0.00  0.00    +0.000 NA
ATOM      6  C   UNL     1       5.094   4.244  17.086  0.00  0.00    +0.000 A 
ATOM      7  N   UNL     1       5.945   3.549  16.260  0.00  0.00    +0.000 N 
ATOM      8  N   UNL     1       4.667   3.624  18.177  0.00  0.00    +0.000 NA
ATOM      9  C   UNL     1       3.830   4.304  18.967  0.00  0.00    +0.000 A 
ATOM     10  N   UNL     1       3.517   3.623  20.148  0.00  0.00    +0.000 N 
ATOM     11  C   UNL     1       3.343   5.592  18.676  0.00  0.00    +0.000 A 
ATOM     12  C   UNL     1       2.380   6.386  19.413  0.00  0.00    +0.000 A 
ATOM     13  C   UNL     1       1.562   5.741  20.507  0.00  0.00    +0.000 C 
ATOM     14  H   UNL     1       5.879   3.907  15.317  0.00  0.00    +0.000 HD
ATOM     15  H   UNL     1       5.819   2.555  16.390  0.00  0.00    +0.000 HD
ATOM     16  H   UNL     1       4.040   2.748  20.125  0.00  0.00    +0.000 HD
ATOM     17  H   UNL     1       3.778   4.176  20.959  0.00  0.00    +0.000 HD
ENDROOT
BRANCH   1  18
ATOM     18  C   UNL     1       1.373   8.772  19.843  0.00  0.00    +0.000 C 
BRANCH  18  19
ATOM     19  S   UNL     1       1.132  10.336  18.925  0.00  0.00    +0.000 S 
BRANCH  19  24
ATOM     20  C   UNL     1      -4.471  11.573  17.037  0.00  0.00    +0.000 C 
ATOM     21  C   UNL     1      -3.189  11.086  17.646  0.00  0.00    +0.000 A 
ATOM     22  C   UNL     1      -2.656  11.701  18.782  0.00  0.00    +0.000 A 
ATOM     23  C   UNL     1      -1.380  11.357  19.233  0.00  0.00    +0.000 A 
ATOM     24  C   UNL     1      -0.613  10.397  18.559  0.00  0.00    +0.000 A 
ATOM     25  C   UNL     1      -1.183   9.715  17.483  0.00  0.00    +0.000 A 
ATOM     26  C   UNL     1      -2.462  10.060  17.030  0.00  0.00    +0.000 A 
ENDBRANCH  19  24
ENDBRANCH  18  19
ENDBRANCH   1  18
TORSDOF 3
ENDMDL
MODEL 8
REMARK VINA RESULT:      -6.9      2.185      4.351
REMARK  Name = 
REMARK  5 active torsions:
REMARK  status: ('A' for Active; 'I' for Inactive)
REMARK    1  A    between atoms: C_1  and  C_2
REMARK    2  A    between atoms: C_5  and  S_6
REMARK    3  A    between atoms: S_6  and  C_7
REMARK    4  A    between atoms: C_7  and  C_8
REMARK    5  A    between atoms: C_19  and  C_20
REMARK                            x       y       z     vdW  Elec       q    Type
REMARK                         _______ _______ _______ _____ _____    ______ ____
ROOT
ATOM      1  C   UNL     1       4.959   6.193  17.733  0.00  0.00    +0.000 A 
ATOM      2  C   UNL     1       3.662   6.680  17.644  0.00  0.00    +0.000 A 
ATOM      3  N   UNL     1       2.583   6.135  18.252  0.00  0.00    +0.000 NA
ATOM      4  C   UNL     1       2.710   5.006  18.946  0.00  0.00    +0.000 A 
ATOM      5  N   UNL     1       1.587   4.517  19.455  0.00  0.00    +0.000 NA
ATOM      6  C   UNL     1       1.648   3.370  20.114  0.00  0.00    +0.000 A 
ATOM      7  N   UNL     1       0.488   2.868  20.654  0.00  0.00    +0.000 N 
ATOM      8  N   UNL     1       2.760   2.675  20.313  0.00  0.00    +0.000 NA
ATOM      9  C   UNL     1       3.884   3.179  19.795  0.00  0.00    +0.000 A 
ATOM     10  N   UNL     1       4.987   2.332  19.953  0.00  0.00    +0.000 N 
ATOM     11  C   UNL     1       3.958   4.410  19.118  0.00  0.00    +0.000 A 
ATOM     12  C   UNL     1       5.126   5.086  18.587  0.00  0.00    +0.000 A 
ATOM     13  C   UNL     1       6.505   4.606  18.974  0.00  0.00    +0.000 C 
ATOM     14  H   UNL     1      -0.171   3.617  20.811  0.00  0.00    +0.000 HD
ATOM     15  H   UNL     1       0.703   2.265  21.435  0.00  0.00    +0.000 HD
ATOM     16  H   UNL     1       4.644   1.496  20.426  0.00  0.00    +0.000 HD
ATOM     17  H   UNL     1       5.387   2.095  19.050  0.00  0.00    +0.000 HD
ENDROOT
BRANCH   1  18
ATOM     18  C   UNL     1       6.045   6.925  16.955  0.00  0.00    +0.000 C 
BRANCH  18  19
ATOM     19  S   UNL     1       7.339   5.814  16.290  0.00  0.00    +0.000 S 
BRANCH  19  24
ATOM     20  C   UNL     1       5.655   2.474  11.546  0.00  0.00    +0.000 C 
ATOM     21  C   UNL     1       5.947   3.490  12.611  0.00  0.00    +0.000 A 
ATOM     22  C   UNL     1       7.132   4.230  12.591  0.00  0.00    +0.000 A 
ATOM     23  C   UNL     1       7.473   5.040  13.677  0.00  0.00    +0.000 A 
ATOM     24  C   UNL     1       6.639   5.126  14.800  0.00  0.00    +0.000 A 
ATOM     25  C   UNL     1       5.411   4.464  14.779  0.00  0.00    +0.000 A 
ATOM     26  C   UNL     1       5.070   3.650  13.691  0.00  0.00    +0.000 A 
ENDBRANCH  19  24
ENDBRANCH  18  19
ENDBRANCH   1  18
TORSDOF 3
ENDMDL
MODEL 9
REMARK VINA RESULT:      -6.9      4.877      7.151
REMARK  Name = 
REMARK  5 active torsions:
REMARK  status: ('A' for Active; 'I' for Inactive)
REMARK    1  A    between atoms: C_1  and  C_2
REMARK    2  A    between atoms: C_5  and  S_6
REMARK    3  A    between atoms: S_6  and  C_7
REMARK    4  A    between atoms: C_7  and  C_8
REMARK    5  A    between atoms: C_19  and  C_20
REMARK                            x       y       z     vdW  Elec       q    Type
REMARK                         _______ _______ _______ _____ _____    ______ ____
ROOT
ATOM      1  C   UNL     1       2.461   7.603  18.525  0.00  0.00    +0.000 A 
ATOM      2  C   UNL     1       2.050   7.042  19.726  0.00  0.00    +0.000 A 
ATOM      3  N   UNL     1       2.486   5.861  20.222  0.00  0.00    +0.000 NA
ATOM      4  C   UNL     1       3.325   5.110  19.511  0.00  0.00    +0.000 A 
ATOM      5  N   UNL     1       3.649   3.944  20.055  0.00  0.00    +0.000 NA
ATOM      6  C   UNL     1       4.443   3.135  19.368  0.00  0.00    +0.000 A 
ATOM      7  N   UNL     1       4.791   1.932  19.934  0.00  0.00    +0.000 N 
ATOM      8  N   UNL     1       4.949   3.413  18.174  0.00  0.00    +0.000 NA
ATOM      9  C   UNL     1       4.613   4.591  17.639  0.00  0.00    +0.000 A 
ATOM     10  N   UNL     1       5.096   4.756  16.336  0.00  0.00    +0.000 N 
ATOM     11  C   UNL     1       3.820   5.555  18.287  0.00  0.00    +0.000 A 
ATOM     12  C   UNL     1       3.461   6.886  17.839  0.00  0.00    +0.000 A 
ATOM     13  C   UNL     1       4.177   7.493  16.656  0.00  0.00    +0.000 C 
ATOM     14  H   UNL     1       4.717   1.990  20.940  0.00  0.00    +0.000 HD
ATOM     15  H   UNL     1       5.668   1.610  19.550  0.00  0.00    +0.000 HD
ATOM     16  H   UNL     1       5.588   3.896  16.098  0.00  0.00    +0.000 HD
ATOM     17  H   UNL     1       4.330   4.923  15.690  0.00  0.00    +0.000 HD
ENDROOT
BRANCH   1  18
ATOM     18  C   UNL     1       1.838   8.931  18.113  0.00  0.00    +0.000 C 
BRANCH  18  19
ATOM     19  S   UNL     1       0.881   9.733  19.451  0.00  0.00    +0.000 S 
BRANCH  19  24
ATOM     20  C   UNL     1      -4.538  11.256  17.257  0.00  0.00    +0.000 C 
ATOM     21  C   UNL     1      -3.103  11.058  17.649  0.00  0.00    +0.000 A 
ATOM     22  C   UNL     1      -2.315  10.090  17.023  0.00  0.00    +0.000 A 
ATOM     23  C   UNL     1      -1.042   9.794  17.515  0.00  0.00    +0.000 A 
ATOM     24  C   UNL     1      -0.533  10.459  18.639  0.00  0.00    +0.000 A 
ATOM     25  C   UNL     1      -1.280  11.492  19.205  0.00  0.00    +0.000 A 
ATOM     26  C   UNL     1      -2.557  11.788  18.713  0.00  0.00    +0.000 A 
ENDBRANCH  19  24
ENDBRANCH  18  19
ENDBRANCH   1  18
TORSDOF 3
ENDMDL
