MODEL 1
REMARK VINA RESULT:      -6.6      0.000      0.000
REMARK  Name = 
REMARK  6 active torsions:
REMARK  status: ('A' for Active; 'I' for Inactive)
REMARK    1  A    between atoms: C_1  and  O_2
REMARK    2  A    between atoms: O_2  and  C_3
REMARK    3  A    between atoms: C_3  and  C_4
REMARK    4  A    between atoms: C_4  and  C_5
REMARK    5  A    between atoms: C_4  and  N_6
REMARK    6  A    between atoms: N_9  and  C_10
REMARK                            x       y       z     vdW  Elec       q    Type
REMARK                         _______ _______ _______ _____ _____    ______ ____
ROOT
ATOM      1  N   UNL     1       5.941   3.410  16.285  0.00  0.00    +0.000 N 
ATOM      2  C   UNL     1       4.842   3.732  17.055  0.00  0.00    +0.000 C 
ATOM      3  O   UNL     1       4.504   4.880  17.304  0.00  0.00    +0.000 OA
ATOM      4  N   UNL     1       4.232   2.602  17.561  0.00  0.00    +0.000 N 
ATOM      5  H   UNL     1       5.780   2.635  15.658  0.00  0.00    +0.000 HD
ATOM      6  H   UNL     1       4.901   1.904  17.861  0.00  0.00    +0.000 HD
ENDROOT
BRANCH   4   7
ATOM      7  C   UNL     1       3.069   2.716  18.359  0.00  0.00    +0.000 A 
ATOM      8  C   UNL     1       1.796   2.771  17.782  0.00  0.00    +0.000 A 
ATOM      9  C   UNL     1       0.661   2.884  18.588  0.00  0.00    +0.000 A 
ATOM     10  C   UNL     1       0.795   2.968  19.975  0.00  0.00    +0.000 A 
ATOM     11  C   UNL     1       2.065   2.922  20.554  0.00  0.00    +0.000 A 
ATOM     12 CL   UNL     1       2.218   3.072  22.263  0.00  0.00    +0.000 Cl
ATOM     13  C   UNL     1       3.194   2.772  19.749  0.00  0.00    +0.000 A 
ATOM     14  F   UNL     1       4.422   2.739  20.296  0.00  0.00    +0.000 F 
ENDBRANCH   4   7
BRANCH   1  15
ATOM     15  C   UNL     1       6.793   4.490  15.771  0.00  0.00    +0.000 C 
ATOM     16  C   UNL     1       5.981   5.371  14.822  0.00  0.00    +0.000 C 
BRANCH  15  17
ATOM     17  C   UNL     1       7.393   5.341  16.902  0.00  0.00    +0.000 C 
BRANCH  17  19
ATOM     18  C   UNL     1       7.546   7.610  17.533  0.00  0.00    +0.000 C 
ATOM     19  O   UNL     1       7.539   6.691  16.448  0.00  0.00    +0.000 OA
ENDBRANCH  17  19
ENDBRANCH  15  17
ENDBRANCH   1  15
TORSDOF 4
ENDMDL
MODEL 2
REMARK VINA RESULT:      -6.6      2.498      3.085
REMARK  Name = 
REMARK  6 active torsions:
REMARK  status: ('A' for Active; 'I' for Inactive)
REMARK    1  A    between atoms: C_1  and  O_2
REMARK    2  A    between atoms: O_2  and  C_3
REMARK    3  A    between atoms: C_3  and  C_4
REMARK    4  A    between atoms: C_4  and  C_5
REMARK    5  A    between atoms: C_4  and  N_6
REMARK    6  A    between atoms: N_9  and  C_10
REMARK                            x       y       z     vdW  Elec       q    Type
REMARK                         _______ _______ _______ _____ _____    ______ ____
ROOT
ATOM      1  N   UNL     1       5.534   6.833  16.967  0.00  0.00    +0.000 N 
ATOM      2  C   UNL     1       4.866   6.020  17.860  0.00  0.00    +0.000 C 
ATOM      3  O   UNL     1       5.414   5.152  18.525  0.00  0.00    +0.000 OA
ATOM      4  N   UNL     1       3.507   6.263  17.845  0.00  0.00    +0.000 N 
ATOM      5  H   UNL     1       5.221   7.793  16.986  0.00  0.00    +0.000 HD
ATOM      6  H   UNL     1       3.155   6.420  16.909  0.00  0.00    +0.000 HD
ENDROOT
BRANCH   4   7
ATOM      7  C   UNL     1       2.645   5.547  18.710  0.00  0.00    +0.000 A 
ATOM      8  C   UNL     1       2.336   6.028  19.986  0.00  0.00    +0.000 A 
ATOM      9  C   UNL     1       1.484   5.305  20.824  0.00  0.00    +0.000 A 
ATOM     10  C   UNL     1       0.955   4.085  20.398  0.00  0.00    +0.000 A 
ATOM     11  C   UNL     1       1.269   3.598  19.128  0.00  0.00    +0.000 A 
ATOM     12 CL   UNL     1       0.646   2.070  18.634  0.00  0.00    +0.000 Cl
ATOM     13  C   UNL     1       2.091   4.339  18.279  0.00  0.00    +0.000 A 
ATOM     14  F   UNL     1       2.408   3.873  17.059  0.00  0.00    +0.000 F 
ENDBRANCH   4   7
BRANCH   1  15
ATOM     15  C   UNL     1       6.972   6.626  16.751  0.00  0.00    +0.000 C 
ATOM     16  C   UNL     1       7.740   7.045  18.004  0.00  0.00    +0.000 C 
BRANCH  15  17
ATOM     17  C   UNL     1       7.299   5.168  16.391  0.00  0.00    +0.000 C 
BRANCH  17  19
ATOM     18  C   UNL     1       6.554   4.328  14.316  0.00  0.00    +0.000 C 
ATOM     19  O   UNL     1       7.560   5.076  14.987  0.00  0.00    +0.000 OA
ENDBRANCH  17  19
ENDBRANCH  15  17
ENDBRANCH   1  15
TORSDOF 4
ENDMDL
MODEL 3
REMARK VINA RESULT:      -6.6      1.625      1.730
REMARK  Name = 
REMARK  6 active torsions:
REMARK  status: ('A' for Active; 'I' for Inactive)
REMARK    1  A    between atoms: C_1  and  O_2
REMARK    2  A    between atoms: O_2  and  C_3
REMARK    3  A    between atoms: C_3  and  C_4
REMARK    4  A    between atoms: C_4  and  C_5
REMARK    5  A    between atoms: C_4  and  N_6
REMARK    6  A    between atoms: N_9  and  C_10
REMARK                            x       y       z     vdW  Elec       q    Type
REMARK                         _______ _______ _______ _____ _____    ______ ____
ROOT
ATOM      1  N   UNL     1       6.329   3.826  17.002  0.00  0.00    +0.000 N 
ATOM      2  C   UNL     1       5.035   4.062  17.417  0.00  0.00    +0.000 C 
ATOM      3  O   UNL     1       4.229   4.720  16.774  0.00  0.00    +0.000 OA
ATOM      4  N   UNL     1       4.801   3.530  18.668  0.00  0.00    +0.000 N 
ATOM      5  H   UNL     1       6.645   2.884  17.185  0.00  0.00    +0.000 HD
ATOM      6  H   UNL     1       5.587   3.656  19.294  0.00  0.00    +0.000 HD
ENDROOT
BRANCH   4   7
ATOM      7  C   UNL     1       3.522   3.644  19.264  0.00  0.00    +0.000 A 
ATOM      8  C   UNL     1       2.640   2.559  19.301  0.00  0.00    +0.000 A 
ATOM      9  C   UNL     1       1.383   2.694  19.894  0.00  0.00    +0.000 A 
ATOM     10  C   UNL     1       0.992   3.921  20.431  0.00  0.00    +0.000 A 
ATOM     11  C   UNL     1       1.867   5.009  20.389  0.00  0.00    +0.000 A 
ATOM     12 CL   UNL     1       1.354   6.529  21.015  0.00  0.00    +0.000 Cl
ATOM     13  C   UNL     1       3.136   4.862  19.829  0.00  0.00    +0.000 A 
ATOM     14  F   UNL     1       3.981   5.906  19.773  0.00  0.00    +0.000 F 
ENDBRANCH   4   7
BRANCH   1  15
ATOM     15  C   UNL     1       6.800   4.431  15.749  0.00  0.00    +0.000 C 
ATOM     16  C   UNL     1       6.061   3.800  14.570  0.00  0.00    +0.000 C 
BRANCH  15  17
ATOM     17  C   UNL     1       6.611   5.957  15.738  0.00  0.00    +0.000 C 
BRANCH  17  19
ATOM     18  C   UNL     1       7.280   7.350  17.520  0.00  0.00    +0.000 C 
ATOM     19  O   UNL     1       7.713   6.573  16.411  0.00  0.00    +0.000 OA
ENDBRANCH  17  19
ENDBRANCH  15  17
ENDBRANCH   1  15
TORSDOF 4
ENDMDL
MODEL 4
REMARK VINA RESULT:      -6.5      3.019      4.177
REMARK  Name = 
REMARK  6 active torsions:
REMARK  status: ('A' for Active; 'I' for Inactive)
REMARK    1  A    between atoms: C_1  and  O_2
REMARK    2  A    between atoms: O_2  and  C_3
REMARK    3  A    between atoms: C_3  and  C_4
REMARK    4  A    between atoms: C_4  and  C_5
REMARK    5  A    between atoms: C_4  and  N_6
REMARK    6  A    between atoms: N_9  and  C_10
REMARK                            x       y       z     vdW  Elec       q    Type
REMARK                         _______ _______ _______ _____ _____    ______ ____
ROOT
ATOM      1  N   UNL     1       6.318   3.437  14.114  0.00  0.00    +0.000 N 
ATOM      2  C   UNL     1       5.653   4.168  15.076  0.00  0.00    +0.000 C 
ATOM      3  O   UNL     1       5.152   5.264  14.866  0.00  0.00    +0.000 OA
ATOM      4  N   UNL     1       5.695   3.541  16.305  0.00  0.00    +0.000 N 
ATOM      5  H   UNL     1       6.119   2.447  14.150  0.00  0.00    +0.000 HD
ATOM      6  H   UNL     1       6.596   3.120  16.492  0.00  0.00    +0.000 HD
ENDROOT
BRANCH   4   7
ATOM      7  C   UNL     1       5.048   4.120  17.423  0.00  0.00    +0.000 A 
ATOM      8  C   UNL     1       5.754   4.898  18.346  0.00  0.00    +0.000 A 
ATOM      9  C   UNL     1       5.096   5.460  19.443  0.00  0.00    +0.000 A 
ATOM     10  C   UNL     1       3.733   5.225  19.635  0.00  0.00    +0.000 A 
ATOM     11  C   UNL     1       3.028   4.441  18.719  0.00  0.00    +0.000 A 
ATOM     12 CL   UNL     1       1.357   4.123  18.994  0.00  0.00    +0.000 Cl
ATOM     13  C   UNL     1       3.679   3.912  17.605  0.00  0.00    +0.000 A 
ATOM     14  F   UNL     1       3.011   3.146  16.725  0.00  0.00    +0.000 F 
ENDBRANCH   4   7
BRANCH   1  15
ATOM     15  C   UNL     1       6.491   4.010  12.772  0.00  0.00    +0.000 C 
ATOM     16  C   UNL     1       7.739   4.892  12.753  0.00  0.00    +0.000 C 
BRANCH  15  17
ATOM     17  C   UNL     1       6.593   2.925  11.688  0.00  0.00    +0.000 C 
BRANCH  17  19
ATOM     18  C   UNL     1       4.274   3.191  11.338  0.00  0.00    +0.000 C 
ATOM     19  O   UNL     1       5.329   2.264  11.564  0.00  0.00    +0.000 OA
ENDBRANCH  17  19
ENDBRANCH  15  17
ENDBRANCH   1  15
TORSDOF 4
ENDMDL
MODEL 5
REMARK VINA RESULT:      -6.5      1.453      2.235
REMARK  Name = 
REMARK  6 active torsions:
REMARK  status: ('A' for Active; 'I' for Inactive)
REMARK    1  A    between atoms: C_1  and  O_2
REMARK    2  A    between atoms: O_2  and  C_3
REMARK    3  A    between atoms: C_3  and  C_4
REMARK    4  A    between atoms: C_4  and  C_5
REMARK    5  A    between atoms: C_4  and  N_6
REMARK    6  A    between atoms: N_9  and  C_10
REMARK                            x       y       z     vdW  Elec       q    Type
REMARK                         _______ _______ _______ _____ _____    ______ ____
ROOT
ATOM      1  N   UNL     1       5.781   3.713  16.121  0.00  0.00    +0.000 N 
ATOM      2  C   UNL     1       4.627   3.857  16.864  0.00  0.00    +0.000 C 
ATOM      3  O   UNL     1       4.003   4.904  16.948  0.00  0.00    +0.000 OA
ATOM      4  N   UNL     1       4.322   2.698  17.549  0.00  0.00    +0.000 N 
ATOM      5  H   UNL     1       5.832   2.838  15.620  0.00  0.00    +0.000 HD
ATOM      6  H   UNL     1       5.144   2.248  17.932  0.00  0.00    +0.000 HD
ENDROOT
BRANCH   4   7
ATOM      7  C   UNL     1       3.159   2.630  18.353  0.00  0.00    +0.000 A 
ATOM      8  C   UNL     1       1.909   2.340  17.796  0.00  0.00    +0.000 A 
ATOM      9  C   UNL     1       0.774   2.278  18.608  0.00  0.00    +0.000 A 
ATOM     10  C   UNL     1       0.879   2.532  19.976  0.00  0.00    +0.000 A 
ATOM     11  C   UNL     1       2.124   2.831  20.533  0.00  0.00    +0.000 A 
ATOM     12 CL   UNL     1       2.231   3.186  22.215  0.00  0.00    +0.000 Cl
ATOM     13  C   UNL     1       3.262   2.856  19.727  0.00  0.00    +0.000 A 
ATOM     14  F   UNL     1       4.463   3.154  20.252  0.00  0.00    +0.000 F 
ENDBRANCH   4   7
BRANCH   1  15
ATOM     15  C   UNL     1       6.335   4.884  15.428  0.00  0.00    +0.000 C 
ATOM     16  C   UNL     1       7.404   5.535  16.304  0.00  0.00    +0.000 C 
BRANCH  15  17
ATOM     17  C   UNL     1       6.924   4.519  14.056  0.00  0.00    +0.000 C 
BRANCH  17  19
ATOM     18  C   UNL     1       6.287   3.142  12.249  0.00  0.00    +0.000 C 
ATOM     19  O   UNL     1       5.864   4.135  13.175  0.00  0.00    +0.000 OA
ENDBRANCH  17  19
ENDBRANCH  15  17
ENDBRANCH   1  15
TORSDOF 4
ENDMDL
MODEL 6
REMARK VINA RESULT:      -6.4      1.968      1.992
REMARK  Name = 
REMARK  6 active torsions:
REMARK  status: ('A' for Active; 'I' for Inactive)
REMARK    1  A    between atoms: C_1  and  O_2
REMARK    2  A    between atoms: O_2  and  C_3
REMARK    3  A    between atoms: C_3  and  C_4
REMARK    4  A    between atoms: C_4  and  C_5
REMARK    5  A    between atoms: C_4  and  N_6
REMARK    6  A    between atoms: N_9  and  C_10
REMARK                            x       y       z     vdW  Elec       q    Type
REMARK                         _______ _______ _______ _____ _____    ______ ____
ROOT
ATOM      1  N   UNL     1       5.045   4.254  15.730  0.00  0.00    +0.000 N 
ATOM      2  C   UNL     1       4.523   4.120  17.000  0.00  0.00    +0.000 C 
ATOM      3  O   UNL     1       5.195   3.834  17.981  0.00  0.00    +0.000 OA
ATOM      4  N   UNL     1       3.151   4.275  17.000  0.00  0.00    +0.000 N 
ATOM      5  H   UNL     1       4.654   5.029  15.213  0.00  0.00    +0.000 HD
ATOM      6  H   UNL     1       2.714   3.835  16.200  0.00  0.00    +0.000 HD
ENDROOT
BRANCH   4   7
ATOM      7  C   UNL     1       2.425   4.198  18.213  0.00  0.00    +0.000 A 
ATOM      8  C   UNL     1       1.816   3.006  18.618  0.00  0.00    +0.000 A 
ATOM      9  C   UNL     1       1.103   2.951  19.818  0.00  0.00    +0.000 A 
ATOM     10  C   UNL     1       0.977   4.096  20.608  0.00  0.00    +0.000 A 
ATOM     11  C   UNL     1       1.577   5.289  20.201  0.00  0.00    +0.000 A 
ATOM     12 CL   UNL     1       1.373   6.704  21.163  0.00  0.00    +0.000 Cl
ATOM     13  C   UNL     1       2.318   5.332  19.021  0.00  0.00    +0.000 A 
ATOM     14  F   UNL     1       2.890   6.479  18.616  0.00  0.00    +0.000 F 
ENDBRANCH   4   7
BRANCH   1  15
ATOM     15  C   UNL     1       6.474   3.991  15.514  0.00  0.00    +0.000 C 
ATOM     16  C   UNL     1       6.854   4.387  14.087  0.00  0.00    +0.000 C 
BRANCH  15  17
ATOM     17  C   UNL     1       7.359   4.740  16.524  0.00  0.00    +0.000 C 
BRANCH  17  19
ATOM     18  C   UNL     1       7.201   6.961  17.306  0.00  0.00    +0.000 C 
ATOM     19  O   UNL     1       7.405   6.126  16.172  0.00  0.00    +0.000 OA
ENDBRANCH  17  19
ENDBRANCH  15  17
ENDBRANCH   1  15
TORSDOF 4
ENDMDL
MODEL 7
REMARK VINA RESULT:      -6.3      3.443      5.173
REMARK  Name = 
REMARK  6 active torsions:
REMARK  status: ('A' for Active; 'I' for Inactive)
REMARK    1  A    between atoms: C_1  and  O_2
REMARK    2  A    between atoms: O_2  and  C_3
REMARK    3  A    between atoms: C_3  and  C_4
REMARK    4  A    between atoms: C_4  and  C_5
REMARK    5  A    between atoms: C_4  and  N_6
REMARK    6  A    between atoms: N_9  and  C_10
REMARK                            x       y       z     vdW  Elec       q    Type
REMARK                         _______ _______ _______ _____ _____    ______ ____
ROOT
ATOM      1  N   UNL     1       6.100   3.069  13.668  0.00  0.00    +0.000 N 
ATOM      2  C   UNL     1       6.058   3.998  14.688  0.00  0.00    +0.000 C 
ATOM      3  O   UNL     1       5.807   5.182  14.514  0.00  0.00    +0.000 OA
ATOM      4  N   UNL     1       6.405   3.433  15.899  0.00  0.00    +0.000 N 
ATOM      5  H   UNL     1       5.688   2.181  13.915  0.00  0.00    +0.000 HD
ATOM      6  H   UNL     1       7.173   2.779  15.813  0.00  0.00    +0.000 HD
ENDROOT
BRANCH   4   7
ATOM      7  C   UNL     1       6.400   4.217  17.078  0.00  0.00    +0.000 A 
ATOM      8  C   UNL     1       7.581   4.765  17.589  0.00  0.00    +0.000 A 
ATOM      9  C   UNL     1       7.554   5.534  18.755  0.00  0.00    +0.000 A 
ATOM     10  C   UNL     1       6.348   5.739  19.428  0.00  0.00    +0.000 A 
ATOM     11  C   UNL     1       5.169   5.186  18.925  0.00  0.00    +0.000 A 
ATOM     12 CL   UNL     1       3.697   5.409  19.791  0.00  0.00    +0.000 Cl
ATOM     13  C   UNL     1       5.193   4.448  17.741  0.00  0.00    +0.000 A 
ATOM     14  F   UNL     1       4.065   3.902  17.255  0.00  0.00    +0.000 F 
ENDBRANCH   4   7
BRANCH   1  15
ATOM     15  C   UNL     1       5.887   3.516  12.286  0.00  0.00    +0.000 C 
ATOM     16  C   UNL     1       7.196   4.071  11.724  0.00  0.00    +0.000 C 
BRANCH  15  17
ATOM     17  C   UNL     1       5.362   2.385  11.387  0.00  0.00    +0.000 C 
BRANCH  17  19
ATOM     18  C   UNL     1       6.119   0.156  11.232  0.00  0.00    +0.000 C 
ATOM     19  O   UNL     1       6.448   1.525  11.030  0.00  0.00    +0.000 OA
ENDBRANCH  17  19
ENDBRANCH  15  17
ENDBRANCH   1  15
TORSDOF 4
ENDMDL
MODEL 8
REMARK VINA RESULT:      -6.2      1.677      2.021
REMARK  Name = 
REMARK  6 active torsions:
REMARK  status: ('A' for Active; 'I' for Inactive)
REMARK    1  A    between atoms: C_1  and  O_2
REMARK    2  A    between atoms: O_2  and  C_3
REMARK    3  A    between atoms: C_3  and  C_4
REMARK    4  A    between atoms: C_4  and  C_5
REMARK    5  A    between atoms: C_4  and  N_6
REMARK    6  A    between atoms: N_9  and  C_10
REMARK                            x       y       z     vdW  Elec       q    Type
REMARK                         _______ _______ _______ _____ _____    ______ ____
ROOT
ATOM      1  N   UNL     1       6.446   4.724  18.462  0.00  0.00    +0.000 N 
ATOM      2  C   UNL     1       5.124   4.655  18.853  0.00  0.00    +0.000 C 
ATOM      3  O   UNL     1       4.525   5.582  19.378  0.00  0.00    +0.000 OA
ATOM      4  N   UNL     1       4.602   3.394  18.644  0.00  0.00    +0.000 N 
ATOM      5  H   UNL     1       6.628   4.274  17.576  0.00  0.00    +0.000 HD
ATOM      6  H   UNL     1       5.260   2.661  18.877  0.00  0.00    +0.000 HD
ENDROOT
BRANCH   4   7
ATOM      7  C   UNL     1       3.249   3.122  18.959  0.00  0.00    +0.000 A 
ATOM      8  C   UNL     1       2.251   3.188  17.981  0.00  0.00    +0.000 A 
ATOM      9  C   UNL     1       0.921   2.916  18.313  0.00  0.00    +0.000 A 
ATOM     10  C   UNL     1       0.580   2.601  19.630  0.00  0.00    +0.000 A 
ATOM     11  C   UNL     1       1.574   2.543  20.609  0.00  0.00    +0.000 A 
ATOM     12 CL   UNL     1       1.132   2.198  22.238  0.00  0.00    +0.000 Cl
ATOM     13  C   UNL     1       2.906   2.779  20.268  0.00  0.00    +0.000 A 
ATOM     14  F   UNL     1       3.867   2.737  21.207  0.00  0.00    +0.000 F 
ENDBRANCH   4   7
BRANCH   1  15
ATOM     15  C   UNL     1       7.207   5.951  18.729  0.00  0.00    +0.000 C 
ATOM     16  C   UNL     1       8.389   5.627  19.643  0.00  0.00    +0.000 C 
BRANCH  15  17
ATOM     17  C   UNL     1       7.704   6.617  17.436  0.00  0.00    +0.000 C 
BRANCH  17  19
ATOM     18  C   UNL     1       7.997   8.934  17.767  0.00  0.00    +0.000 C 
ATOM     19  O   UNL     1       7.113   7.914  17.317  0.00  0.00    +0.000 OA
ENDBRANCH  17  19
ENDBRANCH  15  17
ENDBRANCH   1  15
TORSDOF 4
ENDMDL
MODEL 9
REMARK VINA RESULT:      -6.2      1.759      2.219
REMARK  Name = 
REMARK  6 active torsions:
REMARK  status: ('A' for Active; 'I' for Inactive)
REMARK    1  A    between atoms: C_1  and  O_2
REMARK    2  A    between atoms: O_2  and  C_3
REMARK    3  A    between atoms: C_3  and  C_4
REMARK    4  A    between atoms: C_4  and  C_5
REMARK    5  A    between atoms: C_4  and  N_6
REMARK    6  A    between atoms: N_9  and  C_10
REMARK                            x       y       z     vdW  Elec       q    Type
REMARK                         _______ _______ _______ _____ _____    ______ ____
ROOT
ATOM      1  N   UNL     1       6.798   4.166  18.082  0.00  0.00    +0.000 N 
ATOM      2  C   UNL     1       5.480   4.295  18.469  0.00  0.00    +0.000 C 
ATOM      3  O   UNL     1       4.778   5.250  18.168  0.00  0.00    +0.000 OA
ATOM      4  N   UNL     1       5.091   3.256  19.290  0.00  0.00    +0.000 N 
ATOM      5  H   UNL     1       7.048   3.226  17.811  0.00  0.00    +0.000 HD
ATOM      6  H   UNL     1       5.812   2.997  19.952  0.00  0.00    +0.000 HD
ENDROOT
BRANCH   4   7
ATOM      7  C   UNL     1       3.764   3.191  19.777  0.00  0.00    +0.000 A 
ATOM      8  C   UNL     1       3.442   3.632  21.064  0.00  0.00    +0.000 A 
ATOM      9  C   UNL     1       2.125   3.558  21.525  0.00  0.00    +0.000 A 
ATOM     10  C   UNL     1       1.128   3.020  20.709  0.00  0.00    +0.000 A 
ATOM     11  C   UNL     1       1.449   2.571  19.426  0.00  0.00    +0.000 A 
ATOM     12 CL   UNL     1       0.217   1.868  18.448  0.00  0.00    +0.000 Cl
ATOM     13  C   UNL     1       2.757   2.680  18.955  0.00  0.00    +0.000 A 
ATOM     14  F   UNL     1       3.077   2.239  17.726  0.00  0.00    +0.000 F 
ENDBRANCH   4   7
BRANCH   1  15
ATOM     15  C   UNL     1       7.426   5.247  17.312  0.00  0.00    +0.000 C 
ATOM     16  C   UNL     1       6.908   5.214  15.874  0.00  0.00    +0.000 C 
BRANCH  15  17
ATOM     17  C   UNL     1       7.167   6.628  17.937  0.00  0.00    +0.000 C 
BRANCH  17  19
ATOM     18  C   UNL     1       8.066   8.806  17.815  0.00  0.00    +0.000 C 
ATOM     19  O   UNL     1       7.710   7.640  17.083  0.00  0.00    +0.000 OA
ENDBRANCH  17  19
ENDBRANCH  15  17
ENDBRANCH   1  15
TORSDOF 4
ENDMDL
