MODEL 1
REMARK VINA RESULT:      -9.1      0.000      0.000
REMARK  Name = 
REMARK  9 active torsions:
REMARK  status: ('A' for Active; 'I' for Inactive)
REMARK    1  A    between atoms: C_1  and  C_2
REMARK    2  A    between atoms: C_2  and  C_3
REMARK    3  A    between atoms: C_4  and  C_5
REMARK    4  A    between atoms: C_5  and  C_6
REMARK    5  A    between atoms: C_7  and  O_8
REMARK    6  A    between atoms: O_8  and  C_9
REMARK    7  A    between atoms: C_9  and  C_10
REMARK    8  A    between atoms: N_12  and  C_13
REMARK    9  A    between atoms: C_18  and  C_19
REMARK                            x       y       z     vdW  Elec       q    Type
REMARK                         _______ _______ _______ _____ _____    ______ ____
ROOT
ATOM      1  C   UNL     1       3.928   5.784  17.512  0.00  0.00    +0.000 C 
ATOM      2  C   UNL     1       3.271   6.606  18.368  0.00  0.00    +0.000 C 
ATOM      3  C   UNL     1       2.364   6.009  19.418  0.00  0.00    +0.000 C 
ATOM      4  O   UNL     1       1.719   6.672  20.226  0.00  0.00    +0.000 OA
ATOM      5  C   UNL     1       2.203   4.553  19.480  0.00  0.00    +0.000 A 
ATOM      6  C   UNL     1       1.269   3.986  20.357  0.00  0.00    +0.000 A 
ATOM      7  C   UNL     1       1.140   2.600  20.450  0.00  0.00    +0.000 A 
ATOM      8  C   UNL     1       1.954   1.773  19.678  0.00  0.00    +0.000 A 
ATOM      9  C   UNL     1       2.878   2.336  18.801  0.00  0.00    +0.000 A 
ATOM     10  C   UNL     1       2.991   3.729  18.690  0.00  0.00    +0.000 A 
ATOM     11  C   UNL     1       3.921   4.314  17.736  0.00  0.00    +0.000 C 
ATOM     12  O   UNL     1       4.696   3.566  17.113  0.00  0.00    +0.000 OA
ENDROOT
BRANCH   1  13
ATOM     13  C   UNL     1       4.824   6.207  16.363  0.00  0.00    +0.000 C 
BRANCH  13  17
ATOM     14  C   UNL     1       7.988   8.011  17.764  0.00  0.00    +0.000 C 
ATOM     15  C   UNL     1       7.039   6.909  17.393  0.00  0.00    +0.000 C 
ATOM     16  C   UNL     1       7.448   5.527  17.808  0.00  0.00    +0.000 C 
ATOM     17  C   UNL     1       5.898   7.197  16.737  0.00  0.00    +0.000 C 
ENDBRANCH  13  17
ENDBRANCH   1  13
BRANCH   2  18
ATOM     18  O   UNL     1       3.398   7.987  18.223  0.00  0.00    +0.000 OA
BRANCH  18  19
ATOM     19  C   UNL     1       2.350   8.725  17.548  0.00  0.00    +0.000 C 
BRANCH  19  20
ATOM     20  C   UNL     1       1.720   9.752  18.415  0.00  0.00    +0.000 A 
ATOM     21  C   UNL     1       0.766   9.596  19.388  0.00  0.00    +0.000 A 
ATOM     22  N   UNL     1       0.577  10.851  19.906  0.00  0.00    +0.000 N 
ATOM     23  N   UNL     1       1.273  11.745  19.169  0.00  0.00    +0.000 NA
ATOM     24  N   UNL     1       2.015  11.083  18.294  0.00  0.00    +0.000 NA
BRANCH  22  25
ATOM     25  C   UNL     1      -0.240  11.206  21.004  0.00  0.00    +0.000 A 
ATOM     26  C   UNL     1      -1.104  12.299  20.847  0.00  0.00    +0.000 A 
ATOM     27  C   UNL     1      -1.998  12.637  21.861  0.00  0.00    +0.000 A 
ATOM     28  C   UNL     1      -2.066  11.862  23.016  0.00  0.00    +0.000 A 
ATOM     29  C   UNL     1      -1.190  10.790  23.190  0.00  0.00    +0.000 A 
ATOM     30  C   UNL     1      -0.234  10.471  22.209  0.00  0.00    +0.000 A 
ATOM     31  C   UNL     1       0.807   9.442  22.543  0.00  0.00    +0.000 C 
ENDBRANCH  22  25
ENDBRANCH  19  20
ENDBRANCH  18  19
ENDBRANCH   2  18
TORSDOF 6
ENDMDL
MODEL 2
REMARK VINA RESULT:      -9.1      0.408      1.299
REMARK  Name = 
REMARK  9 active torsions:
REMARK  status: ('A' for Active; 'I' for Inactive)
REMARK    1  A    between atoms: C_1  and  C_2
REMARK    2  A    between atoms: C_2  and  C_3
REMARK    3  A    between atoms: C_4  and  C_5
REMARK    4  A    between atoms: C_5  and  C_6
REMARK    5  A    between atoms: C_7  and  O_8
REMARK    6  A    between atoms: O_8  and  C_9
REMARK    7  A    between atoms: C_9  and  C_10
REMARK    8  A    between atoms: N_12  and  C_13
REMARK    9  A    between atoms: C_18  and  C_19
REMARK                            x       y       z     vdW  Elec       q    Type
REMARK                         _______ _______ _______ _____ _____    ______ ____
ROOT
ATOM      1  C   UNL     1       3.900   5.791  17.566  0.00  0.00    +0.000 C 
ATOM      2  C   UNL     1       3.249   6.638  18.403  0.00  0.00    +0.000 C 
ATOM      3  C   UNL     1       2.343   6.072  19.471  0.00  0.00    +0.000 C 
ATOM      4  O   UNL     1       1.704   6.760  20.263  0.00  0.00    +0.000 OA
ATOM      5  C   UNL     1       2.176   4.620  19.572  0.00  0.00    +0.000 A 
ATOM      6  C   UNL     1       1.242   4.080  20.467  0.00  0.00    +0.000 A 
ATOM      7  C   UNL     1       1.107   2.697  20.596  0.00  0.00    +0.000 A 
ATOM      8  C   UNL     1       1.916   1.847  19.843  0.00  0.00    +0.000 A 
ATOM      9  C   UNL     1       2.839   2.382  18.949  0.00  0.00    +0.000 A 
ATOM     10  C   UNL     1       2.958   3.771  18.801  0.00  0.00    +0.000 A 
ATOM     11  C   UNL     1       3.887   4.327  17.829  0.00  0.00    +0.000 C 
ATOM     12  O   UNL     1       4.657   3.559  17.223  0.00  0.00    +0.000 OA
ENDROOT
BRANCH   1  13
ATOM     13  C   UNL     1       4.794   6.179  16.404  0.00  0.00    +0.000 C 
BRANCH  13  17
ATOM     14  C   UNL     1       7.973   8.004  17.743  0.00  0.00    +0.000 C 
ATOM     15  C   UNL     1       7.018   6.897  17.403  0.00  0.00    +0.000 C 
ATOM     16  C   UNL     1       7.425   5.523  17.846  0.00  0.00    +0.000 C 
ATOM     17  C   UNL     1       5.873   7.174  16.749  0.00  0.00    +0.000 C 
ENDBRANCH  13  17
ENDBRANCH   1  13
BRANCH   2  18
ATOM     18  O   UNL     1       3.382   8.014  18.222  0.00  0.00    +0.000 OA
BRANCH  18  19
ATOM     19  C   UNL     1       2.347   8.734  17.507  0.00  0.00    +0.000 C 
BRANCH  19  20
ATOM     20  C   UNL     1       1.664   9.746  18.352  0.00  0.00    +0.000 A 
ATOM     21  C   UNL     1       0.602   9.585  19.205  0.00  0.00    +0.000 A 
ATOM     22  N   UNL     1       0.404  10.822  19.762  0.00  0.00    +0.000 N 
ATOM     23  N   UNL     1       1.211  11.719  19.152  0.00  0.00    +0.000 NA
ATOM     24  N   UNL     1       2.019  11.067  18.331  0.00  0.00    +0.000 NA
BRANCH  22  25
ATOM     25  C   UNL     1      -0.516  11.160  20.782  0.00  0.00    +0.000 A 
ATOM     26  C   UNL     1      -0.268  10.671  22.072  0.00  0.00    +0.000 A 
ATOM     27  C   UNL     1      -1.089  11.047  23.134  0.00  0.00    +0.000 A 
ATOM     28  C   UNL     1      -2.131  11.945  22.923  0.00  0.00    +0.000 A 
ATOM     29  C   UNL     1      -2.400  12.414  21.637  0.00  0.00    +0.000 A 
ATOM     30  C   UNL     1      -1.627  11.996  20.539  0.00  0.00    +0.000 A 
ATOM     31  C   UNL     1      -2.091  12.373  19.162  0.00  0.00    +0.000 C 
ENDBRANCH  22  25
ENDBRANCH  19  20
ENDBRANCH  18  19
ENDBRANCH   2  18
TORSDOF 6
ENDMDL
MODEL 3
REMARK VINA RESULT:      -8.8      1.040      1.623
REMARK  Name = 
REMARK  9 active torsions:
REMARK  status: ('A' for Active; 'I' for Inactive)
REMARK    1  A    between atoms: C_1  and  C_2
REMARK    2  A    between atoms: C_2  and  C_3
REMARK    3  A    between atoms: C_4  and  C_5
REMARK    4  A    between atoms: C_5  and  C_6
REMARK    5  A    between atoms: C_7  and  O_8
REMARK    6  A    between atoms: O_8  and  C_9
REMARK    7  A    between atoms: C_9  and  C_10
REMARK    8  A    between atoms: N_12  and  C_13
REMARK    9  A    between atoms: C_18  and  C_19
REMARK                            x       y       z     vdW  Elec       q    Type
REMARK                         _______ _______ _______ _____ _____    ______ ____
ROOT
ATOM      1  C   UNL     1       3.720   6.021  17.905  0.00  0.00    +0.000 C 
ATOM      2  C   UNL     1       2.996   6.843  18.706  0.00  0.00    +0.000 C 
ATOM      3  C   UNL     1       2.154   6.247  19.810  0.00  0.00    +0.000 C 
ATOM      4  O   UNL     1       1.457   6.909  20.574  0.00  0.00    +0.000 OA
ATOM      5  C   UNL     1       2.127   4.792  19.983  0.00  0.00    +0.000 A 
ATOM      6  C   UNL     1       1.254   4.211  20.913  0.00  0.00    +0.000 A 
ATOM      7  C   UNL     1       1.252   2.830  21.111  0.00  0.00    +0.000 A 
ATOM      8  C   UNL     1       2.134   2.024  20.392  0.00  0.00    +0.000 A 
ATOM      9  C   UNL     1       2.997   2.599  19.463  0.00  0.00    +0.000 A 
ATOM     10  C   UNL     1       2.982   3.985  19.247  0.00  0.00    +0.000 A 
ATOM     11  C   UNL     1       3.848   4.577  18.239  0.00  0.00    +0.000 C 
ATOM     12  O   UNL     1       4.684   3.857  17.663  0.00  0.00    +0.000 OA
ENDROOT
BRANCH   1  13
ATOM     13  C   UNL     1       4.566   6.434  16.716  0.00  0.00    +0.000 C 
BRANCH  13  17
ATOM     14  C   UNL     1       7.968   8.036  17.757  0.00  0.00    +0.000 C 
ATOM     15  C   UNL     1       6.954   6.997  17.378  0.00  0.00    +0.000 C 
ATOM     16  C   UNL     1       7.432   5.575  17.410  0.00  0.00    +0.000 C 
ATOM     17  C   UNL     1       5.701   7.368  17.049  0.00  0.00    +0.000 C 
ENDBRANCH  13  17
ENDBRANCH   1  13
BRANCH   2  18
ATOM     18  O   UNL     1       2.996   8.215  18.456  0.00  0.00    +0.000 OA
BRANCH  18  19
ATOM     19  C   UNL     1       1.996   8.769  17.566  0.00  0.00    +0.000 C 
BRANCH  19  20
ATOM     20  C   UNL     1       0.987   9.594  18.279  0.00  0.00    +0.000 A 
ATOM     21  C   UNL     1       1.086  10.220  19.495  0.00  0.00    +0.000 A 
ATOM     22  N   UNL     1      -0.107  10.877  19.653  0.00  0.00    +0.000 N 
ATOM     23  N   UNL     1      -0.942  10.530  18.649  0.00  0.00    +0.000 NA
ATOM     24  N   UNL     1      -0.270   9.793  17.778  0.00  0.00    +0.000 NA
BRANCH  22  25
ATOM     25  C   UNL     1      -0.466  11.750  20.707  0.00  0.00    +0.000 A 
ATOM     26  C   UNL     1      -0.969  11.178  21.884  0.00  0.00    +0.000 A 
ATOM     27  C   UNL     1      -1.251  11.981  22.988  0.00  0.00    +0.000 A 
ATOM     28  C   UNL     1      -0.993  13.347  22.939  0.00  0.00    +0.000 A 
ATOM     29  C   UNL     1      -0.519  13.927  21.761  0.00  0.00    +0.000 A 
ATOM     30  C   UNL     1      -0.290  13.147  20.613  0.00  0.00    +0.000 A 
ATOM     31  C   UNL     1       0.023  13.855  19.327  0.00  0.00    +0.000 C 
ENDBRANCH  22  25
ENDBRANCH  19  20
ENDBRANCH  18  19
ENDBRANCH   2  18
TORSDOF 6
ENDMDL
MODEL 4
REMARK VINA RESULT:      -8.8      0.982      1.147
REMARK  Name = 
REMARK  9 active torsions:
REMARK  status: ('A' for Active; 'I' for Inactive)
REMARK    1  A    between atoms: C_1  and  C_2
REMARK    2  A    between atoms: C_2  and  C_3
REMARK    3  A    between atoms: C_4  and  C_5
REMARK    4  A    between atoms: C_5  and  C_6
REMARK    5  A    between atoms: C_7  and  O_8
REMARK    6  A    between atoms: O_8  and  C_9
REMARK    7  A    between atoms: C_9  and  C_10
REMARK    8  A    between atoms: N_12  and  C_13
REMARK    9  A    between atoms: C_18  and  C_19
REMARK                            x       y       z     vdW  Elec       q    Type
REMARK                         _______ _______ _______ _____ _____    ______ ____
ROOT
ATOM      1  C   UNL     1       3.678   6.174  17.810  0.00  0.00    +0.000 C 
ATOM      2  C   UNL     1       2.951   6.974  18.630  0.00  0.00    +0.000 C 
ATOM      3  C   UNL     1       2.099   6.349  19.710  0.00  0.00    +0.000 C 
ATOM      4  O   UNL     1       1.398   6.990  20.488  0.00  0.00    +0.000 OA
ATOM      5  C   UNL     1       2.068   4.890  19.841  0.00  0.00    +0.000 A 
ATOM      6  C   UNL     1       1.187   4.284  20.748  0.00  0.00    +0.000 A 
ATOM      7  C   UNL     1       1.181   2.898  20.905  0.00  0.00    +0.000 A 
ATOM      8  C   UNL     1       2.065   2.111  20.169  0.00  0.00    +0.000 A 
ATOM      9  C   UNL     1       2.936   2.711  19.264  0.00  0.00    +0.000 A 
ATOM     10  C   UNL     1       2.926   4.102  19.087  0.00  0.00    +0.000 A 
ATOM     11  C   UNL     1       3.800   4.721  18.103  0.00  0.00    +0.000 C 
ATOM     12  O   UNL     1       4.639   4.015  17.513  0.00  0.00    +0.000 OA
ENDROOT
BRANCH   1  13
ATOM     13  C   UNL     1       4.533   6.620  16.639  0.00  0.00    +0.000 C 
BRANCH  13  17
ATOM     14  C   UNL     1       7.981   8.075  17.742  0.00  0.00    +0.000 C 
ATOM     15  C   UNL     1       6.939   7.084  17.317  0.00  0.00    +0.000 C 
ATOM     16  C   UNL     1       7.378   5.650  17.275  0.00  0.00    +0.000 C 
ATOM     17  C   UNL     1       5.695   7.505  17.014  0.00  0.00    +0.000 C 
ENDBRANCH  13  17
ENDBRANCH   1  13
BRANCH   2  18
ATOM     18  O   UNL     1       2.955   8.353  18.420  0.00  0.00    +0.000 OA
BRANCH  18  19
ATOM     19  C   UNL     1       1.913   8.946  17.607  0.00  0.00    +0.000 C 
BRANCH  19  20
ATOM     20  C   UNL     1       0.960   9.762  18.402  0.00  0.00    +0.000 A 
ATOM     21  C   UNL     1       1.179  10.463  19.560  0.00  0.00    +0.000 A 
ATOM     22  N   UNL     1      -0.017  11.070  19.839  0.00  0.00    +0.000 N 
ATOM     23  N   UNL     1      -0.955  10.625  18.973  0.00  0.00    +0.000 NA
ATOM     24  N   UNL     1      -0.361   9.871  18.061  0.00  0.00    +0.000 NA
BRANCH  22  25
ATOM     25  C   UNL     1      -0.286  11.985  20.884  0.00  0.00    +0.000 A 
ATOM     26  C   UNL     1      -0.154  13.352  20.602  0.00  0.00    +0.000 A 
ATOM     27  C   UNL     1      -0.494  14.302  21.564  0.00  0.00    +0.000 A 
ATOM     28  C   UNL     1      -1.007  13.895  22.792  0.00  0.00    +0.000 A 
ATOM     29  C   UNL     1      -1.115  12.536  23.089  0.00  0.00    +0.000 A 
ATOM     30  C   UNL     1      -0.715  11.559  22.160  0.00  0.00    +0.000 A 
ATOM     31  C   UNL     1      -0.665  10.129  22.613  0.00  0.00    +0.000 C 
ENDBRANCH  22  25
ENDBRANCH  19  20
ENDBRANCH  18  19
ENDBRANCH   2  18
TORSDOF 6
ENDMDL
MODEL 5
REMARK VINA RESULT:      -8.5      1.188      2.018
REMARK  Name = 
REMARK  9 active torsions:
REMARK  status: ('A' for Active; 'I' for Inactive)
REMARK    1  A    between atoms: C_1  and  C_2
REMARK    2  A    between atoms: C_2  and  C_3
REMARK    3  A    between atoms: C_4  and  C_5
REMARK    4  A    between atoms: C_5  and  C_6
REMARK    5  A    between atoms: C_7  and  O_8
REMARK    6  A    between atoms: O_8  and  C_9
REMARK    7  A    between atoms: C_9  and  C_10
REMARK    8  A    between atoms: N_12  and  C_13
REMARK    9  A    between atoms: C_18  and  C_19
REMARK                            x       y       z     vdW  Elec       q    Type
REMARK                         _______ _______ _______ _____ _____    ______ ____
ROOT
ATOM      1  C   UNL     1       4.071   5.963  17.934  0.00  0.00    +0.000 C 
ATOM      2  C   UNL     1       3.254   6.827  18.587  0.00  0.00    +0.000 C 
ATOM      3  C   UNL     1       2.316   6.299  19.648  0.00  0.00    +0.000 C 
ATOM      4  O   UNL     1       1.532   7.000  20.281  0.00  0.00    +0.000 OA
ATOM      5  C   UNL     1       2.302   4.863  19.940  0.00  0.00    +0.000 A 
ATOM      6  C   UNL     1       1.352   4.334  20.824  0.00  0.00    +0.000 A 
ATOM      7  C   UNL     1       1.359   2.975  21.136  0.00  0.00    +0.000 A 
ATOM      8  C   UNL     1       2.325   2.138  20.579  0.00  0.00    +0.000 A 
ATOM      9  C   UNL     1       3.266   2.661  19.695  0.00  0.00    +0.000 A 
ATOM     10  C   UNL     1       3.244   4.023  19.362  0.00  0.00    +0.000 A 
ATOM     11  C   UNL     1       4.195   4.556  18.399  0.00  0.00    +0.000 C 
ATOM     12  O   UNL     1       5.100   3.816  17.972  0.00  0.00    +0.000 OA
ENDROOT
BRANCH   1  13
ATOM     13  C   UNL     1       5.025   6.303  16.804  0.00  0.00    +0.000 C 
BRANCH  13  17
ATOM     14  C   UNL     1       5.610   4.039  13.680  0.00  0.00    +0.000 C 
ATOM     15  C   UNL     1       5.891   4.819  14.931  0.00  0.00    +0.000 C 
ATOM     16  C   UNL     1       7.326   4.864  15.365  0.00  0.00    +0.000 C 
ATOM     17  C   UNL     1       4.883   5.433  15.581  0.00  0.00    +0.000 C 
ENDBRANCH  13  17
ENDBRANCH   1  13
BRANCH   2  18
ATOM     18  O   UNL     1       3.250   8.173  18.224  0.00  0.00    +0.000 OA
BRANCH  18  19
ATOM     19  C   UNL     1       2.082   8.722  17.565  0.00  0.00    +0.000 C 
BRANCH  19  20
ATOM     20  C   UNL     1       1.453   9.824  18.337  0.00  0.00    +0.000 A 
ATOM     21  C   UNL     1       0.331   9.796  19.125  0.00  0.00    +0.000 A 
ATOM     22  N   UNL     1       0.223  11.064  19.634  0.00  0.00    +0.000 N 
ATOM     23  N   UNL     1       1.150  11.857  19.053  0.00  0.00    +0.000 NA
ATOM     24  N   UNL     1       1.939  11.102  18.303  0.00  0.00    +0.000 NA
BRANCH  22  25
ATOM     25  C   UNL     1      -0.720  11.524  20.583  0.00  0.00    +0.000 A 
ATOM     26  C   UNL     1      -0.373  11.442  21.939  0.00  0.00    +0.000 A 
ATOM     27  C   UNL     1      -1.222  11.965  22.913  0.00  0.00    +0.000 A 
ATOM     28  C   UNL     1      -2.398  12.609  22.537  0.00  0.00    +0.000 A 
ATOM     29  C   UNL     1      -2.762  12.669  21.192  0.00  0.00    +0.000 A 
ATOM     30  C   UNL     1      -1.954  12.090  20.197  0.00  0.00    +0.000 A 
ATOM     31  C   UNL     1      -2.498  12.010  18.800  0.00  0.00    +0.000 C 
ENDBRANCH  22  25
ENDBRANCH  19  20
ENDBRANCH  18  19
ENDBRANCH   2  18
TORSDOF 6
ENDMDL
MODEL 6
REMARK VINA RESULT:      -8.4      1.272      4.037
REMARK  Name = 
REMARK  9 active torsions:
REMARK  status: ('A' for Active; 'I' for Inactive)
REMARK    1  A    between atoms: C_1  and  C_2
REMARK    2  A    between atoms: C_2  and  C_3
REMARK    3  A    between atoms: C_4  and  C_5
REMARK    4  A    between atoms: C_5  and  C_6
REMARK    5  A    between atoms: C_7  and  O_8
REMARK    6  A    between atoms: O_8  and  C_9
REMARK    7  A    between atoms: C_9  and  C_10
REMARK    8  A    between atoms: N_12  and  C_13
REMARK    9  A    between atoms: C_18  and  C_19
REMARK                            x       y       z     vdW  Elec       q    Type
REMARK                         _______ _______ _______ _____ _____    ______ ____
ROOT
ATOM      1  C   UNL     1       2.771   5.478  17.951  0.00  0.00    +0.000 C 
ATOM      2  C   UNL     1       3.319   6.719  17.946  0.00  0.00    +0.000 C 
ATOM      3  C   UNL     1       4.652   6.936  17.268  0.00  0.00    +0.000 C 
ATOM      4  O   UNL     1       5.231   8.018  17.224  0.00  0.00    +0.000 OA
ATOM      5  C   UNL     1       5.329   5.797  16.642  0.00  0.00    +0.000 A 
ATOM      6  C   UNL     1       6.623   5.947  16.123  0.00  0.00    +0.000 A 
ATOM      7  C   UNL     1       7.257   4.878  15.490  0.00  0.00    +0.000 A 
ATOM      8  C   UNL     1       6.596   3.657  15.357  0.00  0.00    +0.000 A 
ATOM      9  C   UNL     1       5.313   3.505  15.878  0.00  0.00    +0.000 A 
ATOM     10  C   UNL     1       4.685   4.573  16.536  0.00  0.00    +0.000 A 
ATOM     11  C   UNL     1       3.367   4.395  17.124  0.00  0.00    +0.000 C 
ATOM     12  O   UNL     1       2.757   3.327  16.929  0.00  0.00    +0.000 OA
ENDROOT
BRANCH   1  13
ATOM     13  C   UNL     1       1.480   5.065  18.633  0.00  0.00    +0.000 C 
BRANCH  13  17
ATOM     14  C   UNL     1       1.484   2.647  21.695  0.00  0.00    +0.000 C 
ATOM     15  C   UNL     1       1.306   3.147  20.292  0.00  0.00    +0.000 C 
ATOM     16  C   UNL     1       0.709   2.172  19.321  0.00  0.00    +0.000 C 
ATOM     17  C   UNL     1       1.664   4.408  19.978  0.00  0.00    +0.000 C 
ENDBRANCH  13  17
ENDBRANCH   1  13
BRANCH   2  18
ATOM     18  O   UNL     1       2.673   7.756  18.618  0.00  0.00    +0.000 OA
BRANCH  18  19
ATOM     19  C   UNL     1       1.858   8.686  17.864  0.00  0.00    +0.000 C 
BRANCH  19  20
ATOM     20  C   UNL     1       1.303   9.776  18.705  0.00  0.00    +0.000 A 
ATOM     21  C   UNL     1       0.218   9.754  19.543  0.00  0.00    +0.000 A 
ATOM     22  N   UNL     1       0.178  11.004  20.105  0.00  0.00    +0.000 N 
ATOM     23  N   UNL     1       1.104  11.788  19.511  0.00  0.00    +0.000 NA
ATOM     24  N   UNL     1       1.831  11.039  18.697  0.00  0.00    +0.000 NA
BRANCH  22  25
ATOM     25  C   UNL     1      -0.705  11.457  21.114  0.00  0.00    +0.000 A 
ATOM     26  C   UNL     1      -1.546  12.536  20.807  0.00  0.00    +0.000 A 
ATOM     27  C   UNL     1      -2.500  12.965  21.728  0.00  0.00    +0.000 A 
ATOM     28  C   UNL     1      -2.648  12.295  22.939  0.00  0.00    +0.000 A 
ATOM     29  C   UNL     1      -1.795  11.238  23.262  0.00  0.00    +0.000 A 
ATOM     30  C   UNL     1      -0.782  10.831  22.376  0.00  0.00    +0.000 A 
ATOM     31  C   UNL     1       0.226   9.830  22.864  0.00  0.00    +0.000 C 
ENDBRANCH  22  25
ENDBRANCH  19  20
ENDBRANCH  18  19
ENDBRANCH   2  18
TORSDOF 6
ENDMDL
MODEL 7
REMARK VINA RESULT:      -8.4      1.352      1.753
REMARK  Name = 
REMARK  9 active torsions:
REMARK  status: ('A' for Active; 'I' for Inactive)
REMARK    1  A    between atoms: C_1  and  C_2
REMARK    2  A    between atoms: C_2  and  C_3
REMARK    3  A    between atoms: C_4  and  C_5
REMARK    4  A    between atoms: C_5  and  C_6
REMARK    5  A    between atoms: C_7  and  O_8
REMARK    6  A    between atoms: O_8  and  C_9
REMARK    7  A    between atoms: C_9  and  C_10
REMARK    8  A    between atoms: N_12  and  C_13
REMARK    9  A    between atoms: C_18  and  C_19
REMARK                            x       y       z     vdW  Elec       q    Type
REMARK                         _______ _______ _______ _____ _____    ______ ____
ROOT
ATOM      1  C   UNL     1       4.114   6.002  18.292  0.00  0.00    +0.000 C 
ATOM      2  C   UNL     1       3.175   6.794  18.868  0.00  0.00    +0.000 C 
ATOM      3  C   UNL     1       2.257   6.209  19.915  0.00  0.00    +0.000 C 
ATOM      4  O   UNL     1       1.369   6.842  20.481  0.00  0.00    +0.000 OA
ATOM      5  C   UNL     1       2.393   4.795  20.277  0.00  0.00    +0.000 A 
ATOM      6  C   UNL     1       1.469   4.200  21.148  0.00  0.00    +0.000 A 
ATOM      7  C   UNL     1       1.617   2.865  21.527  0.00  0.00    +0.000 A 
ATOM      8  C   UNL     1       2.696   2.123  21.051  0.00  0.00    +0.000 A 
ATOM      9  C   UNL     1       3.611   2.711  20.180  0.00  0.00    +0.000 A 
ATOM     10  C   UNL     1       3.449   4.045  19.780  0.00  0.00    +0.000 A 
ATOM     11  C   UNL     1       4.376   4.641  18.831  0.00  0.00    +0.000 C 
ATOM     12  O   UNL     1       5.378   3.993  18.477  0.00  0.00    +0.000 OA
ENDROOT
BRANCH   1  13
ATOM     13  C   UNL     1       5.074   6.400  17.186  0.00  0.00    +0.000 C 
BRANCH  13  17
ATOM     14  C   UNL     1       5.583   4.254  13.966  0.00  0.00    +0.000 C 
ATOM     15  C   UNL     1       5.873   4.921  15.279  0.00  0.00    +0.000 C 
ATOM     16  C   UNL     1       7.269   4.756  15.802  0.00  0.00    +0.000 C 
ATOM     17  C   UNL     1       4.907   5.624  15.903  0.00  0.00    +0.000 C 
ENDBRANCH  13  17
ENDBRANCH   1  13
BRANCH   2  18
ATOM     18  O   UNL     1       3.034   8.113  18.439  0.00  0.00    +0.000 OA
BRANCH  18  19
ATOM     19  C   UNL     1       1.890   8.472  17.626  0.00  0.00    +0.000 C 
BRANCH  19  20
ATOM     20  C   UNL     1       0.925   9.341  18.346  0.00  0.00    +0.000 A 
ATOM     21  C   UNL     1       1.044   9.928  19.580  0.00  0.00    +0.000 A 
ATOM     22  N   UNL     1      -0.106  10.656  19.740  0.00  0.00    +0.000 N 
ATOM     23  N   UNL     1      -0.946  10.391  18.714  0.00  0.00    +0.000 NA
ATOM     24  N   UNL     1      -0.309   9.635  17.833  0.00  0.00    +0.000 NA
BRANCH  22  25
ATOM     25  C   UNL     1      -0.425  11.522  20.811  0.00  0.00    +0.000 A 
ATOM     26  C   UNL     1      -0.505  12.895  20.538  0.00  0.00    +0.000 A 
ATOM     27  C   UNL     1      -0.906  13.785  21.532  0.00  0.00    +0.000 A 
ATOM     28  C   UNL     1      -1.270  13.308  22.788  0.00  0.00    +0.000 A 
ATOM     29  C   UNL     1      -1.166  11.946  23.075  0.00  0.00    +0.000 A 
ATOM     30  C   UNL     1      -0.701  11.037  22.108  0.00  0.00    +0.000 A 
ATOM     31  C   UNL     1      -0.420   9.627  22.539  0.00  0.00    +0.000 C 
ENDBRANCH  22  25
ENDBRANCH  19  20
ENDBRANCH  18  19
ENDBRANCH   2  18
TORSDOF 6
ENDMDL
MODEL 8
REMARK VINA RESULT:      -8.4      1.231      1.525
REMARK  Name = 
REMARK  9 active torsions:
REMARK  status: ('A' for Active; 'I' for Inactive)
REMARK    1  A    between atoms: C_1  and  C_2
REMARK    2  A    between atoms: C_2  and  C_3
REMARK    3  A    between atoms: C_4  and  C_5
REMARK    4  A    between atoms: C_5  and  C_6
REMARK    5  A    between atoms: C_7  and  O_8
REMARK    6  A    between atoms: O_8  and  C_9
REMARK    7  A    between atoms: C_9  and  C_10
REMARK    8  A    between atoms: N_12  and  C_13
REMARK    9  A    between atoms: C_18  and  C_19
REMARK                            x       y       z     vdW  Elec       q    Type
REMARK                         _______ _______ _______ _____ _____    ______ ____
ROOT
ATOM      1  C   UNL     1       3.985   5.828  18.016  0.00  0.00    +0.000 C 
ATOM      2  C   UNL     1       3.217   6.718  18.693  0.00  0.00    +0.000 C 
ATOM      3  C   UNL     1       2.381   6.239  19.858  0.00  0.00    +0.000 C 
ATOM      4  O   UNL     1       1.646   6.967  20.520  0.00  0.00    +0.000 OA
ATOM      5  C   UNL     1       2.410   4.820  20.222  0.00  0.00    +0.000 A 
ATOM      6  C   UNL     1       1.546   4.331  21.212  0.00  0.00    +0.000 A 
ATOM      7  C   UNL     1       1.597   2.990  21.592  0.00  0.00    +0.000 A 
ATOM      8  C   UNL     1       2.521   2.133  20.996  0.00  0.00    +0.000 A 
ATOM      9  C   UNL     1       3.375   2.616  20.008  0.00  0.00    +0.000 A 
ATOM     10  C   UNL     1       3.308   3.959  19.609  0.00  0.00    +0.000 A 
ATOM     11  C   UNL     1       4.166   4.448  18.541  0.00  0.00    +0.000 C 
ATOM     12  O   UNL     1       5.039   3.694  18.075  0.00  0.00    +0.000 OA
ENDROOT
BRANCH   1  13
ATOM     13  C   UNL     1       4.833   6.116  16.792  0.00  0.00    +0.000 C 
BRANCH  13  17
ATOM     14  C   UNL     1       7.934   8.290  17.730  0.00  0.00    +0.000 C 
ATOM     15  C   UNL     1       7.057   7.086  17.549  0.00  0.00    +0.000 C 
ATOM     16  C   UNL     1       7.614   5.788  18.054  0.00  0.00    +0.000 C 
ATOM     17  C   UNL     1       5.845   7.219  16.975  0.00  0.00    +0.000 C 
ENDBRANCH  13  17
ENDBRANCH   1  13
BRANCH   2  18
ATOM     18  O   UNL     1       3.165   8.044  18.263  0.00  0.00    +0.000 OA
BRANCH  18  19
ATOM     19  C   UNL     1       2.051   8.477  17.445  0.00  0.00    +0.000 C 
BRANCH  19  20
ATOM     20  C   UNL     1       1.356   9.664  18.003  0.00  0.00    +0.000 A 
ATOM     21  C   UNL     1       0.032   9.819  18.324  0.00  0.00    +0.000 A 
ATOM     22  N   UNL     1      -0.063  11.085  18.840  0.00  0.00    +0.000 N 
ATOM     23  N   UNL     1       1.123  11.717  18.689  0.00  0.00    +0.000 NA
ATOM     24  N   UNL     1       2.008  10.845  18.231  0.00  0.00    +0.000 NA
BRANCH  22  25
ATOM     25  C   UNL     1      -1.208  11.691  19.407  0.00  0.00    +0.000 A 
ATOM     26  C   UNL     1      -2.402  11.644  18.673  0.00  0.00    +0.000 A 
ATOM     27  C   UNL     1      -3.582  12.142  19.222  0.00  0.00    +0.000 A 
ATOM     28  C   UNL     1      -3.587  12.648  20.519  0.00  0.00    +0.000 A 
ATOM     29  C   UNL     1      -2.398  12.724  21.243  0.00  0.00    +0.000 A 
ATOM     30  C   UNL     1      -1.182  12.289  20.686  0.00  0.00    +0.000 A 
ATOM     31  C   UNL     1       0.086  12.584  21.434  0.00  0.00    +0.000 C 
ENDBRANCH  22  25
ENDBRANCH  19  20
ENDBRANCH  18  19
ENDBRANCH   2  18
TORSDOF 6
ENDMDL
MODEL 9
REMARK VINA RESULT:      -8.4      1.571      2.099
REMARK  Name = 
REMARK  9 active torsions:
REMARK  status: ('A' for Active; 'I' for Inactive)
REMARK    1  A    between atoms: C_1  and  C_2
REMARK    2  A    between atoms: C_2  and  C_3
REMARK    3  A    between atoms: C_4  and  C_5
REMARK    4  A    between atoms: C_5  and  C_6
REMARK    5  A    between atoms: C_7  and  O_8
REMARK    6  A    between atoms: O_8  and  C_9
REMARK    7  A    between atoms: C_9  and  C_10
REMARK    8  A    between atoms: N_12  and  C_13
REMARK    9  A    between atoms: C_18  and  C_19
REMARK                            x       y       z     vdW  Elec       q    Type
REMARK                         _______ _______ _______ _____ _____    ______ ____
ROOT
ATOM      1  C   UNL     1       3.825   5.939  17.932  0.00  0.00    +0.000 C 
ATOM      2  C   UNL     1       3.069   6.783  18.680  0.00  0.00    +0.000 C 
ATOM      3  C   UNL     1       2.206   6.220  19.785  0.00  0.00    +0.000 C 
ATOM      4  O   UNL     1       1.480   6.902  20.503  0.00  0.00    +0.000 OA
ATOM      5  C   UNL     1       2.195   4.773  20.017  0.00  0.00    +0.000 A 
ATOM      6  C   UNL     1       1.305   4.218  20.947  0.00  0.00    +0.000 A 
ATOM      7  C   UNL     1       1.317   2.846  21.201  0.00  0.00    +0.000 A 
ATOM      8  C   UNL     1       2.228   2.024  20.539  0.00  0.00    +0.000 A 
ATOM      9  C   UNL     1       3.108   2.574  19.610  0.00  0.00    +0.000 A 
ATOM     10  C   UNL     1       3.080   3.949  19.337  0.00  0.00    +0.000 A 
ATOM     11  C   UNL     1       3.964   4.513  18.328  0.00  0.00    +0.000 C 
ATOM     12  O   UNL     1       4.825   3.782  17.804  0.00  0.00    +0.000 OA
ENDROOT
BRANCH   1  13
ATOM     13  C   UNL     1       4.697   6.317  16.749  0.00  0.00    +0.000 C 
BRANCH  13  17
ATOM     14  C   UNL     1       8.035   8.002  17.864  0.00  0.00    +0.000 C 
ATOM     15  C   UNL     1       7.042   6.934  17.509  0.00  0.00    +0.000 C 
ATOM     16  C   UNL     1       7.512   5.520  17.685  0.00  0.00    +0.000 C 
ATOM     17  C   UNL     1       5.813   7.276  17.075  0.00  0.00    +0.000 C 
ENDBRANCH  13  17
ENDBRANCH   1  13
BRANCH   2  18
ATOM     18  O   UNL     1       3.057   8.144  18.374  0.00  0.00    +0.000 OA
BRANCH  18  19
ATOM     19  C   UNL     1       2.057   8.650  17.456  0.00  0.00    +0.000 C 
BRANCH  19  20
ATOM     20  C   UNL     1       1.165   9.661  18.079  0.00  0.00    +0.000 A 
ATOM     21  C   UNL     1      -0.195   9.798  17.969  0.00  0.00    +0.000 A 
ATOM     22  N   UNL     1      -0.511  10.857  18.779  0.00  0.00    +0.000 N 
ATOM     23  N   UNL     1       0.628  11.428  19.230  0.00  0.00    +0.000 NA
ATOM     24  N   UNL     1       1.652  10.677  18.855  0.00  0.00    +0.000 NA
BRANCH  22  25
ATOM     25  C   UNL     1      -1.806  11.340  19.084  0.00  0.00    +0.000 A 
ATOM     26  C   UNL     1      -1.943  12.170  20.206  0.00  0.00    +0.000 A 
ATOM     27  C   UNL     1      -3.176  12.750  20.501  0.00  0.00    +0.000 A 
ATOM     28  C   UNL     1      -4.264  12.540  19.659  0.00  0.00    +0.000 A 
ATOM     29  C   UNL     1      -4.140  11.692  18.557  0.00  0.00    +0.000 A 
ATOM     30  C   UNL     1      -2.925  11.043  18.277  0.00  0.00    +0.000 A 
ATOM     31  C   UNL     1      -2.913   9.993  17.204  0.00  0.00    +0.000 C 
ENDBRANCH  22  25
ENDBRANCH  19  20
ENDBRANCH  18  19
ENDBRANCH   2  18
TORSDOF 6
ENDMDL
