MODEL 1
REMARK VINA RESULT:      -7.6      0.000      0.000
REMARK  Name = 
REMARK  3 active torsions:
REMARK  status: ('A' for Active; 'I' for Inactive)
REMARK    1  A    between atoms: C_1  and  O_2
REMARK    2  A    between atoms: O_2  and  C_3
REMARK    3  A    between atoms: C_7  and  N_8
REMARK                            x       y       z     vdW  Elec       q    Type
REMARK                         _______ _______ _______ _____ _____    ______ ____
ROOT
ATOM      1  N   UNL     1       4.291   3.637  17.621  0.00  0.00    +0.000 N 
ATOM      2  S   UNL     1       2.677   3.424  17.020  0.00  0.00    +0.000 S 
ATOM      3  C   UNL     1       2.063   3.143  18.626  0.00  0.00    +0.000 A 
ATOM      4  C   UNL     1       0.723   3.034  18.960  0.00  0.00    +0.000 A 
ATOM      5  C   UNL     1       0.396   2.847  20.297  0.00  0.00    +0.000 A 
ATOM      6  C   UNL     1       1.415   2.765  21.254  0.00  0.00    +0.000 A 
ATOM      7  F   UNL     1       1.071   2.594  22.537  0.00  0.00    +0.000 F 
ATOM      8  C   UNL     1       2.768   2.877  20.913  0.00  0.00    +0.000 A 
ATOM      9  C   UNL     1       3.078   3.077  19.576  0.00  0.00    +0.000 A 
ATOM     10  C   UNL     1       4.428   3.319  18.982  0.00  0.00    +0.000 A 
ATOM     11  O   UNL     1       5.437   3.290  19.665  0.00  0.00    +0.000 OA
ENDROOT
BRANCH   1  16
ATOM     12  C   UNL     1       7.034   5.737  16.220  0.00  0.00    +0.000 A 
ATOM     13  C   UNL     1       7.176   5.206  14.945  0.00  0.00    +0.000 A 
ATOM     14  C   UNL     1       6.436   4.077  14.569  0.00  0.00    +0.000 A 
ATOM     15  C   UNL     1       5.509   3.496  15.452  0.00  0.00    +0.000 A 
ATOM     16  C   UNL     1       5.306   4.055  16.713  0.00  0.00    +0.000 A 
ATOM     17  C   UNL     1       6.130   5.137  17.088  0.00  0.00    +0.000 A 
BRANCH  12  19
ATOM     18  C   UNL     1       7.238   7.735  17.491  0.00  0.00    +0.000 C 
ATOM     19  O   UNL     1       7.789   6.837  16.526  0.00  0.00    +0.000 OA
ENDBRANCH  12  19
ENDBRANCH   1  16
TORSDOF 2
ENDMDL
MODEL 2
REMARK VINA RESULT:      -7.2      1.286      2.250
REMARK  Name = 
REMARK  3 active torsions:
REMARK  status: ('A' for Active; 'I' for Inactive)
REMARK    1  A    between atoms: C_1  and  O_2
REMARK    2  A    between atoms: O_2  and  C_3
REMARK    3  A    between atoms: C_7  and  N_8
REMARK                            x       y       z     vdW  Elec       q    Type
REMARK                         _______ _______ _______ _____ _____    ______ ____
ROOT
ATOM      1  N   UNL     1       4.295   3.863  17.522  0.00  0.00    +0.000 N 
ATOM      2  S   UNL     1       2.695   3.548  16.932  0.00  0.00    +0.000 S 
ATOM      3  C   UNL     1       2.121   3.186  18.537  0.00  0.00    +0.000 A 
ATOM      4  C   UNL     1       0.796   2.971  18.882  0.00  0.00    +0.000 A 
ATOM      5  C   UNL     1       0.499   2.730  20.216  0.00  0.00    +0.000 A 
ATOM      6  C   UNL     1       1.532   2.700  21.161  0.00  0.00    +0.000 A 
ATOM      7  F   UNL     1       1.217   2.474  22.443  0.00  0.00    +0.000 F 
ATOM      8  C   UNL     1       2.870   2.918  20.810  0.00  0.00    +0.000 A 
ATOM      9  C   UNL     1       3.149   3.170  19.475  0.00  0.00    +0.000 A 
ATOM     10  C   UNL     1       4.471   3.524  18.873  0.00  0.00    +0.000 A 
ATOM     11  O   UNL     1       5.487   3.552  19.546  0.00  0.00    +0.000 OA
ENDROOT
BRANCH   1  16
ATOM     12  C   UNL     1       6.306   4.143  14.396  0.00  0.00    +0.000 A 
ATOM     13  C   UNL     1       7.287   5.051  14.768  0.00  0.00    +0.000 A 
ATOM     14  C   UNL     1       7.235   5.662  16.028  0.00  0.00    +0.000 A 
ATOM     15  C   UNL     1       6.223   5.333  16.948  0.00  0.00    +0.000 A 
ATOM     16  C   UNL     1       5.267   4.375  16.614  0.00  0.00    +0.000 A 
ATOM     17  C   UNL     1       5.301   3.846  15.307  0.00  0.00    +0.000 A 
BRANCH  12  19
ATOM     18  C   UNL     1       5.193   3.432  12.418  0.00  0.00    +0.000 C 
ATOM     19  O   UNL     1       6.412   3.586  13.150  0.00  0.00    +0.000 OA
ENDBRANCH  12  19
ENDBRANCH   1  16
TORSDOF 2
ENDMDL
MODEL 3
REMARK VINA RESULT:      -7.0      5.383      6.301
REMARK  Name = 
REMARK  3 active torsions:
REMARK  status: ('A' for Active; 'I' for Inactive)
REMARK    1  A    between atoms: C_1  and  O_2
REMARK    2  A    between atoms: O_2  and  C_3
REMARK    3  A    between atoms: C_7  and  N_8
REMARK                            x       y       z     vdW  Elec       q    Type
REMARK                         _______ _______ _______ _____ _____    ______ ____
ROOT
ATOM      1  N   UNL     1       2.256   7.316  18.885  0.00  0.00    +0.000 N 
ATOM      2  S   UNL     1       1.918   7.051  20.565  0.00  0.00    +0.000 S 
ATOM      3  C   UNL     1       1.086   8.576  20.690  0.00  0.00    +0.000 A 
ATOM      4  C   UNL     1       0.367   9.007  21.794  0.00  0.00    +0.000 A 
ATOM      5  C   UNL     1      -0.271  10.237  21.719  0.00  0.00    +0.000 A 
ATOM      6  C   UNL     1      -0.164  11.003  20.552  0.00  0.00    +0.000 A 
ATOM      7  F   UNL     1      -0.797  12.183  20.503  0.00  0.00    +0.000 F 
ATOM      8  C   UNL     1       0.562  10.566  19.437  0.00  0.00    +0.000 A 
ATOM      9  C   UNL     1       1.183   9.329  19.522  0.00  0.00    +0.000 A 
ATOM     10  C   UNL     1       1.928   8.609  18.445  0.00  0.00    +0.000 A 
ATOM     11  O   UNL     1       2.118   9.120  17.355  0.00  0.00    +0.000 OA
ENDROOT
BRANCH   1  16
ATOM     12  C   UNL     1       2.718   3.895  17.479  0.00  0.00    +0.000 A 
ATOM     13  C   UNL     1       3.995   3.977  16.941  0.00  0.00    +0.000 A 
ATOM     14  C   UNL     1       4.680   5.200  16.947  0.00  0.00    +0.000 A 
ATOM     15  C   UNL     1       4.110   6.343  17.534  0.00  0.00    +0.000 A 
ATOM     16  C   UNL     1       2.855   6.263  18.136  0.00  0.00    +0.000 A 
ATOM     17  C   UNL     1       2.160   5.040  18.035  0.00  0.00    +0.000 A 
BRANCH  12  19
ATOM     18  C   UNL     1       1.345   2.306  18.594  0.00  0.00    +0.000 C 
ATOM     19  O   UNL     1       2.101   2.673  17.438  0.00  0.00    +0.000 OA
ENDBRANCH  12  19
ENDBRANCH   1  16
TORSDOF 2
ENDMDL
MODEL 4
REMARK VINA RESULT:      -7.0      4.740      5.047
REMARK  Name = 
REMARK  3 active torsions:
REMARK  status: ('A' for Active; 'I' for Inactive)
REMARK    1  A    between atoms: C_1  and  O_2
REMARK    2  A    between atoms: O_2  and  C_3
REMARK    3  A    between atoms: C_7  and  N_8
REMARK                            x       y       z     vdW  Elec       q    Type
REMARK                         _______ _______ _______ _____ _____    ______ ____
ROOT
ATOM      1  N   UNL     1       2.553   6.958  18.687  0.00  0.00    +0.000 N 
ATOM      2  S   UNL     1       2.144   8.433  17.870  0.00  0.00    +0.000 S 
ATOM      3  C   UNL     1       1.466   9.109  19.325  0.00  0.00    +0.000 A 
ATOM      4  C   UNL     1       1.042  10.419  19.475  0.00  0.00    +0.000 A 
ATOM      5  C   UNL     1       0.558  10.812  20.715  0.00  0.00    +0.000 A 
ATOM      6  C   UNL     1       0.503   9.885  21.763  0.00  0.00    +0.000 A 
ATOM      7  F   UNL     1       0.041  10.293  22.952  0.00  0.00    +0.000 F 
ATOM      8  C   UNL     1       0.934   8.561  21.609  0.00  0.00    +0.000 A 
ATOM      9  C   UNL     1       1.426   8.187  20.368  0.00  0.00    +0.000 A 
ATOM     10  C   UNL     1       2.028   6.873  19.987  0.00  0.00    +0.000 A 
ATOM     11  O   UNL     1       2.071   5.943  20.773  0.00  0.00    +0.000 OA
ENDROOT
BRANCH   1  16
ATOM     12  C   UNL     1       5.198   5.576  16.453  0.00  0.00    +0.000 A 
ATOM     13  C   UNL     1       4.794   4.255  16.316  0.00  0.00    +0.000 A 
ATOM     14  C   UNL     1       3.697   3.778  17.046  0.00  0.00    +0.000 A 
ATOM     15  C   UNL     1       2.963   4.634  17.887  0.00  0.00    +0.000 A 
ATOM     16  C   UNL     1       3.315   5.979  17.986  0.00  0.00    +0.000 A 
ATOM     17  C   UNL     1       4.476   6.403  17.305  0.00  0.00    +0.000 A 
BRANCH  12  19
ATOM     18  C   UNL     1       6.970   4.954  14.995  0.00  0.00    +0.000 C 
ATOM     19  O   UNL     1       6.280   5.977  15.716  0.00  0.00    +0.000 OA
ENDBRANCH  12  19
ENDBRANCH   1  16
TORSDOF 2
ENDMDL
MODEL 5
REMARK VINA RESULT:      -6.9      2.027      2.757
REMARK  Name = 
REMARK  3 active torsions:
REMARK  status: ('A' for Active; 'I' for Inactive)
REMARK    1  A    between atoms: C_1  and  O_2
REMARK    2  A    between atoms: O_2  and  C_3
REMARK    3  A    between atoms: C_7  and  N_8
REMARK                            x       y       z     vdW  Elec       q    Type
REMARK                         _______ _______ _______ _____ _____    ______ ____
ROOT
ATOM      1  N   UNL     1       4.291   4.512  17.322  0.00  0.00    +0.000 N 
ATOM      2  S   UNL     1       3.575   5.956  17.965  0.00  0.00    +0.000 S 
ATOM      3  C   UNL     1       2.702   5.047  19.168  0.00  0.00    +0.000 A 
ATOM      4  C   UNL     1       1.974   5.596  20.211  0.00  0.00    +0.000 A 
ATOM      5  C   UNL     1       1.365   4.731  21.109  0.00  0.00    +0.000 A 
ATOM      6  C   UNL     1       1.492   3.348  20.934  0.00  0.00    +0.000 A 
ATOM      7  F   UNL     1       0.901   2.536  21.820  0.00  0.00    +0.000 F 
ATOM      8  C   UNL     1       2.229   2.796  19.879  0.00  0.00    +0.000 A 
ATOM      9  C   UNL     1       2.842   3.673  18.997  0.00  0.00    +0.000 A 
ATOM     10  C   UNL     1       3.751   3.332  17.860  0.00  0.00    +0.000 A 
ATOM     11  O   UNL     1       3.984   2.175  17.559  0.00  0.00    +0.000 OA
ENDROOT
BRANCH   1  16
ATOM     12  C   UNL     1       5.934   4.084  14.004  0.00  0.00    +0.000 A 
ATOM     13  C   UNL     1       7.220   4.539  14.261  0.00  0.00    +0.000 A 
ATOM     14  C   UNL     1       7.531   5.091  15.512  0.00  0.00    +0.000 A 
ATOM     15  C   UNL     1       6.566   5.150  16.534  0.00  0.00    +0.000 A 
ATOM     16  C   UNL     1       5.289   4.637  16.313  0.00  0.00    +0.000 A 
ATOM     17  C   UNL     1       4.988   4.169  15.017  0.00  0.00    +0.000 A 
BRANCH  12  19
ATOM     18  C   UNL     1       6.799   3.553  11.854  0.00  0.00    +0.000 C 
ATOM     19  O   UNL     1       5.695   3.560  12.762  0.00  0.00    +0.000 OA
ENDBRANCH  12  19
ENDBRANCH   1  16
TORSDOF 2
ENDMDL
MODEL 6
REMARK VINA RESULT:      -6.8      5.478      6.091
REMARK  Name = 
REMARK  3 active torsions:
REMARK  status: ('A' for Active; 'I' for Inactive)
REMARK    1  A    between atoms: C_1  and  O_2
REMARK    2  A    between atoms: O_2  and  C_3
REMARK    3  A    between atoms: C_7  and  N_8
REMARK                            x       y       z     vdW  Elec       q    Type
REMARK                         _______ _______ _______ _____ _____    ______ ____
ROOT
ATOM      1  N   UNL     1       2.229   7.260  19.128  0.00  0.00    +0.000 N 
ATOM      2  S   UNL     1       1.607   7.444  20.737  0.00  0.00    +0.000 S 
ATOM      3  C   UNL     1       0.913   8.993  20.345  0.00  0.00    +0.000 A 
ATOM      4  C   UNL     1       0.074   9.724  21.170  0.00  0.00    +0.000 A 
ATOM      5  C   UNL     1      -0.427  10.928  20.692  0.00  0.00    +0.000 A 
ATOM      6  C   UNL     1      -0.067  11.369  19.413  0.00  0.00    +0.000 A 
ATOM      7  F   UNL     1      -0.571  12.529  18.973  0.00  0.00    +0.000 F 
ATOM      8  C   UNL     1       0.781  10.627  18.581  0.00  0.00    +0.000 A 
ATOM      9  C   UNL     1       1.262   9.421  19.067  0.00  0.00    +0.000 A 
ATOM     10  C   UNL     1       2.096   8.416  18.340  0.00  0.00    +0.000 A 
ATOM     11  O   UNL     1       2.501   8.625  17.210  0.00  0.00    +0.000 OA
ENDROOT
BRANCH   1  16
ATOM     12  C   UNL     1       4.895   4.674  18.812  0.00  0.00    +0.000 A 
ATOM     13  C   UNL     1       4.309   3.766  17.941  0.00  0.00    +0.000 A 
ATOM     14  C   UNL     1       2.982   3.946  17.528  0.00  0.00    +0.000 A 
ATOM     15  C   UNL     1       2.242   5.066  17.948  0.00  0.00    +0.000 A 
ATOM     16  C   UNL     1       2.836   6.022  18.770  0.00  0.00    +0.000 A 
ATOM     17  C   UNL     1       4.143   5.763  19.234  0.00  0.00    +0.000 A 
BRANCH  12  19
ATOM     18  C   UNL     1       7.091   5.545  19.078  0.00  0.00    +0.000 C 
ATOM     19  O   UNL     1       6.192   4.438  19.180  0.00  0.00    +0.000 OA
ENDBRANCH  12  19
ENDBRANCH   1  16
TORSDOF 2
ENDMDL
MODEL 7
REMARK VINA RESULT:      -6.8      3.114      4.459
REMARK  Name = 
REMARK  3 active torsions:
REMARK  status: ('A' for Active; 'I' for Inactive)
REMARK    1  A    between atoms: C_1  and  O_2
REMARK    2  A    between atoms: O_2  and  C_3
REMARK    3  A    between atoms: C_7  and  N_8
REMARK                            x       y       z     vdW  Elec       q    Type
REMARK                         _______ _______ _______ _____ _____    ______ ____
ROOT
ATOM      1  N   UNL     1       5.302   4.924  15.634  0.00  0.00    +0.000 N 
ATOM      2  S   UNL     1       5.003   3.599  16.713  0.00  0.00    +0.000 S 
ATOM      3  C   UNL     1       4.118   4.626  17.807  0.00  0.00    +0.000 A 
ATOM      4  C   UNL     1       3.404   4.188  18.911  0.00  0.00    +0.000 A 
ATOM      5  C   UNL     1       2.719   5.133  19.663  0.00  0.00    +0.000 A 
ATOM      6  C   UNL     1       2.777   6.484  19.298  0.00  0.00    +0.000 A 
ATOM      7  F   UNL     1       2.100   7.373  20.035  0.00  0.00    +0.000 F 
ATOM      8  C   UNL     1       3.499   6.923  18.181  0.00  0.00    +0.000 A 
ATOM      9  C   UNL     1       4.167   5.965  17.432  0.00  0.00    +0.000 A 
ATOM     10  C   UNL     1       4.919   6.170  16.157  0.00  0.00    +0.000 A 
ATOM     11  O   UNL     1       5.070   7.282  15.681  0.00  0.00    +0.000 OA
ENDROOT
BRANCH   1  16
ATOM     12  C   UNL     1       5.896   3.277  12.343  0.00  0.00    +0.000 A 
ATOM     13  C   UNL     1       7.141   3.782  11.992  0.00  0.00    +0.000 A 
ATOM     14  C   UNL     1       7.754   4.755  12.793  0.00  0.00    +0.000 A 
ATOM     15  C   UNL     1       7.146   5.199  13.981  0.00  0.00    +0.000 A 
ATOM     16  C   UNL     1       5.926   4.656  14.382  0.00  0.00    +0.000 A 
ATOM     17  C   UNL     1       5.299   3.743  13.508  0.00  0.00    +0.000 A 
BRANCH  12  19
ATOM     18  C   UNL     1       6.185   1.221  11.184  0.00  0.00    +0.000 C 
ATOM     19  O   UNL     1       5.350   2.333  11.516  0.00  0.00    +0.000 OA
ENDBRANCH  12  19
ENDBRANCH   1  16
TORSDOF 2
ENDMDL
MODEL 8
REMARK VINA RESULT:      -6.8      5.021      5.675
REMARK  Name = 
REMARK  3 active torsions:
REMARK  status: ('A' for Active; 'I' for Inactive)
REMARK    1  A    between atoms: C_1  and  O_2
REMARK    2  A    between atoms: O_2  and  C_3
REMARK    3  A    between atoms: C_7  and  N_8
REMARK                            x       y       z     vdW  Elec       q    Type
REMARK                         _______ _______ _______ _____ _____    ______ ____
ROOT
ATOM      1  N   UNL     1       2.398   7.425  18.725  0.00  0.00    +0.000 N 
ATOM      2  S   UNL     1       1.854   8.909  18.009  0.00  0.00    +0.000 S 
ATOM      3  C   UNL     1       1.163   9.441  19.517  0.00  0.00    +0.000 A 
ATOM      4  C   UNL     1       0.642  10.702  19.756  0.00  0.00    +0.000 A 
ATOM      5  C   UNL     1       0.162  10.981  21.028  0.00  0.00    +0.000 A 
ATOM      6  C   UNL     1       0.207   9.991  22.018  0.00  0.00    +0.000 A 
ATOM      7  F   UNL     1      -0.255  10.289  23.239  0.00  0.00    +0.000 F 
ATOM      8  C   UNL     1       0.735   8.717  21.774  0.00  0.00    +0.000 A 
ATOM      9  C   UNL     1       1.223   8.459  20.502  0.00  0.00    +0.000 A 
ATOM     10  C   UNL     1       1.915   7.222  20.027  0.00  0.00    +0.000 A 
ATOM     11  O   UNL     1       2.052   6.253  20.754  0.00  0.00    +0.000 OA
ENDROOT
BRANCH   1  16
ATOM     12  C   UNL     1       3.697   4.222  17.329  0.00  0.00    +0.000 A 
ATOM     13  C   UNL     1       4.865   4.636  16.705  0.00  0.00    +0.000 A 
ATOM     14  C   UNL     1       5.186   5.999  16.649  0.00  0.00    +0.000 A 
ATOM     15  C   UNL     1       4.360   6.959  17.261  0.00  0.00    +0.000 A 
ATOM     16  C   UNL     1       3.216   6.555  17.948  0.00  0.00    +0.000 A 
ATOM     17  C   UNL     1       2.881   5.185  17.909  0.00  0.00    +0.000 A 
BRANCH  12  19
ATOM     18  C   UNL     1       2.197   2.476  17.927  0.00  0.00    +0.000 C 
ATOM     19  O   UNL     1       3.440   2.877  17.344  0.00  0.00    +0.000 OA
ENDBRANCH  12  19
ENDBRANCH   1  16
TORSDOF 2
ENDMDL
MODEL 9
REMARK VINA RESULT:      -6.7      4.874      5.317
REMARK  Name = 
REMARK  3 active torsions:
REMARK  status: ('A' for Active; 'I' for Inactive)
REMARK    1  A    between atoms: C_1  and  O_2
REMARK    2  A    between atoms: O_2  and  C_3
REMARK    3  A    between atoms: C_7  and  N_8
REMARK                            x       y       z     vdW  Elec       q    Type
REMARK                         _______ _______ _______ _____ _____    ______ ____
ROOT
ATOM      1  N   UNL     1       2.406   6.785  19.058  0.00  0.00    +0.000 N 
ATOM      2  S   UNL     1       2.223   8.169  18.028  0.00  0.00    +0.000 S 
ATOM      3  C   UNL     1       1.496   9.092  19.314  0.00  0.00    +0.000 A 
ATOM      4  C   UNL     1       1.198  10.444  19.257  0.00  0.00    +0.000 A 
ATOM      5  C   UNL     1       0.652  11.041  20.385  0.00  0.00    +0.000 A 
ATOM      6  C   UNL     1       0.412  10.270  21.529  0.00  0.00    +0.000 A 
ATOM      7  F   UNL     1      -0.107  10.873  22.606  0.00  0.00    +0.000 F 
ATOM      8  C   UNL     1       0.715   8.904  21.584  0.00  0.00    +0.000 A 
ATOM      9  C   UNL     1       1.271   8.325  20.454  0.00  0.00    +0.000 A 
ATOM     10  C   UNL     1       1.764   6.922  20.299  0.00  0.00    +0.000 A 
ATOM     11  O   UNL     1       1.644   6.105  21.196  0.00  0.00    +0.000 OA
ENDROOT
BRANCH   1  16
ATOM     12  C   UNL     1       5.305   4.532  18.411  0.00  0.00    +0.000 A 
ATOM     13  C   UNL     1       4.780   3.654  17.472  0.00  0.00    +0.000 A 
ATOM     14  C   UNL     1       3.426   3.734  17.118  0.00  0.00    +0.000 A 
ATOM     15  C   UNL     1       2.594   4.726  17.667  0.00  0.00    +0.000 A 
ATOM     16  C   UNL     1       3.121   5.656  18.562  0.00  0.00    +0.000 A 
ATOM     17  C   UNL     1       4.463   5.492  18.961  0.00  0.00    +0.000 A 
BRANCH  12  19
ATOM     18  C   UNL     1       7.557   4.700  17.669  0.00  0.00    +0.000 C 
ATOM     19  O   UNL     1       6.632   4.398  18.717  0.00  0.00    +0.000 OA
ENDBRANCH  12  19
ENDBRANCH   1  16
TORSDOF 2
ENDMDL
