MODEL 1
REMARK VINA RESULT:      -8.2      0.000      0.000
REMARK  Name = 
REMARK  5 active torsions:
REMARK  status: ('A' for Active; 'I' for Inactive)
REMARK    1  A    between atoms: C_2  and  C_11
REMARK    2  A    between atoms: N_3  and  C_4
REMARK    3  A    between atoms: C_16  and  O_17
REMARK    4  A    between atoms: O_17  and  C_18
REMARK    5  A    between atoms: C_18  and  C_19
REMARK                            x       y       z     vdW  Elec       q    Type
REMARK                         _______ _______ _______ _____ _____    ______ ____
ROOT
ATOM      1  C   UNL     1       4.997   4.317  16.283  0.00  0.00    +0.000 A 
ATOM      2  C   UNL     1       5.497   3.599  15.176  0.00  0.00    +0.000 A 
ATOM      3  C   UNL     1       6.543   4.097  14.405  0.00  0.00    +0.000 A 
ATOM      4  C   UNL     1       7.075   5.318  14.747  0.00  0.00    +0.000 A 
ATOM      5  N   UNL     1       6.610   6.060  15.766  0.00  0.00    +0.000 NA
ATOM      6  C   UNL     1       5.559   5.579  16.497  0.00  0.00    +0.000 A 
ENDROOT
BRANCH   1   8
ATOM      7  O   UNL     1       2.753   4.199  17.132  0.00  0.00    +0.000 OA
ATOM      8  C   UNL     1       3.889   3.744  17.133  0.00  0.00    +0.000 C 
ATOM      9  N   UNL     1       4.246   2.671  17.941  0.00  0.00    +0.000 N 
ATOM     10  H   UNL     1       5.222   2.484  18.088  0.00  0.00    +0.000 HD
BRANCH   9  11
ATOM     11  C   UNL     1       3.350   1.937  18.842  0.00  0.00    +0.000 C 
ATOM     12  C   UNL     1       3.660   2.358  20.289  0.00  0.00    +0.000 C 
ATOM     13  C   UNL     1       3.249   3.787  20.657  0.00  0.00    +0.000 C 
ATOM     14  C   UNL     1       1.816   3.905  21.161  0.00  0.00    +0.000 C 
ATOM     15  C   UNL     1       0.735   3.578  20.138  0.00  0.00    +0.000 C 
ATOM     16  C   UNL     1       0.837   2.189  19.507  0.00  0.00    +0.000 C 
ATOM     17  C   UNL     1       1.888   2.108  18.397  0.00  0.00    +0.000 C 
ENDBRANCH   9  11
ENDBRANCH   1   8
BRANCH   6  18
ATOM     18  O   UNL     1       5.045   6.433  17.451  0.00  0.00    +0.000 OA
BRANCH  18  19
ATOM     19  C   UNL     1       4.063   7.331  16.910  0.00  0.00    +0.000 C 
BRANCH  19  20
ATOM     20  C   UNL     1       3.042   7.784  17.936  0.00  0.00    +0.000 A 
ATOM     21  C   UNL     1       2.253   8.928  17.757  0.00  0.00    +0.000 A 
ATOM     22  C   UNL     1       1.360   9.327  18.755  0.00  0.00    +0.000 A 
ATOM     23  C   UNL     1       1.249   8.584  19.926  0.00  0.00    +0.000 A 
ATOM     24  F   UNL     1       0.412   8.987  20.889  0.00  0.00    +0.000 F 
ATOM     25  C   UNL     1       2.002   7.432  20.114  0.00  0.00    +0.000 A 
ATOM     26  C   UNL     1       2.889   7.027  19.115  0.00  0.00    +0.000 A 
ENDBRANCH  19  20
ENDBRANCH  18  19
ENDBRANCH   6  18
TORSDOF 5
ENDMDL
MODEL 2
REMARK VINA RESULT:      -8.1      2.631      6.126
REMARK  Name = 
REMARK  5 active torsions:
REMARK  status: ('A' for Active; 'I' for Inactive)
REMARK    1  A    between atoms: C_2  and  C_11
REMARK    2  A    between atoms: N_3  and  C_4
REMARK    3  A    between atoms: C_16  and  O_17
REMARK    4  A    between atoms: O_17  and  C_18
REMARK    5  A    between atoms: C_18  and  C_19
REMARK                            x       y       z     vdW  Elec       q    Type
REMARK                         _______ _______ _______ _____ _____    ______ ____
ROOT
ATOM      1  C   UNL     1       2.165   4.659  19.085  0.00  0.00    +0.000 A 
ATOM      2  C   UNL     1       1.231   3.975  19.890  0.00  0.00    +0.000 A 
ATOM      3  C   UNL     1       0.820   2.681  19.579  0.00  0.00    +0.000 A 
ATOM      4  C   UNL     1       1.346   2.088  18.457  0.00  0.00    +0.000 A 
ATOM      5  N   UNL     1       2.208   2.709  17.634  0.00  0.00    +0.000 NA
ATOM      6  C   UNL     1       2.579   3.992  17.928  0.00  0.00    +0.000 A 
ENDROOT
BRANCH   1   8
ATOM      7  O   UNL     1       3.814   6.327  19.604  0.00  0.00    +0.000 OA
ATOM      8  C   UNL     1       2.632   6.045  19.458  0.00  0.00    +0.000 C 
ATOM      9  N   UNL     1       1.627   6.986  19.649  0.00  0.00    +0.000 N 
ATOM     10  H   UNL     1       0.681   6.664  19.752  0.00  0.00    +0.000 HD
BRANCH   9  11
ATOM     11  C   UNL     1       1.825   8.397  20.000  0.00  0.00    +0.000 C 
ATOM     12  C   UNL     1       1.915   9.216  18.701  0.00  0.00    +0.000 C 
ATOM     13  C   UNL     1       0.605   9.347  17.918  0.00  0.00    +0.000 C 
ATOM     14  C   UNL     1      -0.252  10.532  18.347  0.00  0.00    +0.000 C 
ATOM     15  C   UNL     1      -0.802  10.460  19.767  0.00  0.00    +0.000 C 
ATOM     16  C   UNL     1       0.250  10.294  20.863  0.00  0.00    +0.000 C 
ATOM     17  C   UNL     1       0.752   8.854  21.003  0.00  0.00    +0.000 C 
ENDBRANCH   9  11
ENDBRANCH   1   8
BRANCH   6  18
ATOM     18  O   UNL     1       3.368   4.623  16.988  0.00  0.00    +0.000 OA
BRANCH  18  19
ATOM     19  C   UNL     1       4.683   4.054  16.905  0.00  0.00    +0.000 C 
BRANCH  19  20
ATOM     20  C   UNL     1       5.773   5.004  17.363  0.00  0.00    +0.000 A 
ATOM     21  C   UNL     1       6.708   4.658  18.348  0.00  0.00    +0.000 A 
ATOM     22  C   UNL     1       7.663   5.588  18.766  0.00  0.00    +0.000 A 
ATOM     23  C   UNL     1       7.691   6.859  18.200  0.00  0.00    +0.000 A 
ATOM     24  F   UNL     1       8.590   7.753  18.625  0.00  0.00    +0.000 F 
ATOM     25  C   UNL     1       6.790   7.215  17.204  0.00  0.00    +0.000 A 
ATOM     26  C   UNL     1       5.840   6.285  16.779  0.00  0.00    +0.000 A 
ENDBRANCH  19  20
ENDBRANCH  18  19
ENDBRANCH   6  18
TORSDOF 5
ENDMDL
MODEL 3
REMARK VINA RESULT:      -7.9      2.919      5.551
REMARK  Name = 
REMARK  5 active torsions:
REMARK  status: ('A' for Active; 'I' for Inactive)
REMARK    1  A    between atoms: C_2  and  C_11
REMARK    2  A    between atoms: N_3  and  C_4
REMARK    3  A    between atoms: C_16  and  O_17
REMARK    4  A    between atoms: O_17  and  C_18
REMARK    5  A    between atoms: C_18  and  C_19
REMARK                            x       y       z     vdW  Elec       q    Type
REMARK                         _______ _______ _______ _____ _____    ______ ____
ROOT
ATOM      1  C   UNL     1       1.654   8.213  19.575  0.00  0.00    +0.000 A 
ATOM      2  C   UNL     1       1.142   9.393  20.152  0.00  0.00    +0.000 A 
ATOM      3  C   UNL     1       1.071  10.580  19.428  0.00  0.00    +0.000 A 
ATOM      4  C   UNL     1       1.522  10.573  18.130  0.00  0.00    +0.000 A 
ATOM      5  N   UNL     1       2.055   9.487  17.545  0.00  0.00    +0.000 NA
ATOM      6  C   UNL     1       2.153   8.336  18.275  0.00  0.00    +0.000 A 
ENDROOT
BRANCH   1   8
ATOM      7  O   UNL     1       1.111   6.790  21.433  0.00  0.00    +0.000 OA
ATOM      8  C   UNL     1       1.686   6.924  20.361  0.00  0.00    +0.000 C 
ATOM      9  N   UNL     1       2.431   5.896  19.797  0.00  0.00    +0.000 N 
ATOM     10  H   UNL     1       3.068   6.116  19.053  0.00  0.00    +0.000 HD
BRANCH   9  11
ATOM     11  C   UNL     1       2.602   4.551  20.359  0.00  0.00    +0.000 C 
ATOM     12  C   UNL     1       1.382   3.699  19.967  0.00  0.00    +0.000 C 
ATOM     13  C   UNL     1       1.292   3.328  18.484  0.00  0.00    +0.000 C 
ATOM     14  C   UNL     1       2.028   2.043  18.124  0.00  0.00    +0.000 C 
ATOM     15  C   UNL     1       3.542   2.091  18.289  0.00  0.00    +0.000 C 
ATOM     16  C   UNL     1       4.031   2.470  19.688  0.00  0.00    +0.000 C 
ATOM     17  C   UNL     1       3.972   3.975  19.959  0.00  0.00    +0.000 C 
ENDBRANCH   9  11
ENDBRANCH   1   8
BRANCH   6  18
ATOM     18  O   UNL     1       2.817   7.289  17.667  0.00  0.00    +0.000 OA
BRANCH  18  19
ATOM     19  C   UNL     1       4.005   7.717  16.983  0.00  0.00    +0.000 C 
BRANCH  19  20
ATOM     20  C   UNL     1       5.139   6.714  17.076  0.00  0.00    +0.000 A 
ATOM     21  C   UNL     1       4.974   5.361  16.748  0.00  0.00    +0.000 A 
ATOM     22  C   UNL     1       6.040   4.470  16.895  0.00  0.00    +0.000 A 
ATOM     23  C   UNL     1       7.269   4.926  17.362  0.00  0.00    +0.000 A 
ATOM     24  F   UNL     1       8.277   4.062  17.527  0.00  0.00    +0.000 F 
ATOM     25  C   UNL     1       7.462   6.268  17.669  0.00  0.00    +0.000 A 
ATOM     26  C   UNL     1       6.400   7.161  17.515  0.00  0.00    +0.000 A 
ENDBRANCH  19  20
ENDBRANCH  18  19
ENDBRANCH   6  18
TORSDOF 5
ENDMDL
MODEL 4
REMARK VINA RESULT:      -7.9      2.960      6.429
REMARK  Name = 
REMARK  5 active torsions:
REMARK  status: ('A' for Active; 'I' for Inactive)
REMARK    1  A    between atoms: C_2  and  C_11
REMARK    2  A    between atoms: N_3  and  C_4
REMARK    3  A    between atoms: C_16  and  O_17
REMARK    4  A    between atoms: O_17  and  C_18
REMARK    5  A    between atoms: C_18  and  C_19
REMARK                            x       y       z     vdW  Elec       q    Type
REMARK                         _______ _______ _______ _____ _____    ______ ____
ROOT
ATOM      1  C   UNL     1       1.854   8.443  19.211  0.00  0.00    +0.000 A 
ATOM      2  C   UNL     1       1.010   9.569  19.303  0.00  0.00    +0.000 A 
ATOM      3  C   UNL     1       0.319   9.861  20.476  0.00  0.00    +0.000 A 
ATOM      4  C   UNL     1       0.477   9.014  21.547  0.00  0.00    +0.000 A 
ATOM      5  N   UNL     1       1.237   7.907  21.500  0.00  0.00    +0.000 NA
ATOM      6  C   UNL     1       1.884   7.609  20.333  0.00  0.00    +0.000 A 
ENDROOT
BRANCH   1   8
ATOM      7  O   UNL     1       2.476   8.816  16.921  0.00  0.00    +0.000 OA
ATOM      8  C   UNL     1       2.628   8.164  17.945  0.00  0.00    +0.000 C 
ATOM      9  N   UNL     1       3.516   7.098  18.008  0.00  0.00    +0.000 N 
ATOM     10  H   UNL     1       3.440   6.452  18.773  0.00  0.00    +0.000 HD
BRANCH   9  11
ATOM     11  C   UNL     1       4.388   6.640  16.920  0.00  0.00    +0.000 C 
ATOM     12  C   UNL     1       5.792   7.232  17.136  0.00  0.00    +0.000 C 
ATOM     13  C   UNL     1       6.569   6.655  18.323  0.00  0.00    +0.000 C 
ATOM     14  C   UNL     1       7.385   5.415  17.980  0.00  0.00    +0.000 C 
ATOM     15  C   UNL     1       6.572   4.189  17.580  0.00  0.00    +0.000 C 
ATOM     16  C   UNL     1       5.623   4.397  16.400  0.00  0.00    +0.000 C 
ATOM     17  C   UNL     1       4.324   5.109  16.791  0.00  0.00    +0.000 C 
ENDBRANCH   9  11
ENDBRANCH   1   8
BRANCH   6  18
ATOM     18  O   UNL     1       2.551   6.401  20.302  0.00  0.00    +0.000 OA
BRANCH  18  19
ATOM     19  C   UNL     1       1.653   5.281  20.265  0.00  0.00    +0.000 C 
BRANCH  19  20
ATOM     20  C   UNL     1       2.255   4.057  19.601  0.00  0.00    +0.000 A 
ATOM     21  C   UNL     1       1.624   3.387  18.545  0.00  0.00    +0.000 A 
ATOM     22  C   UNL     1       2.200   2.237  18.000  0.00  0.00    +0.000 A 
ATOM     23  C   UNL     1       3.407   1.759  18.502  0.00  0.00    +0.000 A 
ATOM     24  F   UNL     1       3.940   0.642  17.994  0.00  0.00    +0.000 F 
ATOM     25  C   UNL     1       4.064   2.423  19.531  0.00  0.00    +0.000 A 
ATOM     26  C   UNL     1       3.493   3.576  20.072  0.00  0.00    +0.000 A 
ENDBRANCH  19  20
ENDBRANCH  18  19
ENDBRANCH   6  18
TORSDOF 5
ENDMDL
MODEL 5
REMARK VINA RESULT:      -7.9      3.788      5.644
REMARK  Name = 
REMARK  5 active torsions:
REMARK  status: ('A' for Active; 'I' for Inactive)
REMARK    1  A    between atoms: C_2  and  C_11
REMARK    2  A    between atoms: N_3  and  C_4
REMARK    3  A    between atoms: C_16  and  O_17
REMARK    4  A    between atoms: O_17  and  C_18
REMARK    5  A    between atoms: C_18  and  C_19
REMARK                            x       y       z     vdW  Elec       q    Type
REMARK                         _______ _______ _______ _____ _____    ______ ____
ROOT
ATOM      1  C   UNL     1       6.305   5.195  17.535  0.00  0.00    +0.000 A 
ATOM      2  C   UNL     1       6.965   5.373  18.768  0.00  0.00    +0.000 A 
ATOM      3  C   UNL     1       7.812   6.457  18.985  0.00  0.00    +0.000 A 
ATOM      4  C   UNL     1       7.995   7.350  17.957  0.00  0.00    +0.000 A 
ATOM      5  N   UNL     1       7.422   7.206  16.750  0.00  0.00    +0.000 NA
ATOM      6  C   UNL     1       6.620   6.120  16.535  0.00  0.00    +0.000 A 
ENDROOT
BRANCH   1   8
ATOM      7  O   UNL     1       5.563   3.155  16.506  0.00  0.00    +0.000 OA
ATOM      8  C   UNL     1       5.358   4.037  17.330  0.00  0.00    +0.000 C 
ATOM      9  N   UNL     1       4.220   4.045  18.126  0.00  0.00    +0.000 N 
ATOM     10  H   UNL     1       3.976   4.891  18.608  0.00  0.00    +0.000 HD
BRANCH   9  11
ATOM     11  C   UNL     1       3.162   3.027  18.123  0.00  0.00    +0.000 C 
ATOM     12  C   UNL     1       3.386   2.087  19.321  0.00  0.00    +0.000 C 
ATOM     13  C   UNL     1       3.119   2.705  20.697  0.00  0.00    +0.000 C 
ATOM     14  C   UNL     1       1.670   2.585  21.154  0.00  0.00    +0.000 C 
ATOM     15  C   UNL     1       0.656   3.358  20.319  0.00  0.00    +0.000 C 
ATOM     16  C   UNL     1       0.647   3.017  18.829  0.00  0.00    +0.000 C 
ATOM     17  C   UNL     1       1.779   3.694  18.050  0.00  0.00    +0.000 C 
ENDBRANCH   9  11
ENDBRANCH   1   8
BRANCH   6  18
ATOM     18  O   UNL     1       6.157   5.956  15.245  0.00  0.00    +0.000 OA
BRANCH  18  19
ATOM     19  C   UNL     1       7.150   5.394  14.374  0.00  0.00    +0.000 C 
BRANCH  19  20
ATOM     20  C   UNL     1       6.580   4.383  13.397  0.00  0.00    +0.000 A 
ATOM     21  C   UNL     1       7.379   3.702  12.468  0.00  0.00    +0.000 A 
ATOM     22  C   UNL     1       6.796   2.815  11.559  0.00  0.00    +0.000 A 
ATOM     23  C   UNL     1       5.421   2.602  11.580  0.00  0.00    +0.000 A 
ATOM     24  F   UNL     1       4.866   1.773  10.689  0.00  0.00    +0.000 F 
ATOM     25  C   UNL     1       4.614   3.247  12.508  0.00  0.00    +0.000 A 
ATOM     26  C   UNL     1       5.195   4.127  13.422  0.00  0.00    +0.000 A 
ENDBRANCH  19  20
ENDBRANCH  18  19
ENDBRANCH   6  18
TORSDOF 5
ENDMDL
MODEL 6
REMARK VINA RESULT:      -7.9      1.395      1.976
REMARK  Name = 
REMARK  5 active torsions:
REMARK  status: ('A' for Active; 'I' for Inactive)
REMARK    1  A    between atoms: C_2  and  C_11
REMARK    2  A    between atoms: N_3  and  C_4
REMARK    3  A    between atoms: C_16  and  O_17
REMARK    4  A    between atoms: O_17  and  C_18
REMARK    5  A    between atoms: C_18  and  C_19
REMARK                            x       y       z     vdW  Elec       q    Type
REMARK                         _______ _______ _______ _____ _____    ______ ____
ROOT
ATOM      1  C   UNL     1       5.211   3.975  16.294  0.00  0.00    +0.000 A 
ATOM      2  C   UNL     1       5.285   4.242  14.911  0.00  0.00    +0.000 A 
ATOM      3  C   UNL     1       6.465   4.692  14.323  0.00  0.00    +0.000 A 
ATOM      4  C   UNL     1       7.560   4.877  15.133  0.00  0.00    +0.000 A 
ATOM      5  N   UNL     1       7.532   4.676  16.461  0.00  0.00    +0.000 NA
ATOM      6  C   UNL     1       6.360   4.268  17.035  0.00  0.00    +0.000 A 
ENDROOT
BRANCH   1   8
ATOM      7  O   UNL     1       2.837   3.926  16.657  0.00  0.00    +0.000 OA
ATOM      8  C   UNL     1       3.936   3.449  16.908  0.00  0.00    +0.000 C 
ATOM      9  N   UNL     1       4.090   2.394  17.798  0.00  0.00    +0.000 N 
ATOM     10  H   UNL     1       5.009   2.192  18.151  0.00  0.00    +0.000 HD
BRANCH   9  11
ATOM     11  C   UNL     1       3.007   1.704  18.509  0.00  0.00    +0.000 C 
ATOM     12  C   UNL     1       3.439   1.494  19.971  0.00  0.00    +0.000 C 
ATOM     13  C   UNL     1       3.509   2.766  20.821  0.00  0.00    +0.000 C 
ATOM     14  C   UNL     1       2.191   3.132  21.492  0.00  0.00    +0.000 C 
ATOM     15  C   UNL     1       1.060   3.514  20.545  0.00  0.00    +0.000 C 
ATOM     16  C   UNL     1       0.709   2.460  19.494  0.00  0.00    +0.000 C 
ATOM     17  C   UNL     1       1.677   2.448  18.307  0.00  0.00    +0.000 C 
ENDBRANCH   9  11
ENDBRANCH   1   8
BRANCH   6  18
ATOM     18  O   UNL     1       6.354   4.195  18.413  0.00  0.00    +0.000 OA
BRANCH  18  19
ATOM     19  C   UNL     1       6.241   5.486  19.029  0.00  0.00    +0.000 C 
BRANCH  19  20
ATOM     20  C   UNL     1       4.923   6.175  18.728  0.00  0.00    +0.000 A 
ATOM     21  C   UNL     1       3.761   5.936  19.475  0.00  0.00    +0.000 A 
ATOM     22  C   UNL     1       2.563   6.562  19.126  0.00  0.00    +0.000 A 
ATOM     23  C   UNL     1       2.523   7.432  18.040  0.00  0.00    +0.000 A 
ATOM     24  F   UNL     1       1.365   8.007  17.694  0.00  0.00    +0.000 F 
ATOM     25  C   UNL     1       3.668   7.704  17.302  0.00  0.00    +0.000 A 
ATOM     26  C   UNL     1       4.868   7.085  17.653  0.00  0.00    +0.000 A 
ENDBRANCH  19  20
ENDBRANCH  18  19
ENDBRANCH   6  18
TORSDOF 5
ENDMDL
MODEL 7
REMARK VINA RESULT:      -7.8      1.723      2.287
REMARK  Name = 
REMARK  5 active torsions:
REMARK  status: ('A' for Active; 'I' for Inactive)
REMARK    1  A    between atoms: C_2  and  C_11
REMARK    2  A    between atoms: N_3  and  C_4
REMARK    3  A    between atoms: C_16  and  O_17
REMARK    4  A    between atoms: O_17  and  C_18
REMARK    5  A    between atoms: C_18  and  C_19
REMARK                            x       y       z     vdW  Elec       q    Type
REMARK                         _______ _______ _______ _____ _____    ______ ____
ROOT
ATOM      1  C   UNL     1       6.153   5.576  18.334  0.00  0.00    +0.000 A 
ATOM      2  C   UNL     1       7.500   5.854  18.645  0.00  0.00    +0.000 A 
ATOM      3  C   UNL     1       8.108   7.038  18.235  0.00  0.00    +0.000 A 
ATOM      4  C   UNL     1       7.358   7.931  17.508  0.00  0.00    +0.000 A 
ATOM      5  N   UNL     1       6.084   7.698  17.150  0.00  0.00    +0.000 NA
ATOM      6  C   UNL     1       5.506   6.518  17.527  0.00  0.00    +0.000 A 
ENDROOT
BRANCH   1   8
ATOM      7  O   UNL     1       5.994   3.597  19.685  0.00  0.00    +0.000 OA
ATOM      8  C   UNL     1       5.498   4.307  18.820  0.00  0.00    +0.000 C 
ATOM      9  N   UNL     1       4.295   3.979  18.207  0.00  0.00    +0.000 N 
ATOM     10  H   UNL     1       4.046   4.448  17.355  0.00  0.00    +0.000 HD
BRANCH   9  11
ATOM     11  C   UNL     1       3.464   2.809  18.515  0.00  0.00    +0.000 C 
ATOM     12  C   UNL     1       3.499   2.571  20.035  0.00  0.00    +0.000 C 
ATOM     13  C   UNL     1       2.762   3.616  20.878  0.00  0.00    +0.000 C 
ATOM     14  C   UNL     1       1.284   3.308  21.086  0.00  0.00    +0.000 C 
ATOM     15  C   UNL     1       0.428   3.338  19.825  0.00  0.00    +0.000 C 
ATOM     16  C   UNL     1       0.890   2.407  18.704  0.00  0.00    +0.000 C 
ATOM     17  C   UNL     1       2.064   2.971  17.899  0.00  0.00    +0.000 C 
ENDBRANCH   9  11
ENDBRANCH   1   8
BRANCH   6  18
ATOM     18  O   UNL     1       4.241   6.278  17.031  0.00  0.00    +0.000 OA
BRANCH  18  19
ATOM     19  C   UNL     1       3.454   7.475  16.936  0.00  0.00    +0.000 C 
BRANCH  19  20
ATOM     20  C   UNL     1       2.666   7.770  18.198  0.00  0.00    +0.000 A 
ATOM     21  C   UNL     1       2.594   6.868  19.269  0.00  0.00    +0.000 A 
ATOM     22  C   UNL     1       1.816   7.170  20.389  0.00  0.00    +0.000 A 
ATOM     23  C   UNL     1       1.116   8.372  20.446  0.00  0.00    +0.000 A 
ATOM     24  F   UNL     1       0.351   8.642  21.510  0.00  0.00    +0.000 F 
ATOM     25  C   UNL     1       1.193   9.291  19.408  0.00  0.00    +0.000 A 
ATOM     26  C   UNL     1       1.976   8.995  18.291  0.00  0.00    +0.000 A 
ENDBRANCH  19  20
ENDBRANCH  18  19
ENDBRANCH   6  18
TORSDOF 5
ENDMDL
MODEL 8
REMARK VINA RESULT:      -7.7      2.180      5.011
REMARK  Name = 
REMARK  5 active torsions:
REMARK  status: ('A' for Active; 'I' for Inactive)
REMARK    1  A    between atoms: C_2  and  C_11
REMARK    2  A    between atoms: N_3  and  C_4
REMARK    3  A    between atoms: C_16  and  O_17
REMARK    4  A    between atoms: O_17  and  C_18
REMARK    5  A    between atoms: C_18  and  C_19
REMARK                            x       y       z     vdW  Elec       q    Type
REMARK                         _______ _______ _______ _____ _____    ______ ____
ROOT
ATOM      1  C   UNL     1       3.092   3.172  19.326  0.00  0.00    +0.000 A 
ATOM      2  C   UNL     1       2.429   1.964  19.026  0.00  0.00    +0.000 A 
ATOM      3  C   UNL     1       1.041   1.906  18.929  0.00  0.00    +0.000 A 
ATOM      4  C   UNL     1       0.330   3.063  19.141  0.00  0.00    +0.000 A 
ATOM      5  N   UNL     1       0.909   4.230  19.468  0.00  0.00    +0.000 NA
ATOM      6  C   UNL     1       2.269   4.270  19.596  0.00  0.00    +0.000 A 
ENDROOT
BRANCH   1   8
ATOM      7  O   UNL     1       5.257   2.493  20.113  0.00  0.00    +0.000 OA
ATOM      8  C   UNL     1       4.599   3.227  19.388  0.00  0.00    +0.000 C 
ATOM      9  N   UNL     1       5.199   4.183  18.578  0.00  0.00    +0.000 N 
ATOM     10  H   UNL     1       4.626   4.909  18.187  0.00  0.00    +0.000 HD
BRANCH   9  11
ATOM     11  C   UNL     1       6.642   4.420  18.452  0.00  0.00    +0.000 C 
ATOM     12  C   UNL     1       6.974   4.632  16.964  0.00  0.00    +0.000 C 
ATOM     13  C   UNL     1       6.463   5.944  16.360  0.00  0.00    +0.000 C 
ATOM     14  C   UNL     1       7.430   7.111  16.516  0.00  0.00    +0.000 C 
ATOM     15  C   UNL     1       7.680   7.564  17.949  0.00  0.00    +0.000 C 
ATOM     16  C   UNL     1       8.191   6.476  18.894  0.00  0.00    +0.000 C 
ATOM     17  C   UNL     1       7.083   5.548  19.399  0.00  0.00    +0.000 C 
ENDBRANCH   9  11
ENDBRANCH   1   8
BRANCH   6  18
ATOM     18  O   UNL     1       2.800   5.460  20.051  0.00  0.00    +0.000 OA
BRANCH  18  19
ATOM     19  C   UNL     1       2.968   6.422  18.998  0.00  0.00    +0.000 C 
BRANCH  19  20
ATOM     20  C   UNL     1       2.139   7.676  19.200  0.00  0.00    +0.000 A 
ATOM     21  C   UNL     1       1.890   8.588  18.165  0.00  0.00    +0.000 A 
ATOM     22  C   UNL     1       1.159   9.751  18.416  0.00  0.00    +0.000 A 
ATOM     23  C   UNL     1       0.670  10.003  19.695  0.00  0.00    +0.000 A 
ATOM     24  F   UNL     1      -0.006  11.132  19.935  0.00  0.00    +0.000 F 
ATOM     25  C   UNL     1       0.883   9.100  20.730  0.00  0.00    +0.000 A 
ATOM     26  C   UNL     1       1.607   7.934  20.479  0.00  0.00    +0.000 A 
ENDBRANCH  19  20
ENDBRANCH  18  19
ENDBRANCH   6  18
TORSDOF 5
ENDMDL
MODEL 9
REMARK VINA RESULT:      -7.7      2.193      5.106
REMARK  Name = 
REMARK  5 active torsions:
REMARK  status: ('A' for Active; 'I' for Inactive)
REMARK    1  A    between atoms: C_2  and  C_11
REMARK    2  A    between atoms: N_3  and  C_4
REMARK    3  A    between atoms: C_16  and  O_17
REMARK    4  A    between atoms: O_17  and  C_18
REMARK    5  A    between atoms: C_18  and  C_19
REMARK                            x       y       z     vdW  Elec       q    Type
REMARK                         _______ _______ _______ _____ _____    ______ ____
ROOT
ATOM      1  C   UNL     1       3.099   3.160  19.331  0.00  0.00    +0.000 A 
ATOM      2  C   UNL     1       2.436   1.960  19.000  0.00  0.00    +0.000 A 
ATOM      3  C   UNL     1       1.048   1.902  18.907  0.00  0.00    +0.000 A 
ATOM      4  C   UNL     1       0.336   3.051  19.155  0.00  0.00    +0.000 A 
ATOM      5  N   UNL     1       0.915   4.210  19.512  0.00  0.00    +0.000 NA
ATOM      6  C   UNL     1       2.275   4.249  19.635  0.00  0.00    +0.000 A 
ENDROOT
BRANCH   1   8
ATOM      7  O   UNL     1       5.269   2.462  20.089  0.00  0.00    +0.000 OA
ATOM      8  C   UNL     1       4.606   3.215  19.387  0.00  0.00    +0.000 C 
ATOM      9  N   UNL     1       5.201   4.196  18.603  0.00  0.00    +0.000 N 
ATOM     10  H   UNL     1       4.625   4.932  18.235  0.00  0.00    +0.000 HD
BRANCH   9  11
ATOM     11  C   UNL     1       6.643   4.439  18.477  0.00  0.00    +0.000 C 
ATOM     12  C   UNL     1       6.977   4.637  16.988  0.00  0.00    +0.000 C 
ATOM     13  C   UNL     1       6.461   5.941  16.370  0.00  0.00    +0.000 C 
ATOM     14  C   UNL     1       7.421   7.114  16.517  0.00  0.00    +0.000 C 
ATOM     15  C   UNL     1       7.667   7.582  17.946  0.00  0.00    +0.000 C 
ATOM     16  C   UNL     1       8.181   6.506  18.902  0.00  0.00    +0.000 C 
ATOM     17  C   UNL     1       7.076   5.578  19.415  0.00  0.00    +0.000 C 
ENDBRANCH   9  11
ENDBRANCH   1   8
BRANCH   6  18
ATOM     18  O   UNL     1       2.806   5.427  20.121  0.00  0.00    +0.000 OA
BRANCH  18  19
ATOM     19  C   UNL     1       2.767   6.485  19.152  0.00  0.00    +0.000 C 
BRANCH  19  20
ATOM     20  C   UNL     1       1.991   7.699  19.628  0.00  0.00    +0.000 A 
ATOM     21  C   UNL     1       1.448   7.786  20.918  0.00  0.00    +0.000 A 
ATOM     22  C   UNL     1       0.702   8.907  21.290  0.00  0.00    +0.000 A 
ATOM     23  C   UNL     1       0.503   9.943  20.382  0.00  0.00    +0.000 A 
ATOM     24  F   UNL     1      -0.235  11.001  20.736  0.00  0.00    +0.000 F 
ATOM     25  C   UNL     1       1.054   9.889  19.108  0.00  0.00    +0.000 A 
ATOM     26  C   UNL     1       1.806   8.773  18.736  0.00  0.00    +0.000 A 
ENDBRANCH  19  20
ENDBRANCH  18  19
ENDBRANCH   6  18
TORSDOF 5
ENDMDL
