MODEL 1
REMARK VINA RESULT:      -8.2      0.000      0.000
REMARK  Name = 
REMARK  5 active torsions:
REMARK  status: ('A' for Active; 'I' for Inactive)
REMARK    1  A    between atoms: C_1  and  C_2
REMARK    2  A    between atoms: N_4  and  C_5
REMARK    3  A    between atoms: C_7  and  N_8
REMARK    4  A    between atoms: N_11  and  C_12
REMARK    5  A    between atoms: C_23  and  C_24
REMARK                            x       y       z     vdW  Elec       q    Type
REMARK                         _______ _______ _______ _____ _____    ______ ____
ROOT
ATOM      1  N   UNL     1       8.439   7.667  18.940  0.00  0.00    +0.000 N 
ATOM      2  C   UNL     1       8.481   9.000  18.564  0.00  0.00    +0.000 C 
ATOM      3  O   UNL     1       7.715   9.515  17.756  0.00  0.00    +0.000 OA
ATOM      4  N   UNL     1       9.514   9.687  19.197  0.00  0.00    +0.000 N 
ATOM      5  H   UNL     1       8.714   7.472  19.889  0.00  0.00    +0.000 HD
ATOM      6  H   UNL     1      10.336   9.123  19.357  0.00  0.00    +0.000 HD
ENDROOT
BRANCH   4   7
ATOM      7  C   UNL     1       9.738  11.058  18.908  0.00  0.00    +0.000 A 
ATOM      8  C   UNL     1      10.480  11.447  17.771  0.00  0.00    +0.000 A 
ATOM      9  C   UNL     1      10.822  12.785  17.556  0.00  0.00    +0.000 A 
ATOM     10  C   UNL     1      10.416  13.701  18.498  0.00  0.00    +0.000 A 
ATOM     11  C   UNL     1       9.655  13.333  19.585  0.00  0.00    +0.000 A 
ATOM     12  C   UNL     1       9.269  12.025  19.803  0.00  0.00    +0.000 A 
ATOM     13  O   UNL     1       9.394  14.387  20.408  0.00  0.00    +0.000 OA
ATOM     14  C   UNL     1      10.150  15.431  19.756  0.00  0.00    +0.000 C 
ATOM     15  O   UNL     1      10.721  15.025  18.497  0.00  0.00    +0.000 OA
ENDBRANCH   4   7
BRANCH   1  18
ATOM     16  C   UNL     1       6.304   4.655  18.247  0.00  0.00    +0.000 A 
ATOM     17  C   UNL     1       7.052   5.628  18.924  0.00  0.00    +0.000 A 
ATOM     18  C   UNL     1       7.691   6.679  18.255  0.00  0.00    +0.000 A 
ATOM     19  C   UNL     1       7.547   6.776  16.873  0.00  0.00    +0.000 A 
ATOM     20  C   UNL     1       6.824   5.801  16.175  0.00  0.00    +0.000 A 
ATOM     21  C   UNL     1       6.196   4.733  16.845  0.00  0.00    +0.000 A 
ATOM     22  C   UNL     1       5.414   3.735  16.036  0.00  0.00    +0.000 C 
BRANCH  16  26
ATOM     23  C   UNL     1       4.076   2.354  20.253  0.00  0.00    +0.000 C 
ATOM     24  C   UNL     1       4.379   3.569  19.416  0.00  0.00    +0.000 C 
ATOM     25  O   UNL     1       3.498   4.384  19.169  0.00  0.00    +0.000 OA
ATOM     26  N   UNL     1       5.685   3.587  18.948  0.00  0.00    +0.000 N 
ATOM     27  H   UNL     1       6.208   2.727  19.030  0.00  0.00    +0.000 HD
ENDBRANCH  16  26
ENDBRANCH   1  18
TORSDOF 3
ENDMDL
MODEL 2
REMARK VINA RESULT:      -8.1      6.808      9.577
REMARK  Name = 
REMARK  5 active torsions:
REMARK  status: ('A' for Active; 'I' for Inactive)
REMARK    1  A    between atoms: C_1  and  C_2
REMARK    2  A    between atoms: N_4  and  C_5
REMARK    3  A    between atoms: C_7  and  N_8
REMARK    4  A    between atoms: N_11  and  C_12
REMARK    5  A    between atoms: C_23  and  C_24
REMARK                            x       y       z     vdW  Elec       q    Type
REMARK                         _______ _______ _______ _____ _____    ______ ____
ROOT
ATOM      1  N   UNL     1       1.763   8.374  19.799  0.00  0.00    +0.000 N 
ATOM      2  C   UNL     1       2.408   7.826  18.701  0.00  0.00    +0.000 C 
ATOM      3  O   UNL     1       2.464   8.355  17.596  0.00  0.00    +0.000 OA
ATOM      4  N   UNL     1       2.969   6.585  18.995  0.00  0.00    +0.000 N 
ATOM      5  H   UNL     1       2.172   8.166  20.695  0.00  0.00    +0.000 HD
ATOM      6  H   UNL     1       2.432   6.045  19.658  0.00  0.00    +0.000 HD
ENDROOT
BRANCH   4   7
ATOM      7  C   UNL     1       3.640   5.851  17.983  0.00  0.00    +0.000 A 
ATOM      8  C   UNL     1       3.240   4.537  17.654  0.00  0.00    +0.000 A 
ATOM      9  C   UNL     1       3.981   3.760  16.759  0.00  0.00    +0.000 A 
ATOM     10  C   UNL     1       5.114   4.322  16.222  0.00  0.00    +0.000 A 
ATOM     11  C   UNL     1       5.484   5.618  16.505  0.00  0.00    +0.000 A 
ATOM     12  C   UNL     1       4.752   6.423  17.354  0.00  0.00    +0.000 A 
ATOM     13  O   UNL     1       6.655   5.960  15.896  0.00  0.00    +0.000 OA
ATOM     14  C   UNL     1       7.013   4.707  15.275  0.00  0.00    +0.000 C 
ATOM     15  O   UNL     1       5.996   3.694  15.400  0.00  0.00    +0.000 OA
ENDBRANCH   4   7
BRANCH   1  18
ATOM     16  C   UNL     1      -0.756  10.834  18.490  0.00  0.00    +0.000 A 
ATOM     17  C   UNL     1       0.133   9.753  18.565  0.00  0.00    +0.000 A 
ATOM     18  C   UNL     1       0.873   9.472  19.721  0.00  0.00    +0.000 A 
ATOM     19  C   UNL     1       0.691  10.278  20.841  0.00  0.00    +0.000 A 
ATOM     20  C   UNL     1      -0.175  11.377  20.780  0.00  0.00    +0.000 A 
ATOM     21  C   UNL     1      -0.905  11.671  19.613  0.00  0.00    +0.000 A 
ATOM     22  C   UNL     1      -1.835  12.854  19.624  0.00  0.00    +0.000 C 
BRANCH  16  26
ATOM     23  C   UNL     1      -3.004  10.844  15.453  0.00  0.00    +0.000 C 
ATOM     24  C   UNL     1      -2.563  10.391  16.819  0.00  0.00    +0.000 C 
ATOM     25  O   UNL     1      -3.181   9.513  17.409  0.00  0.00    +0.000 OA
ATOM     26  N   UNL     1      -1.477  11.110  17.299  0.00  0.00    +0.000 N 
ATOM     27  H   UNL     1      -1.241  11.959  16.805  0.00  0.00    +0.000 HD
ENDBRANCH  16  26
ENDBRANCH   1  18
TORSDOF 3
ENDMDL
MODEL 3
REMARK VINA RESULT:      -7.9      1.908      2.390
REMARK  Name = 
REMARK  5 active torsions:
REMARK  status: ('A' for Active; 'I' for Inactive)
REMARK    1  A    between atoms: C_1  and  C_2
REMARK    2  A    between atoms: N_4  and  C_5
REMARK    3  A    between atoms: C_7  and  N_8
REMARK    4  A    between atoms: N_11  and  C_12
REMARK    5  A    between atoms: C_23  and  C_24
REMARK                            x       y       z     vdW  Elec       q    Type
REMARK                         _______ _______ _______ _____ _____    ______ ____
ROOT
ATOM      1  N   UNL     1       6.787   7.813  16.994  0.00  0.00    +0.000 N 
ATOM      2  C   UNL     1       7.815   8.266  17.806  0.00  0.00    +0.000 C 
ATOM      3  O   UNL     1       8.446   7.557  18.583  0.00  0.00    +0.000 OA
ATOM      4  N   UNL     1       8.034   9.633  17.653  0.00  0.00    +0.000 N 
ATOM      5  H   UNL     1       6.696   8.277  16.105  0.00  0.00    +0.000 HD
ATOM      6  H   UNL     1       7.193  10.159  17.466  0.00  0.00    +0.000 HD
ENDROOT
BRANCH   4   7
ATOM      7  C   UNL     1       9.024  10.285  18.432  0.00  0.00    +0.000 A 
ATOM      8  C   UNL     1       8.933  10.317  19.842  0.00  0.00    +0.000 A 
ATOM      9  C   UNL     1       9.825  11.073  20.606  0.00  0.00    +0.000 A 
ATOM     10  C   UNL     1      10.786  11.789  19.932  0.00  0.00    +0.000 A 
ATOM     11  C   UNL     1      10.906  11.728  18.562  0.00  0.00    +0.000 A 
ATOM     12  C   UNL     1      10.064  10.959  17.783  0.00  0.00    +0.000 A 
ATOM     13  O   UNL     1      11.897  12.540  18.098  0.00  0.00    +0.000 OA
ATOM     14  C   UNL     1      12.320  13.176  19.323  0.00  0.00    +0.000 C 
ATOM     15  O   UNL     1      11.684  12.637  20.498  0.00  0.00    +0.000 OA
ENDBRANCH   4   7
BRANCH   1  18
ATOM     16  C   UNL     1       4.781   4.976  18.422  0.00  0.00    +0.000 A 
ATOM     17  C   UNL     1       5.407   6.222  18.276  0.00  0.00    +0.000 A 
ATOM     18  C   UNL     1       6.163   6.551  17.144  0.00  0.00    +0.000 A 
ATOM     19  C   UNL     1       6.266   5.618  16.116  0.00  0.00    +0.000 A 
ATOM     20  C   UNL     1       5.668   4.359  16.251  0.00  0.00    +0.000 A 
ATOM     21  C   UNL     1       4.923   4.020  17.397  0.00  0.00    +0.000 A 
ATOM     22  C   UNL     1       4.287   2.658  17.467  0.00  0.00    +0.000 C 
BRANCH  16  26
ATOM     23  C   UNL     1       2.203   4.505  21.144  0.00  0.00    +0.000 C 
ATOM     24  C   UNL     1       2.663   4.768  19.735  0.00  0.00    +0.000 C 
ATOM     25  O   UNL     1       1.846   4.993  18.849  0.00  0.00    +0.000 OA
ATOM     26  N   UNL     1       4.039   4.660  19.590  0.00  0.00    +0.000 N 
ATOM     27  H   UNL     1       4.543   4.228  20.351  0.00  0.00    +0.000 HD
ENDBRANCH  16  26
ENDBRANCH   1  18
TORSDOF 3
ENDMDL
MODEL 4
REMARK VINA RESULT:      -7.7      7.055      8.850
REMARK  Name = 
REMARK  5 active torsions:
REMARK  status: ('A' for Active; 'I' for Inactive)
REMARK    1  A    between atoms: C_1  and  C_2
REMARK    2  A    between atoms: N_4  and  C_5
REMARK    3  A    between atoms: C_7  and  N_8
REMARK    4  A    between atoms: N_11  and  C_12
REMARK    5  A    between atoms: C_23  and  C_24
REMARK                            x       y       z     vdW  Elec       q    Type
REMARK                         _______ _______ _______ _____ _____    ______ ____
ROOT
ATOM      1  N   UNL     1       2.066   7.467  20.874  0.00  0.00    +0.000 N 
ATOM      2  C   UNL     1       0.919   8.203  21.126  0.00  0.00    +0.000 C 
ATOM      3  O   UNL     1      -0.221   7.757  21.043  0.00  0.00    +0.000 OA
ATOM      4  N   UNL     1       1.211   9.523  21.462  0.00  0.00    +0.000 N 
ATOM      5  H   UNL     1       2.874   7.718  21.420  0.00  0.00    +0.000 HD
ATOM      6  H   UNL     1       2.022   9.891  20.986  0.00  0.00    +0.000 HD
ENDROOT
BRANCH   4   7
ATOM      7  C   UNL     1       0.160  10.440  21.718  0.00  0.00    +0.000 A 
ATOM      8  C   UNL     1      -0.489  10.468  22.973  0.00  0.00    +0.000 A 
ATOM      9  C   UNL     1      -1.613  11.269  23.186  0.00  0.00    +0.000 A 
ATOM     10  C   UNL     1      -2.065  12.020  22.126  0.00  0.00    +0.000 A 
ATOM     11  C   UNL     1      -1.410  12.030  20.915  0.00  0.00    +0.000 A 
ATOM     12  C   UNL     1      -0.275  11.279  20.686  0.00  0.00    +0.000 A 
ATOM     13  O   UNL     1      -2.045  12.812  19.997  0.00  0.00    +0.000 OA
ATOM     14  C   UNL     1      -3.212  13.215  20.746  0.00  0.00    +0.000 C 
ATOM     15  O   UNL     1      -3.183  12.794  22.124  0.00  0.00    +0.000 OA
ENDBRANCH   4   7
BRANCH   1  18
ATOM     16  C   UNL     1       2.773   4.701  18.432  0.00  0.00    +0.000 A 
ATOM     17  C   UNL     1       2.765   5.958  19.053  0.00  0.00    +0.000 A 
ATOM     18  C   UNL     1       2.066   6.200  20.242  0.00  0.00    +0.000 A 
ATOM     19  C   UNL     1       1.383   5.145  20.842  0.00  0.00    +0.000 A 
ATOM     20  C   UNL     1       1.359   3.887  20.226  0.00  0.00    +0.000 A 
ATOM     21  C   UNL     1       2.046   3.647  19.021  0.00  0.00    +0.000 A 
ATOM     22  C   UNL     1       1.998   2.266  18.426  0.00  0.00    +0.000 C 
BRANCH  16  26
ATOM     23  C   UNL     1       5.284   4.314  15.635  0.00  0.00    +0.000 C 
ATOM     24  C   UNL     1       4.848   4.382  17.075  0.00  0.00    +0.000 C 
ATOM     25  O   UNL     1       5.674   4.289  17.975  0.00  0.00    +0.000 OA
ATOM     26  N   UNL     1       3.472   4.488  17.215  0.00  0.00    +0.000 N 
ATOM     27  H   UNL     1       2.916   4.302  16.393  0.00  0.00    +0.000 HD
ENDBRANCH  16  26
ENDBRANCH   1  18
TORSDOF 3
ENDMDL
MODEL 5
REMARK VINA RESULT:      -7.7      6.878     10.295
REMARK  Name = 
REMARK  5 active torsions:
REMARK  status: ('A' for Active; 'I' for Inactive)
REMARK    1  A    between atoms: C_1  and  C_2
REMARK    2  A    between atoms: N_4  and  C_5
REMARK    3  A    between atoms: C_7  and  N_8
REMARK    4  A    between atoms: N_11  and  C_12
REMARK    5  A    between atoms: C_23  and  C_24
REMARK                            x       y       z     vdW  Elec       q    Type
REMARK                         _______ _______ _______ _____ _____    ______ ____
ROOT
ATOM      1  N   UNL     1       1.524   8.187  21.753  0.00  0.00    +0.000 N 
ATOM      2  C   UNL     1       1.881   7.715  20.498  0.00  0.00    +0.000 C 
ATOM      3  O   UNL     1       1.726   8.341  19.455  0.00  0.00    +0.000 OA
ATOM      4  N   UNL     1       2.416   6.431  20.559  0.00  0.00    +0.000 N 
ATOM      5  H   UNL     1       2.106   7.880  22.515  0.00  0.00    +0.000 HD
ATOM      6  H   UNL     1       2.005   5.855  21.279  0.00  0.00    +0.000 HD
ENDROOT
BRANCH   4   7
ATOM      7  C   UNL     1       2.805   5.767  19.367  0.00  0.00    +0.000 A 
ATOM      8  C   UNL     1       1.942   4.842  18.738  0.00  0.00    +0.000 A 
ATOM      9  C   UNL     1       2.370   4.083  17.646  0.00  0.00    +0.000 A 
ATOM     10  C   UNL     1       3.663   4.266  17.217  0.00  0.00    +0.000 A 
ATOM     11  C   UNL     1       4.494   5.197  17.798  0.00  0.00    +0.000 A 
ATOM     12  C   UNL     1       4.087   5.989  18.853  0.00  0.00    +0.000 A 
ATOM     13  O   UNL     1       5.739   5.189  17.244  0.00  0.00    +0.000 OA
ATOM     14  C   UNL     1       5.614   4.091  16.315  0.00  0.00    +0.000 C 
ATOM     15  O   UNL     1       4.275   3.565  16.226  0.00  0.00    +0.000 OA
ENDBRANCH   4   7
BRANCH   1  18
ATOM     16  C   UNL     1      -0.031  11.583  21.352  0.00  0.00    +0.000 A 
ATOM     17  C   UNL     1       0.786  10.461  21.150  0.00  0.00    +0.000 A 
ATOM     18  C   UNL     1       0.706   9.323  21.963  0.00  0.00    +0.000 A 
ATOM     19  C   UNL     1      -0.240   9.296  22.983  0.00  0.00    +0.000 A 
ATOM     20  C   UNL     1      -1.050  10.415  23.217  0.00  0.00    +0.000 A 
ATOM     21  C   UNL     1      -0.958  11.567  22.412  0.00  0.00    +0.000 A 
ATOM     22  C   UNL     1      -1.874  12.724  22.704  0.00  0.00    +0.000 C 
BRANCH  16  26
ATOM     23  C   UNL     1      -0.053  14.170  18.597  0.00  0.00    +0.000 C 
ATOM     24  C   UNL     1      -0.496  12.902  19.280  0.00  0.00    +0.000 C 
ATOM     25  O   UNL     1      -1.329  12.174  18.752  0.00  0.00    +0.000 OA
ATOM     26  N   UNL     1       0.086  12.733  20.528  0.00  0.00    +0.000 N 
ATOM     27  H   UNL     1       0.554  13.536  20.924  0.00  0.00    +0.000 HD
ENDBRANCH  16  26
ENDBRANCH   1  18
TORSDOF 3
ENDMDL
MODEL 6
REMARK VINA RESULT:      -7.7      6.611     10.349
REMARK  Name = 
REMARK  5 active torsions:
REMARK  status: ('A' for Active; 'I' for Inactive)
REMARK    1  A    between atoms: C_1  and  C_2
REMARK    2  A    between atoms: N_4  and  C_5
REMARK    3  A    between atoms: C_7  and  N_8
REMARK    4  A    between atoms: N_11  and  C_12
REMARK    5  A    between atoms: C_23  and  C_24
REMARK                            x       y       z     vdW  Elec       q    Type
REMARK                         _______ _______ _______ _____ _____    ______ ____
ROOT
ATOM      1  N   UNL     1       1.424   8.188  21.761  0.00  0.00    +0.000 N 
ATOM      2  C   UNL     1       1.829   7.725  20.518  0.00  0.00    +0.000 C 
ATOM      3  O   UNL     1       1.789   8.388  19.487  0.00  0.00    +0.000 OA
ATOM      4  N   UNL     1       2.267   6.404  20.572  0.00  0.00    +0.000 N 
ATOM      5  H   UNL     1       1.931   7.820  22.549  0.00  0.00    +0.000 HD
ATOM      6  H   UNL     1       1.769   5.841  21.246  0.00  0.00    +0.000 HD
ENDROOT
BRANCH   4   7
ATOM      7  C   UNL     1       2.686   5.745  19.388  0.00  0.00    +0.000 A 
ATOM      8  C   UNL     1       1.861   4.784  18.762  0.00  0.00    +0.000 A 
ATOM      9  C   UNL     1       2.323   4.033  17.678  0.00  0.00    +0.000 A 
ATOM     10  C   UNL     1       3.611   4.260  17.254  0.00  0.00    +0.000 A 
ATOM     11  C   UNL     1       4.404   5.227  17.832  0.00  0.00    +0.000 A 
ATOM     12  C   UNL     1       3.962   6.011  18.879  0.00  0.00    +0.000 A 
ATOM     13  O   UNL     1       5.651   5.260  17.284  0.00  0.00    +0.000 OA
ATOM     14  C   UNL     1       5.571   4.151  16.363  0.00  0.00    +0.000 C 
ATOM     15  O   UNL     1       4.253   3.575  16.272  0.00  0.00    +0.000 OA
ENDBRANCH   4   7
BRANCH   1  18
ATOM     16  C   UNL     1       0.128  11.690  21.353  0.00  0.00    +0.000 A 
ATOM     17  C   UNL     1       0.874  10.517  21.169  0.00  0.00    +0.000 A 
ATOM     18  C   UNL     1       0.676   9.374  21.954  0.00  0.00    +0.000 A 
ATOM     19  C   UNL     1      -0.320   9.396  22.925  0.00  0.00    +0.000 A 
ATOM     20  C   UNL     1      -1.062  10.565  23.141  0.00  0.00    +0.000 A 
ATOM     21  C   UNL     1      -0.850  11.721  22.366  0.00  0.00    +0.000 A 
ATOM     22  C   UNL     1      -1.699  12.934  22.635  0.00  0.00    +0.000 C 
BRANCH  16  26
ATOM     23  C   UNL     1       1.295  14.937  19.813  0.00  0.00    +0.000 C 
ATOM     24  C   UNL     1       1.414  13.736  20.713  0.00  0.00    +0.000 C 
ATOM     25  O   UNL     1       2.394  13.601  21.438  0.00  0.00    +0.000 OA
ATOM     26  N   UNL     1       0.364  12.842  20.559  0.00  0.00    +0.000 N 
ATOM     27  H   UNL     1      -0.229  12.974  19.752  0.00  0.00    +0.000 HD
ENDBRANCH  16  26
ENDBRANCH   1  18
TORSDOF 3
ENDMDL
MODEL 7
REMARK VINA RESULT:      -7.6      1.933      8.822
REMARK  Name = 
REMARK  5 active torsions:
REMARK  status: ('A' for Active; 'I' for Inactive)
REMARK    1  A    between atoms: C_1  and  C_2
REMARK    2  A    between atoms: N_4  and  C_5
REMARK    3  A    between atoms: C_7  and  N_8
REMARK    4  A    between atoms: N_11  and  C_12
REMARK    5  A    between atoms: C_23  and  C_24
REMARK                            x       y       z     vdW  Elec       q    Type
REMARK                         _______ _______ _______ _____ _____    ______ ____
ROOT
ATOM      1  N   UNL     1       9.232   9.004  19.147  0.00  0.00    +0.000 N 
ATOM      2  C   UNL     1       8.253   8.308  18.456  0.00  0.00    +0.000 C 
ATOM      3  O   UNL     1       7.463   8.821  17.671  0.00  0.00    +0.000 OA
ATOM      4  N   UNL     1       8.255   6.952  18.777  0.00  0.00    +0.000 N 
ATOM      5  H   UNL     1      10.081   8.496  19.332  0.00  0.00    +0.000 HD
ATOM      6  H   UNL     1       8.506   6.764  19.736  0.00  0.00    +0.000 HD
ENDROOT
BRANCH   4   7
ATOM      7  C   UNL     1       7.296   6.083  18.195  0.00  0.00    +0.000 A 
ATOM      8  C   UNL     1       7.247   5.890  16.796  0.00  0.00    +0.000 A 
ATOM      9  C   UNL     1       6.221   5.147  16.206  0.00  0.00    +0.000 A 
ATOM     10  C   UNL     1       5.261   4.623  17.039  0.00  0.00    +0.000 A 
ATOM     11  C   UNL     1       5.328   4.771  18.406  0.00  0.00    +0.000 A 
ATOM     12  C   UNL     1       6.351   5.466  19.021  0.00  0.00    +0.000 A 
ATOM     13  O   UNL     1       4.260   4.206  19.036  0.00  0.00    +0.000 OA
ATOM     14  C   UNL     1       3.481   3.766  17.903  0.00  0.00    +0.000 C 
ATOM     15  O   UNL     1       4.152   3.944  16.641  0.00  0.00    +0.000 OA
ENDBRANCH   4   7
BRANCH   1  18
ATOM     16  C   UNL     1       9.374  12.482  20.560  0.00  0.00    +0.000 A 
ATOM     17  C   UNL     1       9.320  11.084  20.469  0.00  0.00    +0.000 A 
ATOM     18  C   UNL     1       9.277  10.417  19.239  0.00  0.00    +0.000 A 
ATOM     19  C   UNL     1       9.325  11.170  18.069  0.00  0.00    +0.000 A 
ATOM     20  C   UNL     1       9.356  12.568  18.137  0.00  0.00    +0.000 A 
ATOM     21  C   UNL     1       9.379  13.241  19.373  0.00  0.00    +0.000 A 
ATOM     22  C   UNL     1       9.437  14.745  19.374  0.00  0.00    +0.000 C 
BRANCH  16  26
ATOM     23  C   UNL     1       8.627  14.269  23.805  0.00  0.00    +0.000 C 
ATOM     24  C   UNL     1       8.285  13.435  22.599  0.00  0.00    +0.000 C 
ATOM     25  O   UNL     1       7.135  13.050  22.420  0.00  0.00    +0.000 OA
ATOM     26  N   UNL     1       9.393  13.135  21.820  0.00  0.00    +0.000 N 
ATOM     27  H   UNL     1      10.298  13.314  22.231  0.00  0.00    +0.000 HD
ENDBRANCH  16  26
ENDBRANCH   1  18
TORSDOF 3
ENDMDL
MODEL 8
REMARK VINA RESULT:      -7.5      6.463      9.223
REMARK  Name = 
REMARK  5 active torsions:
REMARK  status: ('A' for Active; 'I' for Inactive)
REMARK    1  A    between atoms: C_1  and  C_2
REMARK    2  A    between atoms: N_4  and  C_5
REMARK    3  A    between atoms: C_7  and  N_8
REMARK    4  A    between atoms: N_11  and  C_12
REMARK    5  A    between atoms: C_23  and  C_24
REMARK                            x       y       z     vdW  Elec       q    Type
REMARK                         _______ _______ _______ _____ _____    ______ ____
ROOT
ATOM      1  N   UNL     1       1.813   7.780  19.721  0.00  0.00    +0.000 N 
ATOM      2  C   UNL     1       2.893   7.433  18.924  0.00  0.00    +0.000 C 
ATOM      3  O   UNL     1       3.434   8.190  18.125  0.00  0.00    +0.000 OA
ATOM      4  N   UNL     1       3.282   6.110  19.122  0.00  0.00    +0.000 N 
ATOM      5  H   UNL     1       1.777   7.337  20.624  0.00  0.00    +0.000 HD
ATOM      6  H   UNL     1       2.512   5.489  19.326  0.00  0.00    +0.000 HD
ENDROOT
BRANCH   4   7
ATOM      7  C   UNL     1       4.349   5.562  18.365  0.00  0.00    +0.000 A 
ATOM      8  C   UNL     1       5.657   5.502  18.895  0.00  0.00    +0.000 A 
ATOM      9  C   UNL     1       6.737   5.094  18.107  0.00  0.00    +0.000 A 
ATOM     10  C   UNL     1       6.475   4.763  16.798  0.00  0.00    +0.000 A 
ATOM     11  C   UNL     1       5.195   4.778  16.289  0.00  0.00    +0.000 A 
ATOM     12  C   UNL     1       4.104   5.140  17.054  0.00  0.00    +0.000 A 
ATOM     13  O   UNL     1       5.166   4.452  14.966  0.00  0.00    +0.000 OA
ATOM     14  C   UNL     1       6.577   4.318  14.691  0.00  0.00    +0.000 C 
ATOM     15  O   UNL     1       7.404   4.422  15.866  0.00  0.00    +0.000 OA
ENDBRANCH   4   7
BRANCH   1  18
ATOM     16  C   UNL     1      -0.515  10.301  18.194  0.00  0.00    +0.000 A 
ATOM     17  C   UNL     1       0.261   9.149  18.380  0.00  0.00    +0.000 A 
ATOM     18  C   UNL     1       1.036   8.948  19.529  0.00  0.00    +0.000 A 
ATOM     19  C   UNL     1       1.005   9.913  20.532  0.00  0.00    +0.000 A 
ATOM     20  C   UNL     1       0.254  11.082  20.356  0.00  0.00    +0.000 A 
ATOM     21  C   UNL     1      -0.511  11.293  19.193  0.00  0.00    +0.000 A 
ATOM     22  C   UNL     1      -1.313  12.561  19.079  0.00  0.00    +0.000 C 
BRANCH  16  26
ATOM     23  C   UNL     1      -2.995  10.215  15.343  0.00  0.00    +0.000 C 
ATOM     24  C   UNL     1      -2.528   9.955  16.751  0.00  0.00    +0.000 C 
ATOM     25  O   UNL     1      -3.257   9.374  17.547  0.00  0.00    +0.000 OA
ATOM     26  N   UNL     1      -1.274  10.490  17.009  0.00  0.00    +0.000 N 
ATOM     27  H   UNL     1      -0.914  11.149  16.333  0.00  0.00    +0.000 HD
ENDBRANCH  16  26
ENDBRANCH   1  18
TORSDOF 3
ENDMDL
MODEL 9
REMARK VINA RESULT:      -7.5      6.999     10.657
REMARK  Name = 
REMARK  5 active torsions:
REMARK  status: ('A' for Active; 'I' for Inactive)
REMARK    1  A    between atoms: C_1  and  C_2
REMARK    2  A    between atoms: N_4  and  C_5
REMARK    3  A    between atoms: C_7  and  N_8
REMARK    4  A    between atoms: N_11  and  C_12
REMARK    5  A    between atoms: C_23  and  C_24
REMARK                            x       y       z     vdW  Elec       q    Type
REMARK                         _______ _______ _______ _____ _____    ______ ____
ROOT
ATOM      1  N   UNL     1       1.079   8.922  20.758  0.00  0.00    +0.000 N 
ATOM      2  C   UNL     1       1.751   7.943  20.042  0.00  0.00    +0.000 C 
ATOM      3  O   UNL     1       2.250   8.116  18.935  0.00  0.00    +0.000 OA
ATOM      4  N   UNL     1       1.773   6.726  20.720  0.00  0.00    +0.000 N 
ATOM      5  H   UNL     1       1.163   8.864  21.760  0.00  0.00    +0.000 HD
ATOM      6  H   UNL     1       0.942   6.552  21.265  0.00  0.00    +0.000 HD
ENDROOT
BRANCH   4   7
ATOM      7  C   UNL     1       2.385   5.593  20.125  0.00  0.00    +0.000 A 
ATOM      8  C   UNL     1       3.759   5.601  19.795  0.00  0.00    +0.000 A 
ATOM      9  C   UNL     1       4.336   4.545  19.084  0.00  0.00    +0.000 A 
ATOM     10  C   UNL     1       3.513   3.507  18.714  0.00  0.00    +0.000 A 
ATOM     11  C   UNL     1       2.184   3.474  19.071  0.00  0.00    +0.000 A 
ATOM     12  C   UNL     1       1.594   4.484  19.806  0.00  0.00    +0.000 A 
ATOM     13  O   UNL     1       1.546   2.378  18.573  0.00  0.00    +0.000 OA
ATOM     14  C   UNL     1       2.606   1.780  17.795  0.00  0.00    +0.000 C 
ATOM     15  O   UNL     1       3.878   2.439  17.956  0.00  0.00    +0.000 OA
ENDBRANCH   4   7
BRANCH   1  18
ATOM     16  C   UNL     1      -0.620  11.438  18.546  0.00  0.00    +0.000 A 
ATOM     17  C   UNL     1      -0.194  10.219  19.091  0.00  0.00    +0.000 A 
ATOM     18  C   UNL     1       0.657  10.154  20.202  0.00  0.00    +0.000 A 
ATOM     19  C   UNL     1       1.063  11.342  20.802  0.00  0.00    +0.000 A 
ATOM     20  C   UNL     1       0.668  12.571  20.259  0.00  0.00    +0.000 A 
ATOM     21  C   UNL     1      -0.172  12.638  19.131  0.00  0.00    +0.000 A 
ATOM     22  C   UNL     1      -0.578  13.992  18.614  0.00  0.00    +0.000 C 
BRANCH  16  26
ATOM     23  C   UNL     1      -3.420  11.242  16.016  0.00  0.00    +0.000 C 
ATOM     24  C   UNL     1      -2.840  11.297  17.405  0.00  0.00    +0.000 C 
ATOM     25  O   UNL     1      -3.575  11.241  18.385  0.00  0.00    +0.000 OA
ATOM     26  N   UNL     1      -1.464  11.477  17.406  0.00  0.00    +0.000 N 
ATOM     27  H   UNL     1      -1.042  11.752  16.530  0.00  0.00    +0.000 HD
ENDBRANCH  16  26
ENDBRANCH   1  18
TORSDOF 3
ENDMDL
