MODEL 1
REMARK VINA RESULT:      -7.7      0.000      0.000
REMARK  Name = 
REMARK  5 active torsions:
REMARK  status: ('A' for Active; 'I' for Inactive)
REMARK    1  A    between atoms: C_1  and  C_2
REMARK    2  A    between atoms: C_2  and  C_3
REMARK    3  A    between atoms: C_2  and  C_17
REMARK    4  A    between atoms: N_5  and  C_6
REMARK    5  A    between atoms: C_9  and  C_10
REMARK                            x       y       z     vdW  Elec       q    Type
REMARK                         _______ _______ _______ _____ _____    ______ ____
ROOT
ATOM      1  C   UNL     1       3.083   4.960  18.014  0.00  0.00    +0.000 C 
ATOM      2  O   UNL     1       1.940   4.647  17.675  0.00  0.00    +0.000 OA
ATOM      3  N   UNL     1       3.471   6.200  18.501  0.00  0.00    +0.000 N 
ATOM      4  H   UNL     1       4.464   6.393  18.521  0.00  0.00    +0.000 HD
ENDROOT
BRANCH   3   5
ATOM      5  C   UNL     1       2.605   7.283  18.786  0.00  0.00    +0.000 A 
ATOM      6  C   UNL     1       2.249   8.237  17.833  0.00  0.00    +0.000 A 
ATOM      7  C   UNL     1       1.421   9.313  18.162  0.00  0.00    +0.000 A 
ATOM      8  C   UNL     1       0.924   9.475  19.458  0.00  0.00    +0.000 A 
ATOM      9  C   UNL     1       1.238   8.486  20.405  0.00  0.00    +0.000 A 
ATOM     10  C   UNL     1       2.065   7.399  20.071  0.00  0.00    +0.000 A 
BRANCH   8  11
ATOM     11  C   UNL     1       0.067  10.669  19.850  0.00  0.00    +0.000 C 
ATOM     12  C   UNL     1       0.357  11.899  18.996  0.00  0.00    +0.000 C 
ATOM     13  C   UNL     1       1.407  12.654  19.788  0.00  0.00    +0.000 C 
ATOM     14  N   UNL     1       1.076  12.437  21.200  0.00  0.00    +0.000 NA
ATOM     15  C   UNL     1       0.281  11.195  21.280  0.00  0.00    +0.000 C 
ATOM     16  H   UNL     1       0.507  13.214  21.536  0.00  0.00    +0.000 HD
ENDBRANCH   8  11
ENDBRANCH   3   5
BRANCH   1  18
ATOM     17  C   UNL     1       4.834   3.685  19.263  0.00  0.00    +0.000 C 
ATOM     18  C   UNL     1       4.203   3.920  17.890  0.00  0.00    +0.000 C 
BRANCH  18  19
ATOM     19  C   UNL     1       5.171   4.233  16.755  0.00  0.00    +0.000 A 
ATOM     20  C   UNL     1       6.499   4.626  16.978  0.00  0.00    +0.000 A 
ATOM     21  C   UNL     1       7.355   4.899  15.908  0.00  0.00    +0.000 A 
ATOM     22  C   UNL     1       6.895   4.771  14.601  0.00  0.00    +0.000 A 
ATOM     23 CL   UNL     1       7.946   5.131  13.288  0.00  0.00    +0.000 Cl
ATOM     24  C   UNL     1       5.593   4.352  14.353  0.00  0.00    +0.000 A 
ATOM     25  C   UNL     1       4.738   4.077  15.424  0.00  0.00    +0.000 A 
ENDBRANCH  18  19
ENDBRANCH   1  18
TORSDOF 4
ENDMDL
MODEL 2
REMARK VINA RESULT:      -7.6      0.968      1.652
REMARK  Name = 
REMARK  5 active torsions:
REMARK  status: ('A' for Active; 'I' for Inactive)
REMARK    1  A    between atoms: C_1  and  C_2
REMARK    2  A    between atoms: C_2  and  C_3
REMARK    3  A    between atoms: C_2  and  C_17
REMARK    4  A    between atoms: N_5  and  C_6
REMARK    5  A    between atoms: C_9  and  C_10
REMARK                            x       y       z     vdW  Elec       q    Type
REMARK                         _______ _______ _______ _____ _____    ______ ____
ROOT
ATOM      1  C   UNL     1       3.020   5.005  18.062  0.00  0.00    +0.000 C 
ATOM      2  O   UNL     1       1.842   4.663  17.941  0.00  0.00    +0.000 OA
ATOM      3  N   UNL     1       3.465   6.291  18.329  0.00  0.00    +0.000 N 
ATOM      4  H   UNL     1       4.448   6.477  18.174  0.00  0.00    +0.000 HD
ENDROOT
BRANCH   3   5
ATOM      5  C   UNL     1       2.642   7.410  18.607  0.00  0.00    +0.000 A 
ATOM      6  C   UNL     1       2.386   8.410  17.670  0.00  0.00    +0.000 A 
ATOM      7  C   UNL     1       1.598   9.518  17.993  0.00  0.00    +0.000 A 
ATOM      8  C   UNL     1       1.043   9.665  19.267  0.00  0.00    +0.000 A 
ATOM      9  C   UNL     1       1.257   8.632  20.195  0.00  0.00    +0.000 A 
ATOM     10  C   UNL     1       2.043   7.514  19.866  0.00  0.00    +0.000 A 
BRANCH   8  11
ATOM     11  C   UNL     1       0.230  10.890  19.656  0.00  0.00    +0.000 C 
ATOM     12  C   UNL     1      -1.268  10.686  19.449  0.00  0.00    +0.000 C 
ATOM     13  C   UNL     1      -1.518  11.217  18.051  0.00  0.00    +0.000 C 
ATOM     14  N   UNL     1      -0.602  12.350  17.883  0.00  0.00    +0.000 NA
ATOM     15  C   UNL     1       0.512  12.159  18.832  0.00  0.00    +0.000 C 
ATOM     16  H   UNL     1      -1.089  13.215  18.117  0.00  0.00    +0.000 HD
ENDBRANCH   8  11
ENDBRANCH   3   5
BRANCH   1  18
ATOM     17  C   UNL     1       4.798   3.707  19.246  0.00  0.00    +0.000 C 
ATOM     18  C   UNL     1       4.118   3.948  17.898  0.00  0.00    +0.000 C 
BRANCH  18  19
ATOM     19  C   UNL     1       5.045   4.242  16.724  0.00  0.00    +0.000 A 
ATOM     20  C   UNL     1       4.613   4.212  15.391  0.00  0.00    +0.000 A 
ATOM     21  C   UNL     1       5.495   4.493  14.345  0.00  0.00    +0.000 A 
ATOM     22  C   UNL     1       6.819   4.820  14.621  0.00  0.00    +0.000 A 
ATOM     23 CL   UNL     1       7.907   5.142  13.329  0.00  0.00    +0.000 Cl
ATOM     24  C   UNL     1       7.264   4.887  15.937  0.00  0.00    +0.000 A 
ATOM     25  C   UNL     1       6.380   4.609  16.983  0.00  0.00    +0.000 A 
ENDBRANCH  18  19
ENDBRANCH   1  18
TORSDOF 4
ENDMDL
MODEL 3
REMARK VINA RESULT:      -7.6      0.186      1.021
REMARK  Name = 
REMARK  5 active torsions:
REMARK  status: ('A' for Active; 'I' for Inactive)
REMARK    1  A    between atoms: C_1  and  C_2
REMARK    2  A    between atoms: C_2  and  C_3
REMARK    3  A    between atoms: C_2  and  C_17
REMARK    4  A    between atoms: N_5  and  C_6
REMARK    5  A    between atoms: C_9  and  C_10
REMARK                            x       y       z     vdW  Elec       q    Type
REMARK                         _______ _______ _______ _____ _____    ______ ____
ROOT
ATOM      1  C   UNL     1       3.021   4.948  18.077  0.00  0.00    +0.000 C 
ATOM      2  O   UNL     1       1.848   4.591  17.953  0.00  0.00    +0.000 OA
ATOM      3  N   UNL     1       3.448   6.239  18.353  0.00  0.00    +0.000 N 
ATOM      4  H   UNL     1       4.428   6.439  18.200  0.00  0.00    +0.000 HD
ENDROOT
BRANCH   3   5
ATOM      5  C   UNL     1       2.609   7.343  18.638  0.00  0.00    +0.000 A 
ATOM      6  C   UNL     1       2.272   8.303  17.684  0.00  0.00    +0.000 A 
ATOM      7  C   UNL     1       1.471   9.399  18.013  0.00  0.00    +0.000 A 
ATOM      8  C   UNL     1       0.983   9.576  19.311  0.00  0.00    +0.000 A 
ATOM      9  C   UNL     1       1.278   8.583  20.259  0.00  0.00    +0.000 A 
ATOM     10  C   UNL     1       2.078   7.476  19.925  0.00  0.00    +0.000 A 
BRANCH   8  11
ATOM     11  C   UNL     1       0.157  10.792  19.703  0.00  0.00    +0.000 C 
ATOM     12  C   UNL     1       0.660  12.075  19.049  0.00  0.00    +0.000 C 
ATOM     13  C   UNL     1       1.619  12.653  20.072  0.00  0.00    +0.000 C 
ATOM     14  N   UNL     1       1.054  12.320  21.383  0.00  0.00    +0.000 NA
ATOM     15  C   UNL     1       0.176  11.148  21.199  0.00  0.00    +0.000 C 
ATOM     16  H   UNL     1       0.491  13.104  21.716  0.00  0.00    +0.000 HD
ENDBRANCH   8  11
ENDBRANCH   3   5
BRANCH   1  18
ATOM     17  C   UNL     1       4.816   3.665  19.253  0.00  0.00    +0.000 C 
ATOM     18  C   UNL     1       4.134   3.908  17.905  0.00  0.00    +0.000 C 
BRANCH  18  19
ATOM     19  C   UNL     1       5.059   4.225  16.736  0.00  0.00    +0.000 A 
ATOM     20  C   UNL     1       4.622   4.225  15.403  0.00  0.00    +0.000 A 
ATOM     21  C   UNL     1       5.502   4.526  14.361  0.00  0.00    +0.000 A 
ATOM     22  C   UNL     1       6.827   4.843  14.641  0.00  0.00    +0.000 A 
ATOM     23 CL   UNL     1       7.912   5.190  13.352  0.00  0.00    +0.000 Cl
ATOM     24  C   UNL     1       7.277   4.881  15.956  0.00  0.00    +0.000 A 
ATOM     25  C   UNL     1       6.395   4.582  16.998  0.00  0.00    +0.000 A 
ENDBRANCH  18  19
ENDBRANCH   1  18
TORSDOF 4
ENDMDL
MODEL 4
REMARK VINA RESULT:      -7.6      1.058      1.721
REMARK  Name = 
REMARK  5 active torsions:
REMARK  status: ('A' for Active; 'I' for Inactive)
REMARK    1  A    between atoms: C_1  and  C_2
REMARK    2  A    between atoms: C_2  and  C_3
REMARK    3  A    between atoms: C_2  and  C_17
REMARK    4  A    between atoms: N_5  and  C_6
REMARK    5  A    between atoms: C_9  and  C_10
REMARK                            x       y       z     vdW  Elec       q    Type
REMARK                         _______ _______ _______ _____ _____    ______ ____
ROOT
ATOM      1  C   UNL     1       2.984   5.051  18.012  0.00  0.00    +0.000 C 
ATOM      2  O   UNL     1       1.828   4.786  17.675  0.00  0.00    +0.000 OA
ATOM      3  N   UNL     1       3.420   6.266  18.518  0.00  0.00    +0.000 N 
ATOM      4  H   UNL     1       4.419   6.423  18.535  0.00  0.00    +0.000 HD
ENDROOT
BRANCH   3   5
ATOM      5  C   UNL     1       2.596   7.376  18.827  0.00  0.00    +0.000 A 
ATOM      6  C   UNL     1       2.008   7.556  20.079  0.00  0.00    +0.000 A 
ATOM      7  C   UNL     1       1.172   8.645  20.335  0.00  0.00    +0.000 A 
ATOM      8  C   UNL     1       0.889   9.590  19.344  0.00  0.00    +0.000 A 
ATOM      9  C   UNL     1       1.522   9.439  18.100  0.00  0.00    +0.000 A 
ATOM     10  C   UNL     1       2.370   8.346  17.845  0.00  0.00    +0.000 A 
BRANCH   8  11
ATOM     11  C   UNL     1      -0.064  10.750  19.586  0.00  0.00    +0.000 C 
ATOM     12  C   UNL     1      -1.498  10.421  19.187  0.00  0.00    +0.000 C 
ATOM     13  C   UNL     1      -1.599  10.905  17.754  0.00  0.00    +0.000 C 
ATOM     14  N   UNL     1      -0.761  12.106  17.677  0.00  0.00    +0.000 NA
ATOM     15  C   UNL     1       0.226  12.024  18.772  0.00  0.00    +0.000 C 
ATOM     16  H   UNL     1      -1.342  12.932  17.820  0.00  0.00    +0.000 HD
ENDBRANCH   8  11
ENDBRANCH   3   5
BRANCH   1  18
ATOM     17  C   UNL     1       4.672   3.669  19.234  0.00  0.00    +0.000 C 
ATOM     18  C   UNL     1       4.064   3.973  17.863  0.00  0.00    +0.000 C 
BRANCH  18  19
ATOM     19  C   UNL     1       5.054   4.285  16.748  0.00  0.00    +0.000 A 
ATOM     20  C   UNL     1       6.399   4.595  16.994  0.00  0.00    +0.000 A 
ATOM     21  C   UNL     1       7.276   4.870  15.941  0.00  0.00    +0.000 A 
ATOM     22  C   UNL     1       6.819   4.826  14.627  0.00  0.00    +0.000 A 
ATOM     23 CL   UNL     1       7.895   5.188  13.336  0.00  0.00    +0.000 Cl
ATOM     24  C   UNL     1       5.497   4.490  14.356  0.00  0.00    +0.000 A 
ATOM     25  C   UNL     1       4.622   4.212  15.409  0.00  0.00    +0.000 A 
ENDBRANCH  18  19
ENDBRANCH   1  18
TORSDOF 4
ENDMDL
MODEL 5
REMARK VINA RESULT:      -7.6      0.311      1.450
REMARK  Name = 
REMARK  5 active torsions:
REMARK  status: ('A' for Active; 'I' for Inactive)
REMARK    1  A    between atoms: C_1  and  C_2
REMARK    2  A    between atoms: C_2  and  C_3
REMARK    3  A    between atoms: C_2  and  C_17
REMARK    4  A    between atoms: N_5  and  C_6
REMARK    5  A    between atoms: C_9  and  C_10
REMARK                            x       y       z     vdW  Elec       q    Type
REMARK                         _______ _______ _______ _____ _____    ______ ____
ROOT
ATOM      1  C   UNL     1       2.999   4.940  18.068  0.00  0.00    +0.000 C 
ATOM      2  O   UNL     1       1.822   4.647  17.846  0.00  0.00    +0.000 OA
ATOM      3  N   UNL     1       3.459   6.181  18.480  0.00  0.00    +0.000 N 
ATOM      4  H   UNL     1       4.454   6.349  18.403  0.00  0.00    +0.000 HD
ENDROOT
BRANCH   3   5
ATOM      5  C   UNL     1       2.649   7.295  18.811  0.00  0.00    +0.000 A 
ATOM      6  C   UNL     1       2.063   7.456  20.065  0.00  0.00    +0.000 A 
ATOM      7  C   UNL     1       1.240   8.551  20.343  0.00  0.00    +0.000 A 
ATOM      8  C   UNL     1       0.971   9.519  19.372  0.00  0.00    +0.000 A 
ATOM      9  C   UNL     1       1.603   9.386  18.125  0.00  0.00    +0.000 A 
ATOM     10  C   UNL     1       2.438   8.288  17.849  0.00  0.00    +0.000 A 
BRANCH   8  11
ATOM     11  C   UNL     1       0.033  10.687  19.636  0.00  0.00    +0.000 C 
ATOM     12  C   UNL     1       0.636  12.026  19.224  0.00  0.00    +0.000 C 
ATOM     13  C   UNL     1       1.295  12.534  20.492  0.00  0.00    +0.000 C 
ATOM     14  N   UNL     1       0.437  12.089  21.594  0.00  0.00    +0.000 NA
ATOM     15  C   UNL     1      -0.329  10.923  21.113  0.00  0.00    +0.000 C 
ATOM     16  H   UNL     1      -0.216  12.835  21.835  0.00  0.00    +0.000 HD
ENDBRANCH   8  11
ENDBRANCH   3   5
BRANCH   1  18
ATOM     17  C   UNL     1       4.743   3.564  19.217  0.00  0.00    +0.000 C 
ATOM     18  C   UNL     1       4.078   3.867  17.873  0.00  0.00    +0.000 C 
BRANCH  18  19
ATOM     19  C   UNL     1       5.019   4.186  16.718  0.00  0.00    +0.000 A 
ATOM     20  C   UNL     1       4.603   4.186  15.379  0.00  0.00    +0.000 A 
ATOM     21  C   UNL     1       5.498   4.489  14.350  0.00  0.00    +0.000 A 
ATOM     22  C   UNL     1       6.819   4.808  14.650  0.00  0.00    +0.000 A 
ATOM     23 CL   UNL     1       7.923   5.157  13.379  0.00  0.00    +0.000 Cl
ATOM     24  C   UNL     1       7.248   4.846  15.972  0.00  0.00    +0.000 A 
ATOM     25  C   UNL     1       6.352   4.545  17.001  0.00  0.00    +0.000 A 
ENDBRANCH  18  19
ENDBRANCH   1  18
TORSDOF 4
ENDMDL
MODEL 6
REMARK VINA RESULT:      -7.5      0.194      1.018
REMARK  Name = 
REMARK  5 active torsions:
REMARK  status: ('A' for Active; 'I' for Inactive)
REMARK    1  A    between atoms: C_1  and  C_2
REMARK    2  A    between atoms: C_2  and  C_3
REMARK    3  A    between atoms: C_2  and  C_17
REMARK    4  A    between atoms: N_5  and  C_6
REMARK    5  A    between atoms: C_9  and  C_10
REMARK                            x       y       z     vdW  Elec       q    Type
REMARK                         _______ _______ _______ _____ _____    ______ ____
ROOT
ATOM      1  C   UNL     1       2.974   4.946  18.101  0.00  0.00    +0.000 C 
ATOM      2  O   UNL     1       1.811   4.674  17.794  0.00  0.00    +0.000 OA
ATOM      3  N   UNL     1       3.415   6.161  18.603  0.00  0.00    +0.000 N 
ATOM      4  H   UNL     1       4.413   6.325  18.593  0.00  0.00    +0.000 HD
ENDROOT
BRANCH   3   5
ATOM      5  C   UNL     1       2.592   7.262  18.942  0.00  0.00    +0.000 A 
ATOM      6  C   UNL     1       2.040   7.430  20.212  0.00  0.00    +0.000 A 
ATOM      7  C   UNL     1       1.202   8.511  20.499  0.00  0.00    +0.000 A 
ATOM      8  C   UNL     1       0.884   9.459  19.523  0.00  0.00    +0.000 A 
ATOM      9  C   UNL     1       1.482   9.321  18.260  0.00  0.00    +0.000 A 
ATOM     10  C   UNL     1       2.331   8.237  17.974  0.00  0.00    +0.000 A 
BRANCH   8  11
ATOM     11  C   UNL     1      -0.070  10.611  19.799  0.00  0.00    +0.000 C 
ATOM     12  C   UNL     1       0.294  11.871  19.021  0.00  0.00    +0.000 C 
ATOM     13  C   UNL     1       1.181  12.646  19.975  0.00  0.00    +0.000 C 
ATOM     14  N   UNL     1       0.650  12.385  21.316  0.00  0.00    +0.000 NA
ATOM     15  C   UNL     1      -0.096  11.113  21.254  0.00  0.00    +0.000 C 
ATOM     16  H   UNL     1       0.005  13.132  21.575  0.00  0.00    +0.000 HD
ENDBRANCH   8  11
ENDBRANCH   3   5
BRANCH   1  18
ATOM     17  C   UNL     1       4.670   3.531  19.272  0.00  0.00    +0.000 C 
ATOM     18  C   UNL     1       4.057   3.877  17.914  0.00  0.00    +0.000 C 
BRANCH  18  19
ATOM     19  C   UNL     1       5.043   4.228  16.806  0.00  0.00    +0.000 A 
ATOM     20  C   UNL     1       6.370   4.601  17.063  0.00  0.00    +0.000 A 
ATOM     21  C   UNL     1       7.243   4.911  16.017  0.00  0.00    +0.000 A 
ATOM     22  C   UNL     1       6.801   4.838  14.699  0.00  0.00    +0.000 A 
ATOM     23 CL   UNL     1       7.872   5.242  13.416  0.00  0.00    +0.000 Cl
ATOM     24  C   UNL     1       5.499   4.439  14.417  0.00  0.00    +0.000 A 
ATOM     25  C   UNL     1       4.628   4.128  15.464  0.00  0.00    +0.000 A 
ENDBRANCH  18  19
ENDBRANCH   1  18
TORSDOF 4
ENDMDL
MODEL 7
REMARK VINA RESULT:      -7.5      1.057      1.990
REMARK  Name = 
REMARK  5 active torsions:
REMARK  status: ('A' for Active; 'I' for Inactive)
REMARK    1  A    between atoms: C_1  and  C_2
REMARK    2  A    between atoms: C_2  and  C_3
REMARK    3  A    between atoms: C_2  and  C_17
REMARK    4  A    between atoms: N_5  and  C_6
REMARK    5  A    between atoms: C_9  and  C_10
REMARK                            x       y       z     vdW  Elec       q    Type
REMARK                         _______ _______ _______ _____ _____    ______ ____
ROOT
ATOM      1  C   UNL     1       2.971   5.050  18.064  0.00  0.00    +0.000 C 
ATOM      2  O   UNL     1       1.802   4.751  17.814  0.00  0.00    +0.000 OA
ATOM      3  N   UNL     1       3.414   6.294  18.489  0.00  0.00    +0.000 N 
ATOM      4  H   UNL     1       4.410   6.468  18.435  0.00  0.00    +0.000 HD
ENDROOT
BRANCH   3   5
ATOM      5  C   UNL     1       2.590   7.401  18.804  0.00  0.00    +0.000 A 
ATOM      6  C   UNL     1       1.997   7.570  20.055  0.00  0.00    +0.000 A 
ATOM      7  C   UNL     1       1.161   8.658  20.317  0.00  0.00    +0.000 A 
ATOM      8  C   UNL     1       0.883   9.612  19.334  0.00  0.00    +0.000 A 
ATOM      9  C   UNL     1       1.521   9.471  18.091  0.00  0.00    +0.000 A 
ATOM     10  C   UNL     1       2.370   8.381  17.830  0.00  0.00    +0.000 A 
BRANCH   8  11
ATOM     11  C   UNL     1      -0.069  10.771  19.582  0.00  0.00    +0.000 C 
ATOM     12  C   UNL     1      -1.500  10.452  19.160  0.00  0.00    +0.000 C 
ATOM     13  C   UNL     1      -1.582  10.958  17.734  0.00  0.00    +0.000 C 
ATOM     14  N   UNL     1      -0.740  12.157  17.686  0.00  0.00    +0.000 NA
ATOM     15  C   UNL     1       0.234  12.056  18.791  0.00  0.00    +0.000 C 
ATOM     16  H   UNL     1      -1.321  12.983  17.834  0.00  0.00    +0.000 HD
ENDBRANCH   8  11
ENDBRANCH   3   5
BRANCH   1  18
ATOM     17  C   UNL     1       4.728   3.715  19.240  0.00  0.00    +0.000 C 
ATOM     18  C   UNL     1       4.061   3.985  17.890  0.00  0.00    +0.000 C 
BRANCH  18  19
ATOM     19  C   UNL     1       5.000   4.291  16.730  0.00  0.00    +0.000 A 
ATOM     20  C   UNL     1       4.594   4.225  15.389  0.00  0.00    +0.000 A 
ATOM     21  C   UNL     1       5.487   4.518  14.355  0.00  0.00    +0.000 A 
ATOM     22  C   UNL     1       6.794   4.893  14.651  0.00  0.00    +0.000 A 
ATOM     23 CL   UNL     1       7.895   5.230  13.373  0.00  0.00    +0.000 Cl
ATOM     24  C   UNL     1       7.211   4.996  15.973  0.00  0.00    +0.000 A 
ATOM     25  C   UNL     1       6.317   4.705  17.006  0.00  0.00    +0.000 A 
ENDBRANCH  18  19
ENDBRANCH   1  18
TORSDOF 4
ENDMDL
MODEL 8
REMARK VINA RESULT:      -7.4      1.269      1.563
REMARK  Name = 
REMARK  5 active torsions:
REMARK  status: ('A' for Active; 'I' for Inactive)
REMARK    1  A    between atoms: C_1  and  C_2
REMARK    2  A    between atoms: C_2  and  C_3
REMARK    3  A    between atoms: C_2  and  C_17
REMARK    4  A    between atoms: N_5  and  C_6
REMARK    5  A    between atoms: C_9  and  C_10
REMARK                            x       y       z     vdW  Elec       q    Type
REMARK                         _______ _______ _______ _____ _____    ______ ____
ROOT
ATOM      1  C   UNL     1       2.901   5.493  18.168  0.00  0.00    +0.000 C 
ATOM      2  O   UNL     1       1.790   5.121  17.787  0.00  0.00    +0.000 OA
ATOM      3  N   UNL     1       3.222   6.771  18.600  0.00  0.00    +0.000 N 
ATOM      4  H   UNL     1       4.206   7.000  18.662  0.00  0.00    +0.000 HD
ENDROOT
BRANCH   3   5
ATOM      5  C   UNL     1       2.307   7.839  18.772  0.00  0.00    +0.000 A 
ATOM      6  C   UNL     1       1.897   8.658  17.720  0.00  0.00    +0.000 A 
ATOM      7  C   UNL     1       1.021   9.725  17.935  0.00  0.00    +0.000 A 
ATOM      8  C   UNL     1       0.529  10.013  19.212  0.00  0.00    +0.000 A 
ATOM      9  C   UNL     1       0.900   9.157  20.262  0.00  0.00    +0.000 A 
ATOM     10  C   UNL     1       1.776   8.078  20.043  0.00  0.00    +0.000 A 
BRANCH   8  11
ATOM     11  C   UNL     1      -0.380  11.203  19.476  0.00  0.00    +0.000 C 
ATOM     12  C   UNL     1      -1.825  10.936  19.068  0.00  0.00    +0.000 C 
ATOM     13  C   UNL     1      -1.903  11.453  17.645  0.00  0.00    +0.000 C 
ATOM     14  N   UNL     1      -1.021  12.623  17.595  0.00  0.00    +0.000 NA
ATOM     15  C   UNL     1      -0.040  12.481  18.689  0.00  0.00    +0.000 C 
ATOM     16  H   UNL     1      -1.571  13.467  17.754  0.00  0.00    +0.000 HD
ENDBRANCH   8  11
ENDBRANCH   3   5
BRANCH   1  18
ATOM     17  C   UNL     1       4.699   4.448  19.557  0.00  0.00    +0.000 C 
ATOM     18  C   UNL     1       4.059   4.487  18.169  0.00  0.00    +0.000 C 
BRANCH  18  19
ATOM     19  C   UNL     1       5.014   4.692  16.998  0.00  0.00    +0.000 A 
ATOM     20  C   UNL     1       6.179   5.465  17.098  0.00  0.00    +0.000 A 
ATOM     21  C   UNL     1       7.031   5.623  16.002  0.00  0.00    +0.000 A 
ATOM     22  C   UNL     1       6.732   4.999  14.795  0.00  0.00    +0.000 A 
ATOM     23 CL   UNL     1       7.771   5.215  13.441  0.00  0.00    +0.000 Cl
ATOM     24  C   UNL     1       5.599   4.200  14.680  0.00  0.00    +0.000 A 
ATOM     25  C   UNL     1       4.750   4.041  15.778  0.00  0.00    +0.000 A 
ENDBRANCH  18  19
ENDBRANCH   1  18
TORSDOF 4
ENDMDL
MODEL 9
REMARK VINA RESULT:      -7.2      3.998      8.622
REMARK  Name = 
REMARK  5 active torsions:
REMARK  status: ('A' for Active; 'I' for Inactive)
REMARK    1  A    between atoms: C_1  and  C_2
REMARK    2  A    between atoms: C_2  and  C_3
REMARK    3  A    between atoms: C_2  and  C_17
REMARK    4  A    between atoms: N_5  and  C_6
REMARK    5  A    between atoms: C_9  and  C_10
REMARK                            x       y       z     vdW  Elec       q    Type
REMARK                         _______ _______ _______ _____ _____    ______ ____
ROOT
ATOM      1  C   UNL     1       1.401   9.697  18.553  0.00  0.00    +0.000 C 
ATOM      2  O   UNL     1       1.882   9.647  17.419  0.00  0.00    +0.000 OA
ATOM      3  N   UNL     1       1.446   8.680  19.495  0.00  0.00    +0.000 N 
ATOM      4  H   UNL     1       0.822   8.763  20.287  0.00  0.00    +0.000 HD
ENDROOT
BRANCH   3   5
ATOM      5  C   UNL     1       2.136   7.452  19.353  0.00  0.00    +0.000 A 
ATOM      6  C   UNL     1       3.060   7.217  18.335  0.00  0.00    +0.000 A 
ATOM      7  C   UNL     1       3.694   5.979  18.206  0.00  0.00    +0.000 A 
ATOM      8  C   UNL     1       3.421   4.930  19.089  0.00  0.00    +0.000 A 
ATOM      9  C   UNL     1       2.531   5.182  20.146  0.00  0.00    +0.000 A 
ATOM     10  C   UNL     1       1.899   6.431  20.280  0.00  0.00    +0.000 A 
BRANCH   8  11
ATOM     11  C   UNL     1       4.058   3.558  18.931  0.00  0.00    +0.000 C 
ATOM     12  C   UNL     1       3.938   3.019  17.510  0.00  0.00    +0.000 C 
ATOM     13  C   UNL     1       2.664   2.197  17.537  0.00  0.00    +0.000 C 
ATOM     14  N   UNL     1       2.604   1.596  18.873  0.00  0.00    +0.000 NA
ATOM     15  C   UNL     1       3.423   2.434  19.770  0.00  0.00    +0.000 C 
ATOM     16  H   UNL     1       3.008   0.659  18.839  0.00  0.00    +0.000 HD
ENDBRANCH   8  11
ENDBRANCH   3   5
BRANCH   1  18
ATOM     17  C   UNL     1       0.978  11.251  20.465  0.00  0.00    +0.000 C 
ATOM     18  C   UNL     1       0.673  10.972  18.992  0.00  0.00    +0.000 C 
BRANCH  18  19
ATOM     19  C   UNL     1      -0.801  10.969  18.604  0.00  0.00    +0.000 A 
ATOM     20  C   UNL     1      -1.337  10.067  17.674  0.00  0.00    +0.000 A 
ATOM     21  C   UNL     1      -2.696  10.095  17.350  0.00  0.00    +0.000 A 
ATOM     22  C   UNL     1      -3.537  11.019  17.961  0.00  0.00    +0.000 A 
ATOM     23 CL   UNL     1      -5.204  11.066  17.541  0.00  0.00    +0.000 Cl
ATOM     24  C   UNL     1      -3.036  11.904  18.910  0.00  0.00    +0.000 A 
ATOM     25  C   UNL     1      -1.677  11.873  19.236  0.00  0.00    +0.000 A 
ENDBRANCH  18  19
ENDBRANCH   1  18
TORSDOF 4
ENDMDL
