MODEL 1
REMARK VINA RESULT:      -7.4      0.000      0.000
REMARK  Name = 
REMARK  8 active torsions:
REMARK  status: ('A' for Active; 'I' for Inactive)
REMARK    1  A    between atoms: C_1  and  N_2
REMARK    2  A    between atoms: N_2  and  C_3
REMARK    3  A    between atoms: N_2  and  C_4
REMARK    4  A    between atoms: C_4  and  C_5
REMARK    5  A    between atoms: C_5  and  C_6
REMARK    6  A    between atoms: C_6  and  N_7
REMARK    7  A    between atoms: N_7  and  C_8
REMARK    8  A    between atoms: C_8  and  C_9
REMARK                            x       y       z     vdW  Elec       q    Type
REMARK                         _______ _______ _______ _____ _____    ______ ____
ROOT
ATOM      1  C   UNL     1       5.207   4.885  18.050  0.00  0.00    +0.000 A 
ATOM      2  C   UNL     1       6.316   5.704  18.304  0.00  0.00    +0.000 A 
ATOM      3  C   UNL     1       7.243   6.018  17.304  0.00  0.00    +0.000 A 
ATOM      4  C   UNL     1       7.034   5.468  16.036  0.00  0.00    +0.000 A 
ATOM      5  N   UNL     1       7.766   5.601  14.882  0.00  0.00    +0.000 N 
ATOM      6  C   UNL     1       7.205   4.879  13.854  0.00  0.00    +0.000 A 
ATOM      7  C   UNL     1       7.616   4.730  12.525  0.00  0.00    +0.000 A 
ATOM      8  C   UNL     1       6.834   3.923  11.693  0.00  0.00    +0.000 A 
ATOM      9  C   UNL     1       5.689   3.292  12.173  0.00  0.00    +0.000 A 
ATOM     10  C   UNL     1       5.293   3.454  13.505  0.00  0.00    +0.000 A 
ATOM     11  C   UNL     1       6.064   4.264  14.365  0.00  0.00    +0.000 A 
ATOM     12  C   UNL     1       5.954   4.639  15.741  0.00  0.00    +0.000 A 
ATOM     13  C   UNL     1       5.028   4.347  16.764  0.00  0.00    +0.000 A 
ATOM     14  H   UNL     1       8.607   6.155  14.797  0.00  0.00    +0.000 HD
ENDROOT
BRANCH   1  15
ATOM     15  C   UNL     1       4.211   4.573  19.143  0.00  0.00    +0.000 C 
BRANCH  15  16
ATOM     16  N   UNL     1       3.830   5.782  19.872  0.00  0.00    +0.000 NA
ATOM     17  H   UNL     1       4.085   5.669  20.852  0.00  0.00    +0.000 HD
BRANCH  16  18
ATOM     18  C   UNL     1       2.389   6.015  19.778  0.00  0.00    +0.000 C 
BRANCH  18  19
ATOM     19  C   UNL     1       1.709   4.751  19.248  0.00  0.00    +0.000 C 
BRANCH  19  20
ATOM     20  C   UNL     1       0.840   4.069  20.312  0.00  0.00    +0.000 C 
BRANCH  20  22
ATOM     21  C   UNL     1       1.698   1.974  19.403  0.00  0.00    +0.000 C 
ATOM     22  N   UNL     1       1.221   2.673  20.598  0.00  0.00    +0.000 NA
ATOM     23  C   UNL     1       2.250   2.637  21.640  0.00  0.00    +0.000 C 
ENDBRANCH  20  22
ENDBRANCH  19  20
ENDBRANCH  18  19
ENDBRANCH  16  18
ENDBRANCH  15  16
ENDBRANCH   1  15
TORSDOF 6
ENDMDL
MODEL 2
REMARK VINA RESULT:      -7.2      1.046      1.668
REMARK  Name = 
REMARK  8 active torsions:
REMARK  status: ('A' for Active; 'I' for Inactive)
REMARK    1  A    between atoms: C_1  and  N_2
REMARK    2  A    between atoms: N_2  and  C_3
REMARK    3  A    between atoms: N_2  and  C_4
REMARK    4  A    between atoms: C_4  and  C_5
REMARK    5  A    between atoms: C_5  and  C_6
REMARK    6  A    between atoms: C_6  and  N_7
REMARK    7  A    between atoms: N_7  and  C_8
REMARK    8  A    between atoms: C_8  and  C_9
REMARK                            x       y       z     vdW  Elec       q    Type
REMARK                         _______ _______ _______ _____ _____    ______ ____
ROOT
ATOM      1  C   UNL     1       5.304   4.339  17.994  0.00  0.00    +0.000 A 
ATOM      2  C   UNL     1       6.326   5.238  18.334  0.00  0.00    +0.000 A 
ATOM      3  C   UNL     1       7.213   5.739  17.375  0.00  0.00    +0.000 A 
ATOM      4  C   UNL     1       7.057   5.296  16.058  0.00  0.00    +0.000 A 
ATOM      5  N   UNL     1       7.769   5.613  14.927  0.00  0.00    +0.000 N 
ATOM      6  C   UNL     1       7.280   4.942  13.830  0.00  0.00    +0.000 A 
ATOM      7  C   UNL     1       7.699   4.964  12.496  0.00  0.00    +0.000 A 
ATOM      8  C   UNL     1       7.001   4.167  11.585  0.00  0.00    +0.000 A 
ATOM      9  C   UNL     1       5.927   3.380  11.994  0.00  0.00    +0.000 A 
ATOM     10  C   UNL     1       5.520   3.371  13.332  0.00  0.00    +0.000 A 
ATOM     11  C   UNL     1       6.208   4.168  14.273  0.00  0.00    +0.000 A 
ATOM     12  C   UNL     1       6.065   4.394  15.677  0.00  0.00    +0.000 A 
ATOM     13  C   UNL     1       5.177   3.913  16.661  0.00  0.00    +0.000 A 
ATOM     14  H   UNL     1       8.549   6.255  14.902  0.00  0.00    +0.000 HD
ENDROOT
BRANCH   1  15
ATOM     15  C   UNL     1       4.348   3.824  19.045  0.00  0.00    +0.000 C 
BRANCH  15  16
ATOM     16  N   UNL     1       4.653   2.439  19.404  0.00  0.00    +0.000 NA
ATOM     17  H   UNL     1       5.623   2.243  19.161  0.00  0.00    +0.000 HD
BRANCH  16  18
ATOM     18  C   UNL     1       3.784   1.511  18.682  0.00  0.00    +0.000 C 
BRANCH  18  19
ATOM     19  C   UNL     1       2.459   2.208  18.363  0.00  0.00    +0.000 C 
BRANCH  19  20
ATOM     20  C   UNL     1       1.467   2.131  19.529  0.00  0.00    +0.000 C 
BRANCH  20  22
ATOM     21  C   UNL     1       0.942   4.328  20.449  0.00  0.00    +0.000 C 
ATOM     22  N   UNL     1       1.726   3.103  20.608  0.00  0.00    +0.000 NA
ATOM     23  C   UNL     1       1.442   2.495  21.911  0.00  0.00    +0.000 C 
ENDBRANCH  20  22
ENDBRANCH  19  20
ENDBRANCH  18  19
ENDBRANCH  16  18
ENDBRANCH  15  16
ENDBRANCH   1  15
TORSDOF 6
ENDMDL
MODEL 3
REMARK VINA RESULT:      -7.2      2.447      7.047
REMARK  Name = 
REMARK  8 active torsions:
REMARK  status: ('A' for Active; 'I' for Inactive)
REMARK    1  A    between atoms: C_1  and  N_2
REMARK    2  A    between atoms: N_2  and  C_3
REMARK    3  A    between atoms: N_2  and  C_4
REMARK    4  A    between atoms: C_4  and  C_5
REMARK    5  A    between atoms: C_5  and  C_6
REMARK    6  A    between atoms: C_6  and  N_7
REMARK    7  A    between atoms: N_7  and  C_8
REMARK    8  A    between atoms: C_8  and  C_9
REMARK                            x       y       z     vdW  Elec       q    Type
REMARK                         _______ _______ _______ _____ _____    ______ ____
ROOT
ATOM      1  C   UNL     1       3.370   4.139  18.268  0.00  0.00    +0.000 A 
ATOM      2  C   UNL     1       3.131   3.728  19.588  0.00  0.00    +0.000 A 
ATOM      3  C   UNL     1       2.576   4.592  20.538  0.00  0.00    +0.000 A 
ATOM      4  C   UNL     1       2.283   5.897  20.129  0.00  0.00    +0.000 A 
ATOM      5  N   UNL     1       1.742   6.944  20.834  0.00  0.00    +0.000 N 
ATOM      6  C   UNL     1       1.626   8.064  20.044  0.00  0.00    +0.000 A 
ATOM      7  C   UNL     1       1.135   9.338  20.348  0.00  0.00    +0.000 A 
ATOM      8  C   UNL     1       1.138  10.293  19.328  0.00  0.00    +0.000 A 
ATOM      9  C   UNL     1       1.611   9.984  18.055  0.00  0.00    +0.000 A 
ATOM     10  C   UNL     1       2.097   8.705  17.768  0.00  0.00    +0.000 A 
ATOM     11  C   UNL     1       2.105   7.721  18.781  0.00  0.00    +0.000 A 
ATOM     12  C   UNL     1       2.516   6.353  18.834  0.00  0.00    +0.000 A 
ATOM     13  C   UNL     1       3.065   5.459  17.892  0.00  0.00    +0.000 A 
ATOM     14  H   UNL     1       1.465   6.899  21.805  0.00  0.00    +0.000 HD
ENDROOT
BRANCH   1  15
ATOM     15  C   UNL     1       3.955   3.182  17.255  0.00  0.00    +0.000 C 
BRANCH  15  16
ATOM     16  N   UNL     1       5.391   3.403  17.088  0.00  0.00    +0.000 NA
ATOM     17  H   UNL     1       5.691   4.122  17.744  0.00  0.00    +0.000 HD
BRANCH  16  18
ATOM     18  C   UNL     1       5.695   3.843  15.727  0.00  0.00    +0.000 C 
BRANCH  18  19
ATOM     19  C   UNL     1       6.849   4.848  15.770  0.00  0.00    +0.000 C 
BRANCH  19  20
ATOM     20  C   UNL     1       7.542   4.878  17.138  0.00  0.00    +0.000 C 
BRANCH  20  22
ATOM     21  C   UNL     1       7.448   5.699  19.433  0.00  0.00    +0.000 C 
ATOM     22  N   UNL     1       7.040   5.927  18.045  0.00  0.00    +0.000 NA
ATOM     23  C   UNL     1       7.506   7.242  17.599  0.00  0.00    +0.000 C 
ENDBRANCH  20  22
ENDBRANCH  19  20
ENDBRANCH  18  19
ENDBRANCH  16  18
ENDBRANCH  15  16
ENDBRANCH   1  15
TORSDOF 6
ENDMDL
MODEL 4
REMARK VINA RESULT:      -7.1      1.203      1.469
REMARK  Name = 
REMARK  8 active torsions:
REMARK  status: ('A' for Active; 'I' for Inactive)
REMARK    1  A    between atoms: C_1  and  N_2
REMARK    2  A    between atoms: N_2  and  C_3
REMARK    3  A    between atoms: N_2  and  C_4
REMARK    4  A    between atoms: C_4  and  C_5
REMARK    5  A    between atoms: C_5  and  C_6
REMARK    6  A    between atoms: C_6  and  N_7
REMARK    7  A    between atoms: N_7  and  C_8
REMARK    8  A    between atoms: C_8  and  C_9
REMARK                            x       y       z     vdW  Elec       q    Type
REMARK                         _______ _______ _______ _____ _____    ______ ____
ROOT
ATOM      1  C   UNL     1       4.512   5.872  17.718  0.00  0.00    +0.000 A 
ATOM      2  C   UNL     1       5.734   6.446  18.097  0.00  0.00    +0.000 A 
ATOM      3  C   UNL     1       6.860   6.392  17.269  0.00  0.00    +0.000 A 
ATOM      4  C   UNL     1       6.731   5.724  16.048  0.00  0.00    +0.000 A 
ATOM      5  N   UNL     1       7.652   5.517  15.050  0.00  0.00    +0.000 N 
ATOM      6  C   UNL     1       7.105   4.798  14.013  0.00  0.00    +0.000 A 
ATOM      7  C   UNL     1       7.676   4.367  12.812  0.00  0.00    +0.000 A 
ATOM      8  C   UNL     1       6.865   3.644  11.932  0.00  0.00    +0.000 A 
ATOM      9  C   UNL     1       5.536   3.366  12.243  0.00  0.00    +0.000 A 
ATOM     10  C   UNL     1       4.981   3.807  13.448  0.00  0.00    +0.000 A 
ATOM     11  C   UNL     1       5.778   4.539  14.354  0.00  0.00    +0.000 A 
ATOM     12  C   UNL     1       5.542   5.126  15.636  0.00  0.00    +0.000 A 
ATOM     13  C   UNL     1       4.418   5.205  16.484  0.00  0.00    +0.000 A 
ATOM     14  H   UNL     1       8.607   5.848  15.074  0.00  0.00    +0.000 HD
ENDROOT
BRANCH   1  15
ATOM     15  C   UNL     1       3.305   5.957  18.623  0.00  0.00    +0.000 C 
BRANCH  15  16
ATOM     16  N   UNL     1       3.592   5.394  19.942  0.00  0.00    +0.000 NA
ATOM     17  H   UNL     1       4.112   4.526  19.822  0.00  0.00    +0.000 HD
BRANCH  16  18
ATOM     18  C   UNL     1       2.354   5.111  20.669  0.00  0.00    +0.000 C 
BRANCH  18  19
ATOM     19  C   UNL     1       1.575   4.022  19.928  0.00  0.00    +0.000 C 
BRANCH  19  20
ATOM     20  C   UNL     1       2.235   2.644  20.060  0.00  0.00    +0.000 C 
BRANCH  20  22
ATOM     21  C   UNL     1       4.565   1.951  20.257  0.00  0.00    +0.000 C 
ATOM     22  N   UNL     1       3.542   2.533  19.386  0.00  0.00    +0.000 NA
ATOM     23  C   UNL     1       3.412   1.732  18.166  0.00  0.00    +0.000 C 
ENDBRANCH  20  22
ENDBRANCH  19  20
ENDBRANCH  18  19
ENDBRANCH  16  18
ENDBRANCH  15  16
ENDBRANCH   1  15
TORSDOF 6
ENDMDL
MODEL 5
REMARK VINA RESULT:      -7.0      1.117      1.828
REMARK  Name = 
REMARK  8 active torsions:
REMARK  status: ('A' for Active; 'I' for Inactive)
REMARK    1  A    between atoms: C_1  and  N_2
REMARK    2  A    between atoms: N_2  and  C_3
REMARK    3  A    between atoms: N_2  and  C_4
REMARK    4  A    between atoms: C_4  and  C_5
REMARK    5  A    between atoms: C_5  and  C_6
REMARK    6  A    between atoms: C_6  and  N_7
REMARK    7  A    between atoms: N_7  and  C_8
REMARK    8  A    between atoms: C_8  and  C_9
REMARK                            x       y       z     vdW  Elec       q    Type
REMARK                         _______ _______ _______ _____ _____    ______ ____
ROOT
ATOM      1  C   UNL     1       5.477   4.369  18.222  0.00  0.00    +0.000 A 
ATOM      2  C   UNL     1       6.487   5.299  18.508  0.00  0.00    +0.000 A 
ATOM      3  C   UNL     1       7.319   5.812  17.508  0.00  0.00    +0.000 A 
ATOM      4  C   UNL     1       7.122   5.348  16.204  0.00  0.00    +0.000 A 
ATOM      5  N   UNL     1       7.778   5.670  15.041  0.00  0.00    +0.000 N 
ATOM      6  C   UNL     1       7.264   4.971  13.974  0.00  0.00    +0.000 A 
ATOM      7  C   UNL     1       7.627   4.988  12.623  0.00  0.00    +0.000 A 
ATOM      8  C   UNL     1       6.915   4.160  11.751  0.00  0.00    +0.000 A 
ATOM      9  C   UNL     1       5.881   3.349  12.213  0.00  0.00    +0.000 A 
ATOM     10  C   UNL     1       5.530   3.346  13.567  0.00  0.00    +0.000 A 
ATOM     11  C   UNL     1       6.233   4.174  14.469  0.00  0.00    +0.000 A 
ATOM     12  C   UNL     1       6.141   4.414  15.875  0.00  0.00    +0.000 A 
ATOM     13  C   UNL     1       5.308   3.921  16.900  0.00  0.00    +0.000 A 
ATOM     14  H   UNL     1       8.538   6.333  14.977  0.00  0.00    +0.000 HD
ENDROOT
BRANCH   1  15
ATOM     15  C   UNL     1       4.580   3.841  19.317  0.00  0.00    +0.000 C 
BRANCH  15  16
ATOM     16  N   UNL     1       4.820   2.418  19.557  0.00  0.00    +0.000 NA
ATOM     17  H   UNL     1       4.430   1.884  18.782  0.00  0.00    +0.000 HD
BRANCH  16  18
ATOM     18  C   UNL     1       4.184   1.985  20.801  0.00  0.00    +0.000 C 
BRANCH  18  19
ATOM     19  C   UNL     1       2.994   2.899  21.102  0.00  0.00    +0.000 C 
BRANCH  19  20
ATOM     20  C   UNL     1       1.697   2.394  20.457  0.00  0.00    +0.000 C 
BRANCH  20  22
ATOM     21  C   UNL     1       1.143   4.769  20.417  0.00  0.00    +0.000 C 
ATOM     22  N   UNL     1       0.882   3.453  19.832  0.00  0.00    +0.000 NA
ATOM     23  C   UNL     1       1.130   3.492  18.388  0.00  0.00    +0.000 C 
ENDBRANCH  20  22
ENDBRANCH  19  20
ENDBRANCH  18  19
ENDBRANCH  16  18
ENDBRANCH  15  16
ENDBRANCH   1  15
TORSDOF 6
ENDMDL
MODEL 6
REMARK VINA RESULT:      -7.0      3.393      7.798
REMARK  Name = 
REMARK  8 active torsions:
REMARK  status: ('A' for Active; 'I' for Inactive)
REMARK    1  A    between atoms: C_1  and  N_2
REMARK    2  A    between atoms: N_2  and  C_3
REMARK    3  A    between atoms: N_2  and  C_4
REMARK    4  A    between atoms: C_4  and  C_5
REMARK    5  A    between atoms: C_5  and  C_6
REMARK    6  A    between atoms: C_6  and  N_7
REMARK    7  A    between atoms: N_7  and  C_8
REMARK    8  A    between atoms: C_8  and  C_9
REMARK                            x       y       z     vdW  Elec       q    Type
REMARK                         _______ _______ _______ _____ _____    ______ ____
ROOT
ATOM      1  C   UNL     1       6.420   5.672  17.836  0.00  0.00    +0.000 A 
ATOM      2  C   UNL     1       6.303   5.119  16.552  0.00  0.00    +0.000 A 
ATOM      3  C   UNL     1       5.195   4.349  16.181  0.00  0.00    +0.000 A 
ATOM      4  C   UNL     1       4.209   4.132  17.148  0.00  0.00    +0.000 A 
ATOM      5  N   UNL     1       3.031   3.428  17.069  0.00  0.00    +0.000 N 
ATOM      6  C   UNL     1       2.353   3.463  18.265  0.00  0.00    +0.000 A 
ATOM      7  C   UNL     1       1.131   2.888  18.628  0.00  0.00    +0.000 A 
ATOM      8  C   UNL     1       0.681   3.096  19.935  0.00  0.00    +0.000 A 
ATOM      9  C   UNL     1       1.424   3.849  20.840  0.00  0.00    +0.000 A 
ATOM     10  C   UNL     1       2.644   4.418  20.460  0.00  0.00    +0.000 A 
ATOM     11  C   UNL     1       3.121   4.224  19.146  0.00  0.00    +0.000 A 
ATOM     12  C   UNL     1       4.289   4.648  18.440  0.00  0.00    +0.000 A 
ATOM     13  C   UNL     1       5.411   5.431  18.785  0.00  0.00    +0.000 A 
ATOM     14  H   UNL     1       2.706   2.948  16.242  0.00  0.00    +0.000 HD
ENDROOT
BRANCH   1  15
ATOM     15  C   UNL     1       7.619   6.513  18.208  0.00  0.00    +0.000 C 
BRANCH  15  16
ATOM     16  N   UNL     1       7.906   7.509  17.176  0.00  0.00    +0.000 NA
ATOM     17  H   UNL     1       8.899   7.472  16.951  0.00  0.00    +0.000 HD
BRANCH  16  18
ATOM     18  C   UNL     1       7.574   8.855  17.644  0.00  0.00    +0.000 C 
BRANCH  18  19
ATOM     19  C   UNL     1       8.760   9.420  18.429  0.00  0.00    +0.000 C 
BRANCH  19  20
ATOM     20  C   UNL     1       8.916  10.934  18.235  0.00  0.00    +0.000 C 
BRANCH  20  22
ATOM     21  C   UNL     1      10.408  12.689  17.435  0.00  0.00    +0.000 C 
ATOM     22  N   UNL     1      10.313  11.382  18.087  0.00  0.00    +0.000 NA
ATOM     23  C   UNL     1      10.967  11.431  19.397  0.00  0.00    +0.000 C 
ENDBRANCH  20  22
ENDBRANCH  19  20
ENDBRANCH  18  19
ENDBRANCH  16  18
ENDBRANCH  15  16
ENDBRANCH   1  15
TORSDOF 6
ENDMDL
MODEL 7
REMARK VINA RESULT:      -7.0      1.183      1.331
REMARK  Name = 
REMARK  8 active torsions:
REMARK  status: ('A' for Active; 'I' for Inactive)
REMARK    1  A    between atoms: C_1  and  N_2
REMARK    2  A    between atoms: N_2  and  C_3
REMARK    3  A    between atoms: N_2  and  C_4
REMARK    4  A    between atoms: C_4  and  C_5
REMARK    5  A    between atoms: C_5  and  C_6
REMARK    6  A    between atoms: C_6  and  N_7
REMARK    7  A    between atoms: N_7  and  C_8
REMARK    8  A    between atoms: C_8  and  C_9
REMARK                            x       y       z     vdW  Elec       q    Type
REMARK                         _______ _______ _______ _____ _____    ______ ____
ROOT
ATOM      1  C   UNL     1       4.922   5.586  17.810  0.00  0.00    +0.000 A 
ATOM      2  C   UNL     1       6.135   6.244  18.058  0.00  0.00    +0.000 A 
ATOM      3  C   UNL     1       7.155   6.293  17.101  0.00  0.00    +0.000 A 
ATOM      4  C   UNL     1       6.928   5.641  15.885  0.00  0.00    +0.000 A 
ATOM      5  N   UNL     1       7.735   5.526  14.780  0.00  0.00    +0.000 N 
ATOM      6  C   UNL     1       7.121   4.789  13.794  0.00  0.00    +0.000 A 
ATOM      7  C   UNL     1       7.574   4.427  12.521  0.00  0.00    +0.000 A 
ATOM      8  C   UNL     1       6.718   3.663  11.722  0.00  0.00    +0.000 A 
ATOM      9  C   UNL     1       5.460   3.279  12.180  0.00  0.00    +0.000 A 
ATOM     10  C   UNL     1       5.023   3.651  13.455  0.00  0.00    +0.000 A 
ATOM     11  C   UNL     1       5.868   4.423  14.282  0.00  0.00    +0.000 A 
ATOM     12  C   UNL     1       5.745   4.964  15.599  0.00  0.00    +0.000 A 
ATOM     13  C   UNL     1       4.729   4.939  16.577  0.00  0.00    +0.000 A 
ATOM     14  H   UNL     1       8.659   5.928  14.700  0.00  0.00    +0.000 HD
ENDROOT
BRANCH   1  15
ATOM     15  C   UNL     1       3.829   5.561  18.854  0.00  0.00    +0.000 C 
BRANCH  15  16
ATOM     16  N   UNL     1       2.507   5.481  18.233  0.00  0.00    +0.000 NA
ATOM     17  H   UNL     1       2.165   6.426  18.066  0.00  0.00    +0.000 HD
BRANCH  16  18
ATOM     18  C   UNL     1       1.565   4.779  19.104  0.00  0.00    +0.000 C 
BRANCH  18  19
ATOM     19  C   UNL     1       1.416   3.334  18.623  0.00  0.00    +0.000 C 
BRANCH  19  20
ATOM     20  C   UNL     1       1.938   2.323  19.650  0.00  0.00    +0.000 C 
BRANCH  20  22
ATOM     21  C   UNL     1       3.483   1.801  17.836  0.00  0.00    +0.000 C 
ATOM     22  N   UNL     1       3.207   1.676  19.269  0.00  0.00    +0.000 NA
ATOM     23  C   UNL     1       4.314   2.248  20.040  0.00  0.00    +0.000 C 
ENDBRANCH  20  22
ENDBRANCH  19  20
ENDBRANCH  18  19
ENDBRANCH  16  18
ENDBRANCH  15  16
ENDBRANCH   1  15
TORSDOF 6
ENDMDL
MODEL 8
REMARK VINA RESULT:      -7.0      4.469      8.270
REMARK  Name = 
REMARK  8 active torsions:
REMARK  status: ('A' for Active; 'I' for Inactive)
REMARK    1  A    between atoms: C_1  and  N_2
REMARK    2  A    between atoms: N_2  and  C_3
REMARK    3  A    between atoms: N_2  and  C_4
REMARK    4  A    between atoms: C_4  and  C_5
REMARK    5  A    between atoms: C_5  and  C_6
REMARK    6  A    between atoms: C_6  and  N_7
REMARK    7  A    between atoms: N_7  and  C_8
REMARK    8  A    between atoms: C_8  and  C_9
REMARK                            x       y       z     vdW  Elec       q    Type
REMARK                         _______ _______ _______ _____ _____    ______ ____
ROOT
ATOM      1  C   UNL     1       2.460   7.350  19.088  0.00  0.00    +0.000 A 
ATOM      2  C   UNL     1       2.404   8.147  17.936  0.00  0.00    +0.000 A 
ATOM      3  C   UNL     1       1.702   9.357  17.911  0.00  0.00    +0.000 A 
ATOM      4  C   UNL     1       1.035   9.739  19.079  0.00  0.00    +0.000 A 
ATOM      5  N   UNL     1       0.280  10.856  19.342  0.00  0.00    +0.000 N 
ATOM      6  C   UNL     1      -0.202  10.835  20.630  0.00  0.00    +0.000 A 
ATOM      7  C   UNL     1      -1.005  11.756  21.309  0.00  0.00    +0.000 A 
ATOM      8  C   UNL     1      -1.342  11.467  22.635  0.00  0.00    +0.000 A 
ATOM      9  C   UNL     1      -0.892  10.304  23.254  0.00  0.00    +0.000 A 
ATOM     10  C   UNL     1      -0.088   9.394  22.559  0.00  0.00    +0.000 A 
ATOM     11  C   UNL     1       0.267   9.662  21.220  0.00  0.00    +0.000 A 
ATOM     12  C   UNL     1       1.051   8.973  20.243  0.00  0.00    +0.000 A 
ATOM     13  C   UNL     1       1.775   7.763  20.245  0.00  0.00    +0.000 A 
ATOM     14  H   UNL     1       0.102  11.596  18.678  0.00  0.00    +0.000 HD
ENDROOT
BRANCH   1  15
ATOM     15  C   UNL     1       3.238   6.055  19.095  0.00  0.00    +0.000 C 
BRANCH  15  16
ATOM     16  N   UNL     1       2.923   5.242  17.921  0.00  0.00    +0.000 NA
ATOM     17  H   UNL     1       2.767   5.860  17.126  0.00  0.00    +0.000 HD
BRANCH  16  18
ATOM     18  C   UNL     1       1.718   4.444  18.147  0.00  0.00    +0.000 C 
BRANCH  18  19
ATOM     19  C   UNL     1       2.021   2.977  17.834  0.00  0.00    +0.000 C 
BRANCH  19  20
ATOM     20  C   UNL     1       2.228   2.143  19.103  0.00  0.00    +0.000 C 
BRANCH  20  22
ATOM     21  C   UNL     1       2.427   2.724  21.464  0.00  0.00    +0.000 C 
ATOM     22  N   UNL     1       3.041   2.810  20.138  0.00  0.00    +0.000 NA
ATOM     23  C   UNL     1       4.385   2.228  20.173  0.00  0.00    +0.000 C 
ENDBRANCH  20  22
ENDBRANCH  19  20
ENDBRANCH  18  19
ENDBRANCH  16  18
ENDBRANCH  15  16
ENDBRANCH   1  15
TORSDOF 6
ENDMDL
MODEL 9
REMARK VINA RESULT:      -7.0      1.447      2.683
REMARK  Name = 
REMARK  8 active torsions:
REMARK  status: ('A' for Active; 'I' for Inactive)
REMARK    1  A    between atoms: C_1  and  N_2
REMARK    2  A    between atoms: N_2  and  C_3
REMARK    3  A    between atoms: N_2  and  C_4
REMARK    4  A    between atoms: C_4  and  C_5
REMARK    5  A    between atoms: C_5  and  C_6
REMARK    6  A    between atoms: C_6  and  N_7
REMARK    7  A    between atoms: N_7  and  C_8
REMARK    8  A    between atoms: C_8  and  C_9
REMARK                            x       y       z     vdW  Elec       q    Type
REMARK                         _______ _______ _______ _____ _____    ______ ____
ROOT
ATOM      1  C   UNL     1       4.666   4.009  18.069  0.00  0.00    +0.000 A 
ATOM      2  C   UNL     1       5.654   4.822  18.642  0.00  0.00    +0.000 A 
ATOM      3  C   UNL     1       6.681   5.383  17.874  0.00  0.00    +0.000 A 
ATOM      4  C   UNL     1       6.698   5.088  16.508  0.00  0.00    +0.000 A 
ATOM      5  N   UNL     1       7.570   5.491  15.526  0.00  0.00    +0.000 N 
ATOM      6  C   UNL     1       7.222   4.960  14.306  0.00  0.00    +0.000 A 
ATOM      7  C   UNL     1       7.825   5.105  13.053  0.00  0.00    +0.000 A 
ATOM      8  C   UNL     1       7.240   4.437  11.973  0.00  0.00    +0.000 A 
ATOM      9  C   UNL     1       6.098   3.659  12.142  0.00  0.00    +0.000 A 
ATOM     10  C   UNL     1       5.507   3.526  13.403  0.00  0.00    +0.000 A 
ATOM     11  C   UNL     1       6.078   4.190  14.510  0.00  0.00    +0.000 A 
ATOM     12  C   UNL     1       5.746   4.274  15.898  0.00  0.00    +0.000 A 
ATOM     13  C   UNL     1       4.715   3.730  16.692  0.00  0.00    +0.000 A 
ATOM     14  H   UNL     1       8.364   6.098  15.679  0.00  0.00    +0.000 HD
ENDROOT
BRANCH   1  15
ATOM     15  C   UNL     1       3.558   3.427  18.917  0.00  0.00    +0.000 C 
BRANCH  15  16
ATOM     16  N   UNL     1       2.454   4.375  19.067  0.00  0.00    +0.000 NA
ATOM     17  H   UNL     1       2.562   5.118  18.378  0.00  0.00    +0.000 HD
BRANCH  16  18
ATOM     18  C   UNL     1       2.452   4.964  20.406  0.00  0.00    +0.000 C 
BRANCH  18  19
ATOM     19  C   UNL     1       1.592   6.230  20.396  0.00  0.00    +0.000 C 
BRANCH  19  20
ATOM     20  C   UNL     1       2.333   7.430  19.795  0.00  0.00    +0.000 C 
BRANCH  20  22
ATOM     21  C   UNL     1       1.521   8.807  17.952  0.00  0.00    +0.000 C 
ATOM     22  N   UNL     1       2.186   7.560  18.333  0.00  0.00    +0.000 NA
ATOM     23  C   UNL     1       3.498   7.478  17.687  0.00  0.00    +0.000 C 
ENDBRANCH  20  22
ENDBRANCH  19  20
ENDBRANCH  18  19
ENDBRANCH  16  18
ENDBRANCH  15  16
ENDBRANCH   1  15
TORSDOF 6
ENDMDL
