MODEL 1
REMARK VINA RESULT:      -6.9      0.000      0.000
REMARK  Name = 
REMARK  10 active torsions:
REMARK  status: ('A' for Active; 'I' for Inactive)
REMARK    1  A    between atoms: C_1  and  C_2
REMARK    2  A    between atoms: C_2  and  C_3
REMARK    3  A    between atoms: C_2  and  C_4
REMARK    4  A    between atoms: C_6  and  S_7
REMARK    5  A    between atoms: S_7  and  C_8
REMARK    6  A    between atoms: C_8  and  C_9
REMARK    7  A    between atoms: C_15  and  C_16
REMARK    8  A    between atoms: N_20  and  C_21
REMARK    9  A    between atoms: C_21  and  C_22
REMARK   10  A    between atoms: C_22  and  O_24
REMARK                            x       y       z     vdW  Elec       q    Type
REMARK                         _______ _______ _______ _____ _____    ______ ____
ROOT
ATOM      1  C   UNL     1       6.166   5.700  17.704  0.00  0.00    +0.000 A 
ATOM      2  N   UNL     1       5.251   6.147  18.501  0.00  0.00    +0.000 NA
ATOM      3  C   UNL     1       3.999   5.600  18.497  0.00  0.00    +0.000 A 
ATOM      4  C   UNL     1       3.645   4.610  17.645  0.00  0.00    +0.000 A 
ATOM      5  C   UNL     1       4.657   4.163  16.670  0.00  0.00    +0.000 A 
ATOM      6  O   UNL     1       4.366   3.453  15.708  0.00  0.00    +0.000 OA
ATOM      7  N   UNL     1       5.945   4.655  16.841  0.00  0.00    +0.000 N 
ENDROOT
BRANCH   1   9
ATOM      8  C   UNL     1       7.426   7.879  17.512  0.00  0.00    +0.000 C 
ATOM      9  C   UNL     1       7.539   6.376  17.804  0.00  0.00    +0.000 C 
ATOM     10  C   UNL     1       8.115   6.166  19.202  0.00  0.00    +0.000 C 
ENDBRANCH   1   9
BRANCH   4  11
ATOM     11  C   UNL     1       2.203   4.134  17.602  0.00  0.00    +0.000 C 
ATOM     12  N   UNL     1       1.005   3.738  17.566  0.00  0.00    +0.000 NA
ENDBRANCH   4  11
BRANCH   3  13
ATOM     13  S   UNL     1       2.826   6.242  19.672  0.00  0.00    +0.000 S 
BRANCH  13  14
ATOM     14  C   UNL     1       2.323   7.817  18.894  0.00  0.00    +0.000 C 
BRANCH  14  15
ATOM     15  C   UNL     1       1.409   8.638  19.783  0.00  0.00    +0.000 A 
ATOM     16  C   UNL     1       1.255   8.319  21.142  0.00  0.00    +0.000 A 
ATOM     17  C   UNL     1       0.406   9.072  21.961  0.00  0.00    +0.000 A 
ATOM     18  C   UNL     1      -0.300  10.151  21.437  0.00  0.00    +0.000 A 
ATOM     19  C   UNL     1      -0.150  10.484  20.092  0.00  0.00    +0.000 A 
ATOM     20  C   UNL     1       0.699   9.733  19.270  0.00  0.00    +0.000 A 
ENDBRANCH  14  15
ENDBRANCH  13  14
ENDBRANCH   3  13
BRANCH   7  21
ATOM     21  C   UNL     1       6.996   4.076  15.995  0.00  0.00    +0.000 C 
BRANCH  21  22
ATOM     22  C   UNL     1       7.066   4.705  14.614  0.00  0.00    +0.000 C 
ATOM     23  O   UNL     1       7.832   5.614  14.333  0.00  0.00    +0.000 OA
BRANCH  22  24
ATOM     24  O   UNL     1       6.250   4.139  13.698  0.00  0.00    +0.000 OA
ATOM     25  H   UNL     1       5.343   4.518  13.675  0.00  0.00    +0.000 HD
ENDBRANCH  22  24
ENDBRANCH  21  22
ENDBRANCH   7  21
TORSDOF 8
ENDMDL
MODEL 2
REMARK VINA RESULT:      -6.6      3.955      7.590
REMARK  Name = 
REMARK  10 active torsions:
REMARK  status: ('A' for Active; 'I' for Inactive)
REMARK    1  A    between atoms: C_1  and  C_2
REMARK    2  A    between atoms: C_2  and  C_3
REMARK    3  A    between atoms: C_2  and  C_4
REMARK    4  A    between atoms: C_6  and  S_7
REMARK    5  A    between atoms: S_7  and  C_8
REMARK    6  A    between atoms: C_8  and  C_9
REMARK    7  A    between atoms: C_15  and  C_16
REMARK    8  A    between atoms: N_20  and  C_21
REMARK    9  A    between atoms: C_21  and  C_22
REMARK   10  A    between atoms: C_22  and  O_24
REMARK                            x       y       z     vdW  Elec       q    Type
REMARK                         _______ _______ _______ _____ _____    ______ ____
ROOT
ATOM      1  C   UNL     1       3.493   3.781  19.306  0.00  0.00    +0.000 A 
ATOM      2  N   UNL     1       4.026   4.178  18.196  0.00  0.00    +0.000 NA
ATOM      3  C   UNL     1       3.918   5.482  17.802  0.00  0.00    +0.000 A 
ATOM      4  C   UNL     1       3.224   6.398  18.516  0.00  0.00    +0.000 A 
ATOM      5  C   UNL     1       2.535   5.928  19.731  0.00  0.00    +0.000 A 
ATOM      6  O   UNL     1       1.691   6.614  20.308  0.00  0.00    +0.000 OA
ATOM      7  N   UNL     1       2.821   4.634  20.147  0.00  0.00    +0.000 N 
ENDROOT
BRANCH   1   9
ATOM      8  C   UNL     1       3.648   1.432  18.394  0.00  0.00    +0.000 C 
ATOM      9  C   UNL     1       3.689   2.302  19.658  0.00  0.00    +0.000 C 
ATOM     10  C   UNL     1       5.029   2.115  20.367  0.00  0.00    +0.000 C 
ENDBRANCH   1   9
BRANCH   4  11
ATOM     11  C   UNL     1       3.034   7.800  17.959  0.00  0.00    +0.000 C 
ATOM     12  N   UNL     1       2.876   8.964  17.498  0.00  0.00    +0.000 NA
ENDBRANCH   4  11
BRANCH   3  13
ATOM     13  S   UNL     1       4.737   5.947  16.291  0.00  0.00    +0.000 S 
BRANCH  13  14
ATOM     14  C   UNL     1       5.842   4.521  15.997  0.00  0.00    +0.000 C 
BRANCH  14  15
ATOM     15  C   UNL     1       6.285   4.419  14.550  0.00  0.00    +0.000 A 
ATOM     16  C   UNL     1       5.613   3.572  13.652  0.00  0.00    +0.000 A 
ATOM     17  C   UNL     1       6.027   3.473  12.319  0.00  0.00    +0.000 A 
ATOM     18  C   UNL     1       7.113   4.214  11.864  0.00  0.00    +0.000 A 
ATOM     19  C   UNL     1       7.783   5.065  12.741  0.00  0.00    +0.000 A 
ATOM     20  C   UNL     1       7.372   5.167  14.075  0.00  0.00    +0.000 A 
ENDBRANCH  14  15
ENDBRANCH  13  14
ENDBRANCH   3  13
BRANCH   7  21
ATOM     21  C   UNL     1       2.288   4.220  21.452  0.00  0.00    +0.000 C 
BRANCH  21  22
ATOM     22  C   UNL     1       1.282   3.086  21.353  0.00  0.00    +0.000 C 
ATOM     23  O   UNL     1       1.252   2.151  22.138  0.00  0.00    +0.000 OA
BRANCH  22  24
ATOM     24  O   UNL     1       0.379   3.223  20.357  0.00  0.00    +0.000 OA
ATOM     25  H   UNL     1      -0.335   2.547  20.363  0.00  0.00    +0.000 HD
ENDBRANCH  22  24
ENDBRANCH  21  22
ENDBRANCH   7  21
TORSDOF 8
ENDMDL
MODEL 3
REMARK VINA RESULT:      -6.6      0.774      1.310
REMARK  Name = 
REMARK  10 active torsions:
REMARK  status: ('A' for Active; 'I' for Inactive)
REMARK    1  A    between atoms: C_1  and  C_2
REMARK    2  A    between atoms: C_2  and  C_3
REMARK    3  A    between atoms: C_2  and  C_4
REMARK    4  A    between atoms: C_6  and  S_7
REMARK    5  A    between atoms: S_7  and  C_8
REMARK    6  A    between atoms: C_8  and  C_9
REMARK    7  A    between atoms: C_15  and  C_16
REMARK    8  A    between atoms: N_20  and  C_21
REMARK    9  A    between atoms: C_21  and  C_22
REMARK   10  A    between atoms: C_22  and  O_24
REMARK                            x       y       z     vdW  Elec       q    Type
REMARK                         _______ _______ _______ _____ _____    ______ ____
ROOT
ATOM      1  C   UNL     1       6.129   5.989  17.606  0.00  0.00    +0.000 A 
ATOM      2  N   UNL     1       5.178   6.521  18.302  0.00  0.00    +0.000 NA
ATOM      3  C   UNL     1       3.933   5.959  18.319  0.00  0.00    +0.000 A 
ATOM      4  C   UNL     1       3.623   4.863  17.589  0.00  0.00    +0.000 A 
ATOM      5  C   UNL     1       4.678   4.309  16.720  0.00  0.00    +0.000 A 
ATOM      6  O   UNL     1       4.433   3.477  15.847  0.00  0.00    +0.000 OA
ATOM      7  N   UNL     1       5.953   4.838  16.877  0.00  0.00    +0.000 N 
ENDROOT
BRANCH   1   9
ATOM      8  C   UNL     1       7.326   8.208  17.499  0.00  0.00    +0.000 C 
ATOM      9  C   UNL     1       7.490   6.692  17.672  0.00  0.00    +0.000 C 
ATOM     10  C   UNL     1       8.157   6.398  19.014  0.00  0.00    +0.000 C 
ENDBRANCH   1   9
BRANCH   4  11
ATOM     11  C   UNL     1       2.188   4.364  17.552  0.00  0.00    +0.000 C 
ATOM     12  N   UNL     1       0.997   3.948  17.520  0.00  0.00    +0.000 NA
ENDBRANCH   4  11
BRANCH   3  13
ATOM     13  S   UNL     1       2.705   6.729  19.355  0.00  0.00    +0.000 S 
BRANCH  13  14
ATOM     14  C   UNL     1       1.918   7.912  18.205  0.00  0.00    +0.000 C 
BRANCH  14  15
ATOM     15  C   UNL     1       1.523   9.208  18.885  0.00  0.00    +0.000 A 
ATOM     16  C   UNL     1       1.690  10.441  18.233  0.00  0.00    +0.000 A 
ATOM     17  C   UNL     1       1.332  11.638  18.865  0.00  0.00    +0.000 A 
ATOM     18  C   UNL     1       0.804  11.621  20.151  0.00  0.00    +0.000 A 
ATOM     19  C   UNL     1       0.624  10.405  20.807  0.00  0.00    +0.000 A 
ATOM     20  C   UNL     1       0.980   9.206  20.179  0.00  0.00    +0.000 A 
ENDBRANCH  14  15
ENDBRANCH  13  14
ENDBRANCH   3  13
BRANCH   7  21
ATOM     21  C   UNL     1       7.044   4.170  16.155  0.00  0.00    +0.000 C 
BRANCH  21  22
ATOM     22  C   UNL     1       7.101   4.542  14.684  0.00  0.00    +0.000 C 
ATOM     23  O   UNL     1       7.626   5.565  14.274  0.00  0.00    +0.000 OA
BRANCH  22  24
ATOM     24  O   UNL     1       6.573   3.617  13.851  0.00  0.00    +0.000 OA
ATOM     25  H   UNL     1       6.599   2.698  14.199  0.00  0.00    +0.000 HD
ENDBRANCH  22  24
ENDBRANCH  21  22
ENDBRANCH   7  21
TORSDOF 8
ENDMDL
MODEL 4
REMARK VINA RESULT:      -6.5      0.085      1.181
REMARK  Name = 
REMARK  10 active torsions:
REMARK  status: ('A' for Active; 'I' for Inactive)
REMARK    1  A    between atoms: C_1  and  C_2
REMARK    2  A    between atoms: C_2  and  C_3
REMARK    3  A    between atoms: C_2  and  C_4
REMARK    4  A    between atoms: C_6  and  S_7
REMARK    5  A    between atoms: S_7  and  C_8
REMARK    6  A    between atoms: C_8  and  C_9
REMARK    7  A    between atoms: C_15  and  C_16
REMARK    8  A    between atoms: N_20  and  C_21
REMARK    9  A    between atoms: C_21  and  C_22
REMARK   10  A    between atoms: C_22  and  O_24
REMARK                            x       y       z     vdW  Elec       q    Type
REMARK                         _______ _______ _______ _____ _____    ______ ____
ROOT
ATOM      1  C   UNL     1       6.117   5.714  17.701  0.00  0.00    +0.000 A 
ATOM      2  N   UNL     1       5.197   6.164  18.492  0.00  0.00    +0.000 NA
ATOM      3  C   UNL     1       3.954   5.597  18.504  0.00  0.00    +0.000 A 
ATOM      4  C   UNL     1       3.613   4.584  17.674  0.00  0.00    +0.000 A 
ATOM      5  C   UNL     1       4.628   4.132  16.705  0.00  0.00    +0.000 A 
ATOM      6  O   UNL     1       4.344   3.397  15.759  0.00  0.00    +0.000 OA
ATOM      7  N   UNL     1       5.908   4.647  16.860  0.00  0.00    +0.000 N 
ENDROOT
BRANCH   1   9
ATOM      8  C   UNL     1       7.334   7.916  17.505  0.00  0.00    +0.000 C 
ATOM      9  C   UNL     1       7.479   6.413  17.781  0.00  0.00    +0.000 C 
ATOM     10  C   UNL     1       8.085   6.201  19.166  0.00  0.00    +0.000 C 
ENDBRANCH   1   9
BRANCH   4  11
ATOM     11  C   UNL     1       2.178   4.083  17.648  0.00  0.00    +0.000 C 
ATOM     12  N   UNL     1       0.987   3.667  17.627  0.00  0.00    +0.000 NA
ENDBRANCH   4  11
BRANCH   3  13
ATOM     13  S   UNL     1       2.775   6.245  19.670  0.00  0.00    +0.000 S 
BRANCH  13  14
ATOM     14  C   UNL     1       2.311   7.838  18.904  0.00  0.00    +0.000 C 
BRANCH  14  15
ATOM     15  C   UNL     1       1.397   8.663  19.789  0.00  0.00    +0.000 A 
ATOM     16  C   UNL     1       0.687   9.756  19.265  0.00  0.00    +0.000 A 
ATOM     17  C   UNL     1      -0.151  10.522  20.084  0.00  0.00    +0.000 A 
ATOM     18  C   UNL     1      -0.292  10.208  21.432  0.00  0.00    +0.000 A 
ATOM     19  C   UNL     1       0.399   9.121  21.963  0.00  0.00    +0.000 A 
ATOM     20  C   UNL     1       1.238   8.353  21.147  0.00  0.00    +0.000 A 
ENDBRANCH  14  15
ENDBRANCH  13  14
ENDBRANCH   3  13
BRANCH   7  21
ATOM     21  C   UNL     1       6.966   4.066  16.023  0.00  0.00    +0.000 C 
BRANCH  21  22
ATOM     22  C   UNL     1       7.036   4.683  14.637  0.00  0.00    +0.000 C 
ATOM     23  O   UNL     1       6.283   4.369  13.728  0.00  0.00    +0.000 OA
BRANCH  22  24
ATOM     24  O   UNL     1       7.963   5.656  14.502  0.00  0.00    +0.000 OA
ATOM     25  H   UNL     1       8.146   5.915  13.571  0.00  0.00    +0.000 HD
ENDBRANCH  22  24
ENDBRANCH  21  22
ENDBRANCH   7  21
TORSDOF 8
ENDMDL
MODEL 5
REMARK VINA RESULT:      -6.4      2.519      4.417
REMARK  Name = 
REMARK  10 active torsions:
REMARK  status: ('A' for Active; 'I' for Inactive)
REMARK    1  A    between atoms: C_1  and  C_2
REMARK    2  A    between atoms: C_2  and  C_3
REMARK    3  A    between atoms: C_2  and  C_4
REMARK    4  A    between atoms: C_6  and  S_7
REMARK    5  A    between atoms: S_7  and  C_8
REMARK    6  A    between atoms: C_8  and  C_9
REMARK    7  A    between atoms: C_15  and  C_16
REMARK    8  A    between atoms: N_20  and  C_21
REMARK    9  A    between atoms: C_21  and  C_22
REMARK   10  A    between atoms: C_22  and  O_24
REMARK                            x       y       z     vdW  Elec       q    Type
REMARK                         _______ _______ _______ _____ _____    ______ ____
ROOT
ATOM      1  C   UNL     1       2.679   4.753  19.591  0.00  0.00    +0.000 A 
ATOM      2  N   UNL     1       2.533   5.950  19.123  0.00  0.00    +0.000 NA
ATOM      3  C   UNL     1       3.503   6.514  18.344  0.00  0.00    +0.000 A 
ATOM      4  C   UNL     1       4.664   5.879  18.062  0.00  0.00    +0.000 A 
ATOM      5  C   UNL     1       4.876   4.553  18.671  0.00  0.00    +0.000 A 
ATOM      6  O   UNL     1       5.979   4.007  18.678  0.00  0.00    +0.000 OA
ATOM      7  N   UNL     1       3.785   3.985  19.317  0.00  0.00    +0.000 N 
ENDROOT
BRANCH   1   9
ATOM      8  C   UNL     1       0.649   3.253  19.619  0.00  0.00    +0.000 C 
ATOM      9  C   UNL     1       1.522   4.213  20.440  0.00  0.00    +0.000 C 
ATOM     10  C   UNL     1       2.077   3.484  21.662  0.00  0.00    +0.000 C 
ENDBRANCH   1   9
BRANCH   4  11
ATOM     11  C   UNL     1       5.756   6.610  17.297  0.00  0.00    +0.000 C 
ATOM     12  N   UNL     1       6.661   7.218  16.662  0.00  0.00    +0.000 NA
ENDBRANCH   4  11
BRANCH   3  13
ATOM     13  S   UNL     1       3.184   8.142  17.697  0.00  0.00    +0.000 S 
BRANCH  13  14
ATOM     14  C   UNL     1       1.418   8.379  18.102  0.00  0.00    +0.000 C 
BRANCH  14  15
ATOM     15  C   UNL     1       1.193   9.526  19.067  0.00  0.00    +0.000 A 
ATOM     16  C   UNL     1       0.782   9.282  20.388  0.00  0.00    +0.000 A 
ATOM     17  C   UNL     1       0.568  10.342  21.277  0.00  0.00    +0.000 A 
ATOM     18  C   UNL     1       0.760  11.656  20.862  0.00  0.00    +0.000 A 
ATOM     19  C   UNL     1       1.177  11.913  19.557  0.00  0.00    +0.000 A 
ATOM     20  C   UNL     1       1.392  10.855  18.666  0.00  0.00    +0.000 A 
ENDBRANCH  14  15
ENDBRANCH  13  14
ENDBRANCH   3  13
BRANCH   7  21
ATOM     21  C   UNL     1       3.927   2.593  19.764  0.00  0.00    +0.000 C 
BRANCH  21  22
ATOM     22  C   UNL     1       3.712   1.584  18.650  0.00  0.00    +0.000 C 
ATOM     23  O   UNL     1       2.930   1.763  17.729  0.00  0.00    +0.000 OA
BRANCH  22  24
ATOM     24  O   UNL     1       4.501   0.490  18.725  0.00  0.00    +0.000 OA
ATOM     25  H   UNL     1       5.236   0.476  18.072  0.00  0.00    +0.000 HD
ENDBRANCH  22  24
ENDBRANCH  21  22
ENDBRANCH   7  21
TORSDOF 8
ENDMDL
MODEL 6
REMARK VINA RESULT:      -6.4      2.675      4.618
REMARK  Name = 
REMARK  10 active torsions:
REMARK  status: ('A' for Active; 'I' for Inactive)
REMARK    1  A    between atoms: C_1  and  C_2
REMARK    2  A    between atoms: C_2  and  C_3
REMARK    3  A    between atoms: C_2  and  C_4
REMARK    4  A    between atoms: C_6  and  S_7
REMARK    5  A    between atoms: S_7  and  C_8
REMARK    6  A    between atoms: C_8  and  C_9
REMARK    7  A    between atoms: C_15  and  C_16
REMARK    8  A    between atoms: N_20  and  C_21
REMARK    9  A    between atoms: C_21  and  C_22
REMARK   10  A    between atoms: C_22  and  O_24
REMARK                            x       y       z     vdW  Elec       q    Type
REMARK                         _______ _______ _______ _____ _____    ______ ____
ROOT
ATOM      1  C   UNL     1       2.497   4.645  19.719  0.00  0.00    +0.000 A 
ATOM      2  N   UNL     1       2.236   5.839  19.296  0.00  0.00    +0.000 NA
ATOM      3  C   UNL     1       3.118   6.496  18.487  0.00  0.00    +0.000 A 
ATOM      4  C   UNL     1       4.308   5.961  18.128  0.00  0.00    +0.000 A 
ATOM      5  C   UNL     1       4.651   4.640  18.686  0.00  0.00    +0.000 A 
ATOM      6  O   UNL     1       5.791   4.181  18.620  0.00  0.00    +0.000 OA
ATOM      7  N   UNL     1       3.643   3.973  19.368  0.00  0.00    +0.000 N 
ENDROOT
BRANCH   1   9
ATOM      8  C   UNL     1       0.574   3.012  19.798  0.00  0.00    +0.000 C 
ATOM      9  C   UNL     1       1.430   3.994  20.608  0.00  0.00    +0.000 C 
ATOM     10  C   UNL     1       2.104   3.256  21.763  0.00  0.00    +0.000 C 
ENDBRANCH   1   9
BRANCH   4  11
ATOM     11  C   UNL     1       5.299   6.795  17.332  0.00  0.00    +0.000 C 
ATOM     12  N   UNL     1       6.123   7.486  16.672  0.00  0.00    +0.000 NA
ENDBRANCH   4  11
BRANCH   3  13
ATOM     13  S   UNL     1       2.644   8.111  17.906  0.00  0.00    +0.000 S 
BRANCH  13  14
ATOM     14  C   UNL     1       1.769   8.800  19.355  0.00  0.00    +0.000 C 
BRANCH  14  15
ATOM     15  C   UNL     1       0.688   9.789  18.964  0.00  0.00    +0.000 A 
ATOM     16  C   UNL     1       0.605  11.045  19.588  0.00  0.00    +0.000 A 
ATOM     17  C   UNL     1      -0.397  11.955  19.232  0.00  0.00    +0.000 A 
ATOM     18  C   UNL     1      -1.328  11.626  18.252  0.00  0.00    +0.000 A 
ATOM     19  C   UNL     1      -1.253  10.387  17.618  0.00  0.00    +0.000 A 
ATOM     20  C   UNL     1      -0.252   9.475  17.971  0.00  0.00    +0.000 A 
ENDBRANCH  14  15
ENDBRANCH  13  14
ENDBRANCH   3  13
BRANCH   7  21
ATOM     21  C   UNL     1       3.912   2.584  19.765  0.00  0.00    +0.000 C 
BRANCH  21  22
ATOM     22  C   UNL     1       3.686   1.588  18.641  0.00  0.00    +0.000 C 
ATOM     23  O   UNL     1       2.887   1.773  17.736  0.00  0.00    +0.000 OA
BRANCH  22  24
ATOM     24  O   UNL     1       4.484   0.499  18.688  0.00  0.00    +0.000 OA
ATOM     25  H   UNL     1       5.104   0.484  19.451  0.00  0.00    +0.000 HD
ENDBRANCH  22  24
ENDBRANCH  21  22
ENDBRANCH   7  21
TORSDOF 8
ENDMDL
MODEL 7
REMARK VINA RESULT:      -6.2      2.583      4.604
REMARK  Name = 
REMARK  10 active torsions:
REMARK  status: ('A' for Active; 'I' for Inactive)
REMARK    1  A    between atoms: C_1  and  C_2
REMARK    2  A    between atoms: C_2  and  C_3
REMARK    3  A    between atoms: C_2  and  C_4
REMARK    4  A    between atoms: C_6  and  S_7
REMARK    5  A    between atoms: S_7  and  C_8
REMARK    6  A    between atoms: C_8  and  C_9
REMARK    7  A    between atoms: C_15  and  C_16
REMARK    8  A    between atoms: N_20  and  C_21
REMARK    9  A    between atoms: C_21  and  C_22
REMARK   10  A    between atoms: C_22  and  O_24
REMARK                            x       y       z     vdW  Elec       q    Type
REMARK                         _______ _______ _______ _____ _____    ______ ____
ROOT
ATOM      1  C   UNL     1       2.816   4.363  18.968  0.00  0.00    +0.000 A 
ATOM      2  N   UNL     1       2.667   5.611  18.662  0.00  0.00    +0.000 NA
ATOM      3  C   UNL     1       3.699   6.318  18.113  0.00  0.00    +0.000 A 
ATOM      4  C   UNL     1       4.920   5.774  17.906  0.00  0.00    +0.000 A 
ATOM      5  C   UNL     1       5.122   4.380  18.342  0.00  0.00    +0.000 A 
ATOM      6  O   UNL     1       6.243   3.878  18.422  0.00  0.00    +0.000 OA
ATOM      7  N   UNL     1       3.989   3.684  18.743  0.00  0.00    +0.000 N 
ENDROOT
BRANCH   1   9
ATOM      8  C   UNL     1       0.796   4.623  20.460  0.00  0.00    +0.000 C 
ATOM      9  C   UNL     1       1.589   3.662  19.563  0.00  0.00    +0.000 C 
ATOM     10  C   UNL     1       0.692   3.152  18.437  0.00  0.00    +0.000 C 
ENDBRANCH   1   9
BRANCH   4  11
ATOM     11  C   UNL     1       6.061   6.648  17.412  0.00  0.00    +0.000 C 
ATOM     12  N   UNL     1       7.008   7.374  17.000  0.00  0.00    +0.000 NA
ENDBRANCH   4  11
BRANCH   3  13
ATOM     13  S   UNL     1       3.379   8.012  17.668  0.00  0.00    +0.000 S 
BRANCH  13  14
ATOM     14  C   UNL     1       1.584   8.160  17.978  0.00  0.00    +0.000 C 
BRANCH  14  15
ATOM     15  C   UNL     1       1.277   8.900  19.266  0.00  0.00    +0.000 A 
ATOM     16  C   UNL     1       1.421   8.264  20.510  0.00  0.00    +0.000 A 
ATOM     17  C   UNL     1       1.130   8.945  21.698  0.00  0.00    +0.000 A 
ATOM     18  C   UNL     1       0.694  10.265  21.661  0.00  0.00    +0.000 A 
ATOM     19  C   UNL     1       0.555  10.912  20.435  0.00  0.00    +0.000 A 
ATOM     20  C   UNL     1       0.845  10.234  19.245  0.00  0.00    +0.000 A 
ENDBRANCH  14  15
ENDBRANCH  13  14
ENDBRANCH   3  13
BRANCH   7  21
ATOM     21  C   UNL     1       4.147   2.247  19.001  0.00  0.00    +0.000 C 
BRANCH  21  22
ATOM     22  C   UNL     1       4.467   1.932  20.453  0.00  0.00    +0.000 C 
ATOM     23  O   UNL     1       3.787   2.327  21.386  0.00  0.00    +0.000 OA
BRANCH  22  24
ATOM     24  O   UNL     1       5.538   1.128  20.629  0.00  0.00    +0.000 OA
ATOM     25  H   UNL     1       5.383   0.188  20.383  0.00  0.00    +0.000 HD
ENDBRANCH  22  24
ENDBRANCH  21  22
ENDBRANCH   7  21
TORSDOF 8
ENDMDL
MODEL 8
REMARK VINA RESULT:      -6.2      3.737      6.581
REMARK  Name = 
REMARK  10 active torsions:
REMARK  status: ('A' for Active; 'I' for Inactive)
REMARK    1  A    between atoms: C_1  and  C_2
REMARK    2  A    between atoms: C_2  and  C_3
REMARK    3  A    between atoms: C_2  and  C_4
REMARK    4  A    between atoms: C_6  and  S_7
REMARK    5  A    between atoms: S_7  and  C_8
REMARK    6  A    between atoms: C_8  and  C_9
REMARK    7  A    between atoms: C_15  and  C_16
REMARK    8  A    between atoms: N_20  and  C_21
REMARK    9  A    between atoms: C_21  and  C_22
REMARK   10  A    between atoms: C_22  and  O_24
REMARK                            x       y       z     vdW  Elec       q    Type
REMARK                         _______ _______ _______ _____ _____    ______ ____
ROOT
ATOM      1  C   UNL     1       3.403   3.704  19.162  0.00  0.00    +0.000 A 
ATOM      2  N   UNL     1       3.840   4.082  18.005  0.00  0.00    +0.000 NA
ATOM      3  C   UNL     1       3.732   5.387  17.615  0.00  0.00    +0.000 A 
ATOM      4  C   UNL     1       3.134   6.325  18.385  0.00  0.00    +0.000 A 
ATOM      5  C   UNL     1       2.550   5.879  19.664  0.00  0.00    +0.000 A 
ATOM      6  O   UNL     1       1.785   6.591  20.314  0.00  0.00    +0.000 OA
ATOM      7  N   UNL     1       2.838   4.579  20.058  0.00  0.00    +0.000 N 
ENDROOT
BRANCH   1   9
ATOM      8  C   UNL     1       3.624   1.370  18.227  0.00  0.00    +0.000 C 
ATOM      9  C   UNL     1       3.590   2.221  19.504  0.00  0.00    +0.000 C 
ATOM     10  C   UNL     1       4.891   2.032  20.282  0.00  0.00    +0.000 C 
ENDBRANCH   1   9
BRANCH   4  11
ATOM     11  C   UNL     1       2.932   7.730  17.840  0.00  0.00    +0.000 C 
ATOM     12  N   UNL     1       2.762   8.896  17.389  0.00  0.00    +0.000 NA
ENDBRANCH   4  11
BRANCH   3  13
ATOM     13  S   UNL     1       4.416   5.823  16.030  0.00  0.00    +0.000 S 
BRANCH  13  14
ATOM     14  C   UNL     1       6.115   5.158  16.148  0.00  0.00    +0.000 C 
BRANCH  14  15
ATOM     15  C   UNL     1       6.944   5.866  17.202  0.00  0.00    +0.000 A 
ATOM     16  C   UNL     1       7.393   5.180  18.341  0.00  0.00    +0.000 A 
ATOM     17  C   UNL     1       8.153   5.835  19.318  0.00  0.00    +0.000 A 
ATOM     18  C   UNL     1       8.472   7.181  19.170  0.00  0.00    +0.000 A 
ATOM     19  C   UNL     1       8.041   7.873  18.041  0.00  0.00    +0.000 A 
ATOM     20  C   UNL     1       7.282   7.221  17.062  0.00  0.00    +0.000 A 
ENDBRANCH  14  15
ENDBRANCH  13  14
ENDBRANCH   3  13
BRANCH   7  21
ATOM     21  C   UNL     1       2.420   4.185  21.410  0.00  0.00    +0.000 C 
BRANCH  21  22
ATOM     22  C   UNL     1       1.348   3.109  21.413  0.00  0.00    +0.000 C 
ATOM     23  O   UNL     1       1.317   2.201  22.228  0.00  0.00    +0.000 OA
BRANCH  22  24
ATOM     24  O   UNL     1       0.390   3.269  20.474  0.00  0.00    +0.000 OA
ATOM     25  H   UNL     1      -0.033   2.432  20.180  0.00  0.00    +0.000 HD
ENDBRANCH  22  24
ENDBRANCH  21  22
ENDBRANCH   7  21
TORSDOF 8
ENDMDL
MODEL 9
REMARK VINA RESULT:      -6.2      2.464      4.342
REMARK  Name = 
REMARK  10 active torsions:
REMARK  status: ('A' for Active; 'I' for Inactive)
REMARK    1  A    between atoms: C_1  and  C_2
REMARK    2  A    between atoms: C_2  and  C_3
REMARK    3  A    between atoms: C_2  and  C_4
REMARK    4  A    between atoms: C_6  and  S_7
REMARK    5  A    between atoms: S_7  and  C_8
REMARK    6  A    between atoms: C_8  and  C_9
REMARK    7  A    between atoms: C_15  and  C_16
REMARK    8  A    between atoms: N_20  and  C_21
REMARK    9  A    between atoms: C_21  and  C_22
REMARK   10  A    between atoms: C_22  and  O_24
REMARK                            x       y       z     vdW  Elec       q    Type
REMARK                         _______ _______ _______ _____ _____    ______ ____
ROOT
ATOM      1  C   UNL     1       3.070   4.526  19.517  0.00  0.00    +0.000 A 
ATOM      2  N   UNL     1       2.838   5.716  19.066  0.00  0.00    +0.000 NA
ATOM      3  C   UNL     1       3.794   6.387  18.357  0.00  0.00    +0.000 A 
ATOM      4  C   UNL     1       5.024   5.871  18.132  0.00  0.00    +0.000 A 
ATOM      5  C   UNL     1       5.325   4.556  18.727  0.00  0.00    +0.000 A 
ATOM      6  O   UNL     1       6.473   4.116  18.788  0.00  0.00    +0.000 OA
ATOM      7  N   UNL     1       4.258   3.872  19.295  0.00  0.00    +0.000 N 
ENDROOT
BRANCH   1   9
ATOM      8  C   UNL     1       2.297   3.668  21.761  0.00  0.00    +0.000 C 
ATOM      9  C   UNL     1       1.923   3.858  20.285  0.00  0.00    +0.000 C 
ATOM     10  C   UNL     1       0.665   4.719  20.181  0.00  0.00    +0.000 C 
ENDBRANCH   1   9
BRANCH   4  11
ATOM     11  C   UNL     1       6.083   6.720  17.448  0.00  0.00    +0.000 C 
ATOM     12  N   UNL     1       6.963   7.425  16.881  0.00  0.00    +0.000 NA
ENDBRANCH   4  11
BRANCH   3  13
ATOM     13  S   UNL     1       3.360   7.994  17.724  0.00  0.00    +0.000 S 
BRANCH  13  14
ATOM     14  C   UNL     1       1.570   8.080  18.085  0.00  0.00    +0.000 C 
BRANCH  14  15
ATOM     15  C   UNL     1       1.265   8.915  19.313  0.00  0.00    +0.000 A 
ATOM     16  C   UNL     1       1.363   8.361  20.600  0.00  0.00    +0.000 A 
ATOM     17  C   UNL     1       1.075   9.131  21.733  0.00  0.00    +0.000 A 
ATOM     18  C   UNL     1       0.686  10.460  21.598  0.00  0.00    +0.000 A 
ATOM     19  C   UNL     1       0.593  11.026  20.328  0.00  0.00    +0.000 A 
ATOM     20  C   UNL     1       0.881  10.259  19.193  0.00  0.00    +0.000 A 
ENDBRANCH  14  15
ENDBRANCH  13  14
ENDBRANCH   3  13
BRANCH   7  21
ATOM     21  C   UNL     1       4.505   2.489  19.722  0.00  0.00    +0.000 C 
BRANCH  21  22
ATOM     22  C   UNL     1       4.059   1.460  18.698  0.00  0.00    +0.000 C 
ATOM     23  O   UNL     1       3.292   1.717  17.784  0.00  0.00    +0.000 OA
BRANCH  22  24
ATOM     24  O   UNL     1       4.627   0.242  18.843  0.00  0.00    +0.000 OA
ATOM     25  H   UNL     1       5.610   0.253  18.857  0.00  0.00    +0.000 HD
ENDBRANCH  22  24
ENDBRANCH  21  22
ENDBRANCH   7  21
TORSDOF 8
ENDMDL
