MODEL 1
REMARK VINA RESULT:      -6.2      0.000      0.000
REMARK  Name = 
REMARK  3 active torsions:
REMARK  status: ('A' for Active; 'I' for Inactive)
REMARK    1  A    between atoms: C_1  and  O_2
REMARK    2  A    between atoms: O_2  and  C_3
REMARK    3  A    between atoms: C_8  and  C_9
REMARK                            x       y       z     vdW  Elec       q    Type
REMARK                         _______ _______ _______ _____ _____    ______ ____
ROOT
ATOM      1  C   UNL     1       6.580   4.600  17.728  0.00  0.00    +0.000 A 
ATOM      2  C   UNL     1       7.411   4.666  16.599  0.00  0.00    +0.000 A 
ATOM      3  C   UNL     1       6.876   4.584  15.315  0.00  0.00    +0.000 A 
ATOM      4  C   UNL     1       5.509   4.412  15.146  0.00  0.00    +0.000 A 
ATOM      5  C   UNL     1       4.677   4.311  16.264  0.00  0.00    +0.000 A 
ATOM      6  C   UNL     1       5.189   4.403  17.573  0.00  0.00    +0.000 A 
ENDROOT
BRANCH   6   7
ATOM      7  C   UNL     1       4.269   4.330  18.723  0.00  0.00    +0.000 A 
ATOM      8  C   UNL     1       3.767   5.338  19.454  0.00  0.00    +0.000 A 
ATOM      9  N   UNL     1       2.905   4.933  20.441  0.00  0.00    +0.000 N 
ATOM     10  C   UNL     1       2.689   3.578  20.530  0.00  0.00    +0.000 A 
ATOM     11  S   UNL     1       1.674   2.857  21.620  0.00  0.00    +0.000 S 
ATOM     12  S   UNL     1       3.662   2.789  19.294  0.00  0.00    +0.000 S 
ATOM     13  H   UNL     1       2.427   5.580  21.056  0.00  0.00    +0.000 HD
ENDBRANCH   6   7
BRANCH   1  15
ATOM     14  C   UNL     1       7.878   5.839  19.276  0.00  0.00    +0.000 C 
ATOM     15  O   UNL     1       7.077   4.691  19.006  0.00  0.00    +0.000 OA
ENDBRANCH   1  15
TORSDOF 2
ENDMDL
MODEL 2
REMARK VINA RESULT:      -5.8      1.218      1.373
REMARK  Name = 
REMARK  3 active torsions:
REMARK  status: ('A' for Active; 'I' for Inactive)
REMARK    1  A    between atoms: C_1  and  O_2
REMARK    2  A    between atoms: O_2  and  C_3
REMARK    3  A    between atoms: C_8  and  C_9
REMARK                            x       y       z     vdW  Elec       q    Type
REMARK                         _______ _______ _______ _____ _____    ______ ____
ROOT
ATOM      1  C   UNL     1       6.456   4.502  17.490  0.00  0.00    +0.000 A 
ATOM      2  C   UNL     1       7.312   5.001  16.497  0.00  0.00    +0.000 A 
ATOM      3  C   UNL     1       6.886   5.098  15.173  0.00  0.00    +0.000 A 
ATOM      4  C   UNL     1       5.610   4.674  14.826  0.00  0.00    +0.000 A 
ATOM      5  C   UNL     1       4.763   4.144  15.801  0.00  0.00    +0.000 A 
ATOM      6  C   UNL     1       5.162   4.046  17.149  0.00  0.00    +0.000 A 
ENDROOT
BRANCH   6   7
ATOM      7  C   UNL     1       4.221   3.516  18.152  0.00  0.00    +0.000 A 
ATOM      8  C   UNL     1       3.719   2.275  18.250  0.00  0.00    +0.000 A 
ATOM      9  N   UNL     1       2.889   2.095  19.328  0.00  0.00    +0.000 N 
ATOM     10  C   UNL     1       2.703   3.194  20.133  0.00  0.00    +0.000 A 
ATOM     11  S   UNL     1       1.772   3.212  21.500  0.00  0.00    +0.000 S 
ATOM     12  S   UNL     1       3.627   4.529  19.452  0.00  0.00    +0.000 S 
ATOM     13  H   UNL     1       2.455   1.207  19.548  0.00  0.00    +0.000 HD
ENDBRANCH   6   7
BRANCH   1  15
ATOM     14  C   UNL     1       7.344   5.607  19.390  0.00  0.00    +0.000 C 
ATOM     15  O   UNL     1       6.842   4.407  18.807  0.00  0.00    +0.000 OA
ENDBRANCH   1  15
TORSDOF 2
ENDMDL
MODEL 3
REMARK VINA RESULT:      -5.8      2.739      5.413
REMARK  Name = 
REMARK  3 active torsions:
REMARK  status: ('A' for Active; 'I' for Inactive)
REMARK    1  A    between atoms: C_1  and  O_2
REMARK    2  A    between atoms: O_2  and  C_3
REMARK    3  A    between atoms: C_8  and  C_9
REMARK                            x       y       z     vdW  Elec       q    Type
REMARK                         _______ _______ _______ _____ _____    ______ ____
ROOT
ATOM      1  C   UNL     1       2.292   4.781  19.678  0.00  0.00    +0.000 A 
ATOM      2  C   UNL     1       1.262   4.414  20.557  0.00  0.00    +0.000 A 
ATOM      3  C   UNL     1       1.359   3.256  21.325  0.00  0.00    +0.000 A 
ATOM      4  C   UNL     1       2.477   2.440  21.205  0.00  0.00    +0.000 A 
ATOM      5  C   UNL     1       3.492   2.779  20.308  0.00  0.00    +0.000 A 
ATOM      6  C   UNL     1       3.426   3.950  19.529  0.00  0.00    +0.000 A 
ENDROOT
BRANCH   6   7
ATOM      7  C   UNL     1       4.539   4.289  18.623  0.00  0.00    +0.000 A 
ATOM      8  C   UNL     1       5.726   4.834  18.930  0.00  0.00    +0.000 A 
ATOM      9  N   UNL     1       6.561   4.992  17.853  0.00  0.00    +0.000 N 
ATOM     10  C   UNL     1       6.063   4.572  16.641  0.00  0.00    +0.000 A 
ATOM     11  S   UNL     1       6.891   4.636  15.211  0.00  0.00    +0.000 S 
ATOM     12  S   UNL     1       4.432   3.966  16.905  0.00  0.00    +0.000 S 
ATOM     13  H   UNL     1       7.498   5.366  17.931  0.00  0.00    +0.000 HD
ENDBRANCH   6   7
BRANCH   1  15
ATOM     14  C   UNL     1       2.303   7.151  19.642  0.00  0.00    +0.000 C 
ATOM     15  O   UNL     1       2.230   5.925  18.919  0.00  0.00    +0.000 OA
ENDBRANCH   1  15
TORSDOF 2
ENDMDL
MODEL 4
REMARK VINA RESULT:      -5.7      2.753      5.329
REMARK  Name = 
REMARK  3 active torsions:
REMARK  status: ('A' for Active; 'I' for Inactive)
REMARK    1  A    between atoms: C_1  and  O_2
REMARK    2  A    between atoms: O_2  and  C_3
REMARK    3  A    between atoms: C_8  and  C_9
REMARK                            x       y       z     vdW  Elec       q    Type
REMARK                         _______ _______ _______ _____ _____    ______ ____
ROOT
ATOM      1  C   UNL     1       3.473   3.053  19.931  0.00  0.00    +0.000 A 
ATOM      2  C   UNL     1       2.428   2.896  20.854  0.00  0.00    +0.000 A 
ATOM      3  C   UNL     1       1.640   3.982  21.230  0.00  0.00    +0.000 A 
ATOM      4  C   UNL     1       1.904   5.241  20.706  0.00  0.00    +0.000 A 
ATOM      5  C   UNL     1       2.964   5.414  19.812  0.00  0.00    +0.000 A 
ATOM      6  C   UNL     1       3.768   4.331  19.405  0.00  0.00    +0.000 A 
ENDROOT
BRANCH   6   7
ATOM      7  C   UNL     1       4.851   4.553  18.430  0.00  0.00    +0.000 A 
ATOM      8  C   UNL     1       6.130   4.885  18.665  0.00  0.00    +0.000 A 
ATOM      9  N   UNL     1       6.897   4.982  17.533  0.00  0.00    +0.000 N 
ATOM     10  C   UNL     1       6.250   4.727  16.346  0.00  0.00    +0.000 A 
ATOM     11  S   UNL     1       6.970   4.757  14.857  0.00  0.00    +0.000 S 
ATOM     12  S   UNL     1       4.567   4.365  16.711  0.00  0.00    +0.000 S 
ATOM     13  H   UNL     1       7.886   5.200  17.552  0.00  0.00    +0.000 HD
ENDBRANCH   6   7
BRANCH   1  15
ATOM     14  C   UNL     1       3.724   1.196  18.480  0.00  0.00    +0.000 C 
ATOM     15  O   UNL     1       4.258   1.998  19.531  0.00  0.00    +0.000 OA
ENDBRANCH   1  15
TORSDOF 2
ENDMDL
MODEL 5
REMARK VINA RESULT:      -5.6      3.392      5.069
REMARK  Name = 
REMARK  3 active torsions:
REMARK  status: ('A' for Active; 'I' for Inactive)
REMARK    1  A    between atoms: C_1  and  O_2
REMARK    2  A    between atoms: O_2  and  C_3
REMARK    3  A    between atoms: C_8  and  C_9
REMARK                            x       y       z     vdW  Elec       q    Type
REMARK                         _______ _______ _______ _____ _____    ______ ____
ROOT
ATOM      1  C   UNL     1       2.447   4.752  18.213  0.00  0.00    +0.000 A 
ATOM      2  C   UNL     1       1.469   3.794  18.518  0.00  0.00    +0.000 A 
ATOM      3  C   UNL     1       1.731   2.434  18.363  0.00  0.00    +0.000 A 
ATOM      4  C   UNL     1       2.965   2.019  17.880  0.00  0.00    +0.000 A 
ATOM      5  C   UNL     1       3.934   2.967  17.542  0.00  0.00    +0.000 A 
ATOM      6  C   UNL     1       3.701   4.347  17.700  0.00  0.00    +0.000 A 
ENDROOT
BRANCH   6   7
ATOM      7  C   UNL     1       4.766   5.310  17.368  0.00  0.00    +0.000 A 
ATOM      8  C   UNL     1       5.016   5.903  16.190  0.00  0.00    +0.000 A 
ATOM      9  N   UNL     1       6.069   6.782  16.222  0.00  0.00    +0.000 N 
ATOM     10  C   UNL     1       6.697   6.922  17.437  0.00  0.00    +0.000 A 
ATOM     11  S   UNL     1       7.969   7.939  17.727  0.00  0.00    +0.000 S 
ATOM     12  S   UNL     1       5.903   5.851  18.586  0.00  0.00    +0.000 S 
ATOM     13  H   UNL     1       6.361   7.323  15.418  0.00  0.00    +0.000 HD
ENDBRANCH   6   7
BRANCH   1  15
ATOM     14  C   UNL     1       2.350   6.596  19.699  0.00  0.00    +0.000 C 
ATOM     15  O   UNL     1       2.223   6.099  18.369  0.00  0.00    +0.000 OA
ENDBRANCH   1  15
TORSDOF 2
ENDMDL
MODEL 6
REMARK VINA RESULT:      -5.5      2.658      5.207
REMARK  Name = 
REMARK  3 active torsions:
REMARK  status: ('A' for Active; 'I' for Inactive)
REMARK    1  A    between atoms: C_1  and  O_2
REMARK    2  A    between atoms: O_2  and  C_3
REMARK    3  A    between atoms: C_8  and  C_9
REMARK                            x       y       z     vdW  Elec       q    Type
REMARK                         _______ _______ _______ _____ _____    ______ ____
ROOT
ATOM      1  C   UNL     1       3.620   2.948  20.230  0.00  0.00    +0.000 A 
ATOM      2  C   UNL     1       2.635   2.546  21.145  0.00  0.00    +0.000 A 
ATOM      3  C   UNL     1       1.419   3.222  21.226  0.00  0.00    +0.000 A 
ATOM      4  C   UNL     1       1.185   4.321  20.410  0.00  0.00    +0.000 A 
ATOM      5  C   UNL     1       2.172   4.750  19.520  0.00  0.00    +0.000 A 
ATOM      6  C   UNL     1       3.405   4.078  19.408  0.00  0.00    +0.000 A 
ENDROOT
BRANCH   6   7
ATOM      7  C   UNL     1       4.403   4.542  18.427  0.00  0.00    +0.000 A 
ATOM      8  C   UNL     1       5.335   5.496  18.573  0.00  0.00    +0.000 A 
ATOM      9  N   UNL     1       6.137   5.664  17.473  0.00  0.00    +0.000 N 
ATOM     10  C   UNL     1       5.870   4.841  16.405  0.00  0.00    +0.000 A 
ATOM     11  S   UNL     1       6.716   4.840  14.983  0.00  0.00    +0.000 S 
ATOM     12  S   UNL     1       4.504   3.817  16.835  0.00  0.00    +0.000 S 
ATOM     13  H   UNL     1       6.900   6.328  17.443  0.00  0.00    +0.000 HD
ENDBRANCH   6   7
BRANCH   1  15
ATOM     14  C   UNL     1       5.069   1.282  21.091  0.00  0.00    +0.000 C 
ATOM     15  O   UNL     1       4.823   2.293  20.117  0.00  0.00    +0.000 OA
ENDBRANCH   1  15
TORSDOF 2
ENDMDL
MODEL 7
REMARK VINA RESULT:      -5.4      1.340      1.373
REMARK  Name = 
REMARK  3 active torsions:
REMARK  status: ('A' for Active; 'I' for Inactive)
REMARK    1  A    between atoms: C_1  and  O_2
REMARK    2  A    between atoms: O_2  and  C_3
REMARK    3  A    between atoms: C_8  and  C_9
REMARK                            x       y       z     vdW  Elec       q    Type
REMARK                         _______ _______ _______ _____ _____    ______ ____
ROOT
ATOM      1  C   UNL     1       6.359   5.342  17.157  0.00  0.00    +0.000 A 
ATOM      2  C   UNL     1       7.237   5.618  16.098  0.00  0.00    +0.000 A 
ATOM      3  C   UNL     1       7.120   4.947  14.882  0.00  0.00    +0.000 A 
ATOM      4  C   UNL     1       6.140   3.977  14.720  0.00  0.00    +0.000 A 
ATOM      5  C   UNL     1       5.282   3.671  15.779  0.00  0.00    +0.000 A 
ATOM      6  C   UNL     1       5.369   4.342  17.015  0.00  0.00    +0.000 A 
ENDROOT
BRANCH   6   7
ATOM      7  C   UNL     1       4.418   4.014  18.092  0.00  0.00    +0.000 A 
ATOM      8  C   UNL     1       4.614   3.240  19.171  0.00  0.00    +0.000 A 
ATOM      9  N   UNL     1       3.530   3.165  20.007  0.00  0.00    +0.000 N 
ATOM     10  C   UNL     1       2.423   3.885  19.620  0.00  0.00    +0.000 A 
ATOM     11  S   UNL     1       1.010   3.970  20.476  0.00  0.00    +0.000 S 
ATOM     12  S   UNL     1       2.796   4.677  18.094  0.00  0.00    +0.000 S 
ATOM     13  H   UNL     1       3.535   2.641  20.873  0.00  0.00    +0.000 HD
ENDBRANCH   6   7
BRANCH   1  15
ATOM     14  C   UNL     1       7.625   5.754  19.118  0.00  0.00    +0.000 C 
ATOM     15  O   UNL     1       6.440   5.996  18.363  0.00  0.00    +0.000 OA
ENDBRANCH   1  15
TORSDOF 2
ENDMDL
MODEL 8
REMARK VINA RESULT:      -5.4      3.021      5.338
REMARK  Name = 
REMARK  3 active torsions:
REMARK  status: ('A' for Active; 'I' for Inactive)
REMARK    1  A    between atoms: C_1  and  O_2
REMARK    2  A    between atoms: O_2  and  C_3
REMARK    3  A    between atoms: C_8  and  C_9
REMARK                            x       y       z     vdW  Elec       q    Type
REMARK                         _______ _______ _______ _____ _____    ______ ____
ROOT
ATOM      1  C   UNL     1       2.585   3.222  18.675  0.00  0.00    +0.000 A 
ATOM      2  C   UNL     1       1.552   2.518  19.312  0.00  0.00    +0.000 A 
ATOM      3  C   UNL     1       0.770   3.131  20.289  0.00  0.00    +0.000 A 
ATOM      4  C   UNL     1       1.027   4.445  20.656  0.00  0.00    +0.000 A 
ATOM      5  C   UNL     1       2.075   5.144  20.053  0.00  0.00    +0.000 A 
ATOM      6  C   UNL     1       2.874   4.554  19.053  0.00  0.00    +0.000 A 
ENDROOT
BRANCH   6   7
ATOM      7  C   UNL     1       3.945   5.341  18.415  0.00  0.00    +0.000 A 
ATOM      8  C   UNL     1       3.852   6.188  17.378  0.00  0.00    +0.000 A 
ATOM      9  N   UNL     1       5.037   6.793  17.046  0.00  0.00    +0.000 N 
ATOM     10  C   UNL     1       6.123   6.448  17.816  0.00  0.00    +0.000 A 
ATOM     11  S   UNL     1       7.646   7.065  17.624  0.00  0.00    +0.000 S 
ATOM     12  S   UNL     1       5.591   5.270  19.010  0.00  0.00    +0.000 S 
ATOM     13  H   UNL     1       5.120   7.475  16.302  0.00  0.00    +0.000 HD
ENDBRANCH   6   7
BRANCH   1  15
ATOM     14  C   UNL     1       3.880   1.355  17.999  0.00  0.00    +0.000 C 
ATOM     15  O   UNL     1       3.365   2.650  17.698  0.00  0.00    +0.000 OA
ENDBRANCH   1  15
TORSDOF 2
ENDMDL
MODEL 9
REMARK VINA RESULT:      -5.4      2.136      2.504
REMARK  Name = 
REMARK  3 active torsions:
REMARK  status: ('A' for Active; 'I' for Inactive)
REMARK    1  A    between atoms: C_1  and  O_2
REMARK    2  A    between atoms: O_2  and  C_3
REMARK    3  A    between atoms: C_8  and  C_9
REMARK                            x       y       z     vdW  Elec       q    Type
REMARK                         _______ _______ _______ _____ _____    ______ ____
ROOT
ATOM      1  C   UNL     1       4.352   6.128  17.130  0.00  0.00    +0.000 A 
ATOM      2  C   UNL     1       5.253   6.567  16.149  0.00  0.00    +0.000 A 
ATOM      3  C   UNL     1       5.778   5.677  15.213  0.00  0.00    +0.000 A 
ATOM      4  C   UNL     1       5.425   4.335  15.265  0.00  0.00    +0.000 A 
ATOM      5  C   UNL     1       4.554   3.881  16.258  0.00  0.00    +0.000 A 
ATOM      6  C   UNL     1       3.999   4.761  17.208  0.00  0.00    +0.000 A 
ENDROOT
BRANCH   6   7
ATOM      7  C   UNL     1       3.054   4.246  18.215  0.00  0.00    +0.000 A 
ATOM      8  C   UNL     1       1.728   4.074  18.103  0.00  0.00    +0.000 A 
ATOM      9  N   UNL     1       1.139   3.538  19.220  0.00  0.00    +0.000 N 
ATOM     10  C   UNL     1       1.985   3.261  20.269  0.00  0.00    +0.000 A 
ATOM     11  S   UNL     1       1.513   2.589  21.705  0.00  0.00    +0.000 S 
ATOM     12  S   UNL     1       3.612   3.736  19.796  0.00  0.00    +0.000 S 
ATOM     13  H   UNL     1       0.151   3.327  19.276  0.00  0.00    +0.000 HD
ENDBRANCH   6   7
BRANCH   1  15
ATOM     14  C   UNL     1       2.833   7.897  17.556  0.00  0.00    +0.000 C 
ATOM     15  O   UNL     1       3.807   6.985  18.057  0.00  0.00    +0.000 OA
ENDBRANCH   1  15
TORSDOF 2
ENDMDL
