MODEL 1
REMARK VINA RESULT:      -8.3      0.000      0.000
REMARK  Name = 
REMARK  5 active torsions:
REMARK  status: ('A' for Active; 'I' for Inactive)
REMARK    1  A    between atoms: C_1  and  C_2
REMARK    2  A    between atoms: C_2  and  O_3
REMARK    3  A    between atoms: O_3  and  C_4
REMARK    4  A    between atoms: C_7  and  N_8
REMARK    5  A    between atoms: C_11  and  C_12
REMARK                            x       y       z     vdW  Elec       q    Type
REMARK                         _______ _______ _______ _____ _____    ______ ____
ROOT
ATOM      1  N   UNL     1       7.283   5.524  15.454  0.00  0.00    +0.000 N 
ATOM      2  C   UNL     1       6.849   5.393  16.795  0.00  0.00    +0.000 A 
ATOM      3  C   UNL     1       7.714   5.712  17.814  0.00  0.00    +0.000 A 
ATOM      4  C   UNL     1       7.260   5.477  19.092  0.00  0.00    +0.000 A 
ATOM      5  C   UNL     1       8.147   5.675  20.281  0.00  0.00    +0.000 C 
ATOM      6  N   UNL     1       6.015   5.020  19.344  0.00  0.00    +0.000 NA
ATOM      7  C   UNL     1       5.208   4.776  18.304  0.00  0.00    +0.000 A 
ATOM      8  N   UNL     1       3.910   4.384  18.527  0.00  0.00    +0.000 N 
ATOM      9  C   UNL     1       3.460   4.033  19.871  0.00  0.00    +0.000 C 
ATOM     10  C   UNL     1       3.243   2.516  19.985  0.00  0.00    +0.000 C 
ATOM     11  O   UNL     1       2.365   2.027  18.955  0.00  0.00    +0.000 OA
ATOM     12  C   UNL     1       2.922   2.300  17.657  0.00  0.00    +0.000 C 
ATOM     13  C   UNL     1       3.123   3.807  17.432  0.00  0.00    +0.000 C 
ATOM     14  N   UNL     1       5.610   4.938  17.042  0.00  0.00    +0.000 NA
ATOM     15  H   UNL     1       7.446   6.501  15.238  0.00  0.00    +0.000 HD
ENDROOT
BRANCH   1  19
ATOM     16  C   UNL     1       5.641   3.477  12.134  0.00  0.00    +0.000 A 
ATOM     17  C   UNL     1       4.925   3.581  13.327  0.00  0.00    +0.000 A 
ATOM     18  C   UNL     1       5.466   4.252  14.430  0.00  0.00    +0.000 A 
ATOM     19  C   UNL     1       6.752   4.795  14.366  0.00  0.00    +0.000 A 
ATOM     20  C   UNL     1       7.452   4.691  13.155  0.00  0.00    +0.000 A 
ATOM     21  C   UNL     1       6.918   4.019  12.056  0.00  0.00    +0.000 A 
BRANCH  16  22
ATOM     22  O   UNL     1       5.000   2.828  11.116  0.00  0.00    +0.000 OA
BRANCH  22  24
ATOM     23  C   UNL     1       3.276   3.901   9.881  0.00  0.00    +0.000 C 
ATOM     24  C   UNL     1       3.583   3.000  11.061  0.00  0.00    +0.000 C 
ENDBRANCH  22  24
ENDBRANCH  16  22
ENDBRANCH   1  19
TORSDOF 3
ENDMDL
MODEL 2
REMARK VINA RESULT:      -7.9      0.256      1.034
REMARK  Name = 
REMARK  5 active torsions:
REMARK  status: ('A' for Active; 'I' for Inactive)
REMARK    1  A    between atoms: C_1  and  C_2
REMARK    2  A    between atoms: C_2  and  O_3
REMARK    3  A    between atoms: O_3  and  C_4
REMARK    4  A    between atoms: C_7  and  N_8
REMARK    5  A    between atoms: C_11  and  C_12
REMARK                            x       y       z     vdW  Elec       q    Type
REMARK                         _______ _______ _______ _____ _____    ______ ____
ROOT
ATOM      1  N   UNL     1       7.344   5.604  15.594  0.00  0.00    +0.000 N 
ATOM      2  C   UNL     1       6.903   5.470  16.933  0.00  0.00    +0.000 A 
ATOM      3  C   UNL     1       7.794   5.687  17.957  0.00  0.00    +0.000 A 
ATOM      4  C   UNL     1       7.325   5.452  19.230  0.00  0.00    +0.000 A 
ATOM      5  C   UNL     1       8.228   5.541  20.420  0.00  0.00    +0.000 C 
ATOM      6  N   UNL     1       6.047   5.091  19.474  0.00  0.00    +0.000 NA
ATOM      7  C   UNL     1       5.221   4.944  18.430  0.00  0.00    +0.000 A 
ATOM      8  N   UNL     1       3.895   4.652  18.649  0.00  0.00    +0.000 N 
ATOM      9  C   UNL     1       3.421   4.299  19.984  0.00  0.00    +0.000 C 
ATOM     10  C   UNL     1       3.081   2.803  20.053  0.00  0.00    +0.000 C 
ATOM     11  O   UNL     1       2.164   2.418  19.014  0.00  0.00    +0.000 OA
ATOM     12  C   UNL     1       2.739   2.682  17.722  0.00  0.00    +0.000 C 
ATOM     13  C   UNL     1       3.062   4.175  17.541  0.00  0.00    +0.000 C 
ATOM     14  N   UNL     1       5.632   5.110  17.173  0.00  0.00    +0.000 NA
ATOM     15  H   UNL     1       7.585   6.571  15.406  0.00  0.00    +0.000 HD
ENDROOT
BRANCH   1  19
ATOM     16  C   UNL     1       5.630   3.519  12.335  0.00  0.00    +0.000 A 
ATOM     17  C   UNL     1       6.873   4.139  12.204  0.00  0.00    +0.000 A 
ATOM     18  C   UNL     1       7.442   4.835  13.278  0.00  0.00    +0.000 A 
ATOM     19  C   UNL     1       6.753   4.954  14.488  0.00  0.00    +0.000 A 
ATOM     20  C   UNL     1       5.510   4.314  14.605  0.00  0.00    +0.000 A 
ATOM     21  C   UNL     1       4.939   3.624  13.536  0.00  0.00    +0.000 A 
BRANCH  16  22
ATOM     22  O   UNL     1       5.189   2.843  11.233  0.00  0.00    +0.000 OA
BRANCH  22  24
ATOM     23  C   UNL     1       3.406   3.920  10.087  0.00  0.00    +0.000 C 
ATOM     24  C   UNL     1       3.773   2.806  11.048  0.00  0.00    +0.000 C 
ENDBRANCH  22  24
ENDBRANCH  16  22
ENDBRANCH   1  19
TORSDOF 3
ENDMDL
MODEL 3
REMARK VINA RESULT:      -7.6      0.990      1.608
REMARK  Name = 
REMARK  5 active torsions:
REMARK  status: ('A' for Active; 'I' for Inactive)
REMARK    1  A    between atoms: C_1  and  C_2
REMARK    2  A    between atoms: C_2  and  O_3
REMARK    3  A    between atoms: O_3  and  C_4
REMARK    4  A    between atoms: C_7  and  N_8
REMARK    5  A    between atoms: C_11  and  C_12
REMARK                            x       y       z     vdW  Elec       q    Type
REMARK                         _______ _______ _______ _____ _____    ______ ____
ROOT
ATOM      1  N   UNL     1       7.333   5.646  15.559  0.00  0.00    +0.000 N 
ATOM      2  C   UNL     1       6.879   5.487  16.890  0.00  0.00    +0.000 A 
ATOM      3  C   UNL     1       7.709   5.841  17.928  0.00  0.00    +0.000 A 
ATOM      4  C   UNL     1       7.242   5.577  19.196  0.00  0.00    +0.000 A 
ATOM      5  C   UNL     1       8.096   5.810  20.403  0.00  0.00    +0.000 C 
ATOM      6  N   UNL     1       6.015   5.061  19.421  0.00  0.00    +0.000 NA
ATOM      7  C   UNL     1       5.241   4.784  18.364  0.00  0.00    +0.000 A 
ATOM      8  N   UNL     1       3.958   4.330  18.560  0.00  0.00    +0.000 N 
ATOM      9  C   UNL     1       3.500   3.950  19.894  0.00  0.00    +0.000 C 
ATOM     10  C   UNL     1       3.353   2.424  19.995  0.00  0.00    +0.000 C 
ATOM     11  O   UNL     1       2.519   1.900  18.946  0.00  0.00    +0.000 OA
ATOM     12  C   UNL     1       3.088   2.206  17.661  0.00  0.00    +0.000 C 
ATOM     13  C   UNL     1       3.221   3.723  17.447  0.00  0.00    +0.000 C 
ATOM     14  N   UNL     1       5.659   4.973  17.112  0.00  0.00    +0.000 NA
ATOM     15  H   UNL     1       7.453   6.631  15.351  0.00  0.00    +0.000 HD
ENDROOT
BRANCH   1  19
ATOM     16  C   UNL     1       5.982   3.282  12.318  0.00  0.00    +0.000 A 
ATOM     17  C   UNL     1       7.141   4.052  12.200  0.00  0.00    +0.000 A 
ATOM     18  C   UNL     1       7.588   4.840  13.267  0.00  0.00    +0.000 A 
ATOM     19  C   UNL     1       6.858   4.899  14.457  0.00  0.00    +0.000 A 
ATOM     20  C   UNL     1       5.703   4.110  14.563  0.00  0.00    +0.000 A 
ATOM     21  C   UNL     1       5.252   3.328  13.500  0.00  0.00    +0.000 A 
BRANCH  16  22
ATOM     22  O   UNL     1       5.660   2.529  11.226  0.00  0.00    +0.000 OA
BRANCH  22  24
ATOM     23  C   UNL     1       6.107   0.195  11.272  0.00  0.00    +0.000 C 
ATOM     24  C   UNL     1       6.625   1.551  10.835  0.00  0.00    +0.000 C 
ENDBRANCH  22  24
ENDBRANCH  16  22
ENDBRANCH   1  19
TORSDOF 3
ENDMDL
MODEL 4
REMARK VINA RESULT:      -7.4      4.590      7.532
REMARK  Name = 
REMARK  5 active torsions:
REMARK  status: ('A' for Active; 'I' for Inactive)
REMARK    1  A    between atoms: C_1  and  C_2
REMARK    2  A    between atoms: C_2  and  O_3
REMARK    3  A    between atoms: O_3  and  C_4
REMARK    4  A    between atoms: C_7  and  N_8
REMARK    5  A    between atoms: C_11  and  C_12
REMARK                            x       y       z     vdW  Elec       q    Type
REMARK                         _______ _______ _______ _____ _____    ______ ____
ROOT
ATOM      1  N   UNL     1       3.392   8.187  17.708  0.00  0.00    +0.000 N 
ATOM      2  C   UNL     1       3.772   6.824  17.696  0.00  0.00    +0.000 A 
ATOM      3  C   UNL     1       4.488   6.337  16.628  0.00  0.00    +0.000 A 
ATOM      4  C   UNL     1       4.746   4.986  16.636  0.00  0.00    +0.000 A 
ATOM      5  C   UNL     1       5.416   4.316  15.477  0.00  0.00    +0.000 C 
ATOM      6  N   UNL     1       4.378   4.185  17.659  0.00  0.00    +0.000 NA
ATOM      7  C   UNL     1       3.725   4.736  18.689  0.00  0.00    +0.000 A 
ATOM      8  N   UNL     1       3.404   3.965  19.781  0.00  0.00    +0.000 N 
ATOM      9  C   UNL     1       3.580   2.516  19.746  0.00  0.00    +0.000 C 
ATOM     10  C   UNL     1       2.217   1.811  19.674  0.00  0.00    +0.000 C 
ATOM     11  O   UNL     1       1.340   2.243  20.729  0.00  0.00    +0.000 OA
ATOM     12  C   UNL     1       1.112   3.660  20.637  0.00  0.00    +0.000 C 
ATOM     13  C   UNL     1       2.423   4.454  20.756  0.00  0.00    +0.000 C 
ATOM     14  N   UNL     1       3.404   6.030  18.714  0.00  0.00    +0.000 NA
ATOM     15  H   UNL     1       4.217   8.774  17.777  0.00  0.00    +0.000 HD
ENDROOT
BRANCH   1  19
ATOM     16  C   UNL     1       0.162   9.848  19.882  0.00  0.00    +0.000 A 
ATOM     17  C   UNL     1       0.928   8.817  20.428  0.00  0.00    +0.000 A 
ATOM     18  C   UNL     1       1.994   8.260  19.710  0.00  0.00    +0.000 A 
ATOM     19  C   UNL     1       2.283   8.703  18.417  0.00  0.00    +0.000 A 
ATOM     20  C   UNL     1       1.511   9.749  17.889  0.00  0.00    +0.000 A 
ATOM     21  C   UNL     1       0.446  10.302  18.599  0.00  0.00    +0.000 A 
BRANCH  16  22
ATOM     22  O   UNL     1      -0.830  10.335  20.685  0.00  0.00    +0.000 OA
BRANCH  22  24
ATOM     23  C   UNL     1      -0.954  10.560  23.047  0.00  0.00    +0.000 C 
ATOM     24  C   UNL     1      -0.406  11.163  21.769  0.00  0.00    +0.000 C 
ENDBRANCH  22  24
ENDBRANCH  16  22
ENDBRANCH   1  19
TORSDOF 3
ENDMDL
MODEL 5
REMARK VINA RESULT:      -7.4      0.917      1.119
REMARK  Name = 
REMARK  5 active torsions:
REMARK  status: ('A' for Active; 'I' for Inactive)
REMARK    1  A    between atoms: C_1  and  C_2
REMARK    2  A    between atoms: C_2  and  O_3
REMARK    3  A    between atoms: O_3  and  C_4
REMARK    4  A    between atoms: C_7  and  N_8
REMARK    5  A    between atoms: C_11  and  C_12
REMARK                            x       y       z     vdW  Elec       q    Type
REMARK                         _______ _______ _______ _____ _____    ______ ____
ROOT
ATOM      1  N   UNL     1       7.441   5.652  15.655  0.00  0.00    +0.000 N 
ATOM      2  C   UNL     1       6.965   5.481  16.977  0.00  0.00    +0.000 A 
ATOM      3  C   UNL     1       7.785   5.804  18.032  0.00  0.00    +0.000 A 
ATOM      4  C   UNL     1       7.294   5.530  19.288  0.00  0.00    +0.000 A 
ATOM      5  C   UNL     1       8.135   5.728  20.511  0.00  0.00    +0.000 C 
ATOM      6  N   UNL     1       6.055   5.032  19.488  0.00  0.00    +0.000 NA
ATOM      7  C   UNL     1       5.292   4.786  18.416  0.00  0.00    +0.000 A 
ATOM      8  N   UNL     1       3.999   4.352  18.586  0.00  0.00    +0.000 N 
ATOM      9  C   UNL     1       3.514   3.961  19.907  0.00  0.00    +0.000 C 
ATOM     10  C   UNL     1       3.338   2.436  19.982  0.00  0.00    +0.000 C 
ATOM     11  O   UNL     1       2.511   1.944  18.914  0.00  0.00    +0.000 OA
ATOM     12  C   UNL     1       3.104   2.259  17.641  0.00  0.00    +0.000 C 
ATOM     13  C   UNL     1       3.268   3.776  17.453  0.00  0.00    +0.000 C 
ATOM     14  N   UNL     1       5.732   4.986  17.172  0.00  0.00    +0.000 NA
ATOM     15  H   UNL     1       7.582   6.638  15.464  0.00  0.00    +0.000 HD
ENDROOT
BRANCH   1  19
ATOM     16  C   UNL     1       5.953   3.622  12.252  0.00  0.00    +0.000 A 
ATOM     17  C   UNL     1       5.289   3.534  13.476  0.00  0.00    +0.000 A 
ATOM     18  C   UNL     1       5.781   4.198  14.606  0.00  0.00    +0.000 A 
ATOM     19  C   UNL     1       6.969   4.931  14.535  0.00  0.00    +0.000 A 
ATOM     20  C   UNL     1       7.616   5.019  13.294  0.00  0.00    +0.000 A 
ATOM     21  C   UNL     1       7.132   4.354  12.168  0.00  0.00    +0.000 A 
BRANCH  16  22
ATOM     22  O   UNL     1       5.365   2.960  11.212  0.00  0.00    +0.000 OA
BRANCH  22  24
ATOM     23  C   UNL     1       6.875   1.144  10.940  0.00  0.00    +0.000 C 
ATOM     24  C   UNL     1       5.444   1.534  11.257  0.00  0.00    +0.000 C 
ENDBRANCH  22  24
ENDBRANCH  16  22
ENDBRANCH   1  19
TORSDOF 3
ENDMDL
MODEL 6
REMARK VINA RESULT:      -7.3      6.548      8.753
REMARK  Name = 
REMARK  5 active torsions:
REMARK  status: ('A' for Active; 'I' for Inactive)
REMARK    1  A    between atoms: C_1  and  C_2
REMARK    2  A    between atoms: C_2  and  O_3
REMARK    3  A    between atoms: O_3  and  C_4
REMARK    4  A    between atoms: C_7  and  N_8
REMARK    5  A    between atoms: C_11  and  C_12
REMARK                            x       y       z     vdW  Elec       q    Type
REMARK                         _______ _______ _______ _____ _____    ______ ____
ROOT
ATOM      1  N   UNL     1       1.619   8.112  21.382  0.00  0.00    +0.000 N 
ATOM      2  C   UNL     1       0.711   9.193  21.275  0.00  0.00    +0.000 A 
ATOM      3  C   UNL     1       0.236   9.786  22.421  0.00  0.00    +0.000 A 
ATOM      4  C   UNL     1      -0.711  10.770  22.248  0.00  0.00    +0.000 A 
ATOM      5  C   UNL     1      -1.387  11.411  23.419  0.00  0.00    +0.000 C 
ATOM      6  N   UNL     1      -1.111  11.181  21.026  0.00  0.00    +0.000 NA
ATOM      7  C   UNL     1      -0.572  10.591  19.952  0.00  0.00    +0.000 A 
ATOM      8  N   UNL     1      -0.900  11.038  18.694  0.00  0.00    +0.000 N 
ATOM      9  C   UNL     1      -1.979  12.004  18.506  0.00  0.00    +0.000 C 
ATOM     10  C   UNL     1      -3.200  11.325  17.866  0.00  0.00    +0.000 C 
ATOM     11  O   UNL     1      -2.849  10.635  16.654  0.00  0.00    +0.000 OA
ATOM     12  C   UNL     1      -1.869   9.618  16.928  0.00  0.00    +0.000 C 
ATOM     13  C   UNL     1      -0.583  10.215  17.522  0.00  0.00    +0.000 C 
ATOM     14  N   UNL     1       0.314   9.599  20.059  0.00  0.00    +0.000 NA
ATOM     15  H   UNL     1       2.494   8.436  21.779  0.00  0.00    +0.000 HD
ENDROOT
BRANCH   1  19
ATOM     16  C   UNL     1       2.274   5.080  18.503  0.00  0.00    +0.000 A 
ATOM     17  C   UNL     1       2.579   6.410  18.213  0.00  0.00    +0.000 A 
ATOM     18  C   UNL     1       2.359   7.418  19.160  0.00  0.00    +0.000 A 
ATOM     19  C   UNL     1       1.791   7.111  20.399  0.00  0.00    +0.000 A 
ATOM     20  C   UNL     1       1.502   5.767  20.679  0.00  0.00    +0.000 A 
ATOM     21  C   UNL     1       1.716   4.762  19.736  0.00  0.00    +0.000 A 
BRANCH  16  22
ATOM     22  O   UNL     1       2.561   4.180  17.517  0.00  0.00    +0.000 OA
BRANCH  22  24
ATOM     23  C   UNL     1       3.298   1.963  17.955  0.00  0.00    +0.000 C 
ATOM     24  C   UNL     1       3.738   3.394  17.712  0.00  0.00    +0.000 C 
ENDBRANCH  22  24
ENDBRANCH  16  22
ENDBRANCH   1  19
TORSDOF 3
ENDMDL
MODEL 7
REMARK VINA RESULT:      -7.1      6.548      8.658
REMARK  Name = 
REMARK  5 active torsions:
REMARK  status: ('A' for Active; 'I' for Inactive)
REMARK    1  A    between atoms: C_1  and  C_2
REMARK    2  A    between atoms: C_2  and  O_3
REMARK    3  A    between atoms: O_3  and  C_4
REMARK    4  A    between atoms: C_7  and  N_8
REMARK    5  A    between atoms: C_11  and  C_12
REMARK                            x       y       z     vdW  Elec       q    Type
REMARK                         _______ _______ _______ _____ _____    ______ ____
ROOT
ATOM      1  N   UNL     1       1.673   8.146  21.431  0.00  0.00    +0.000 N 
ATOM      2  C   UNL     1       0.735   9.200  21.322  0.00  0.00    +0.000 A 
ATOM      3  C   UNL     1       0.214   9.756  22.466  0.00  0.00    +0.000 A 
ATOM      4  C   UNL     1      -0.759  10.714  22.288  0.00  0.00    +0.000 A 
ATOM      5  C   UNL     1      -1.483  11.311  23.454  0.00  0.00    +0.000 C 
ATOM      6  N   UNL     1      -1.142  11.135  21.065  0.00  0.00    +0.000 NA
ATOM      7  C   UNL     1      -0.558  10.584  19.993  0.00  0.00    +0.000 A 
ATOM      8  N   UNL     1      -0.870  11.044  18.736  0.00  0.00    +0.000 N 
ATOM      9  C   UNL     1      -1.973  11.980  18.539  0.00  0.00    +0.000 C 
ATOM     10  C   UNL     1      -3.157  11.276  17.857  0.00  0.00    +0.000 C 
ATOM     11  O   UNL     1      -2.755  10.621  16.641  0.00  0.00    +0.000 OA
ATOM     12  C   UNL     1      -1.751   9.629  16.921  0.00  0.00    +0.000 C 
ATOM     13  C   UNL     1      -0.499  10.254  17.558  0.00  0.00    +0.000 C 
ATOM     14  N   UNL     1       0.355   9.618  20.104  0.00  0.00    +0.000 NA
ATOM     15  H   UNL     1       2.528   8.489  21.856  0.00  0.00    +0.000 HD
ENDROOT
BRANCH   1  19
ATOM     16  C   UNL     1       2.209   5.251  18.391  0.00  0.00    +0.000 A 
ATOM     17  C   UNL     1       1.784   4.871  19.665  0.00  0.00    +0.000 A 
ATOM     18  C   UNL     1       1.611   5.824  20.675  0.00  0.00    +0.000 A 
ATOM     19  C   UNL     1       1.900   7.170  20.435  0.00  0.00    +0.000 A 
ATOM     20  C   UNL     1       2.315   7.536  19.146  0.00  0.00    +0.000 A 
ATOM     21  C   UNL     1       2.493   6.588  18.139  0.00  0.00    +0.000 A 
BRANCH  16  22
ATOM     22  O   UNL     1       2.312   4.242  17.477  0.00  0.00    +0.000 OA
BRANCH  22  24
ATOM     23  C   UNL     1       4.583   3.838  16.903  0.00  0.00    +0.000 C 
ATOM     24  C   UNL     1       3.387   3.323  17.680  0.00  0.00    +0.000 C 
ENDBRANCH  22  24
ENDBRANCH  16  22
ENDBRANCH   1  19
TORSDOF 3
ENDMDL
MODEL 8
REMARK VINA RESULT:      -7.1      4.538      7.433
REMARK  Name = 
REMARK  5 active torsions:
REMARK  status: ('A' for Active; 'I' for Inactive)
REMARK    1  A    between atoms: C_1  and  C_2
REMARK    2  A    between atoms: C_2  and  O_3
REMARK    3  A    between atoms: O_3  and  C_4
REMARK    4  A    between atoms: C_7  and  N_8
REMARK    5  A    between atoms: C_11  and  C_12
REMARK                            x       y       z     vdW  Elec       q    Type
REMARK                         _______ _______ _______ _____ _____    ______ ____
ROOT
ATOM      1  N   UNL     1       3.577   8.131  17.661  0.00  0.00    +0.000 N 
ATOM      2  C   UNL     1       3.893   6.751  17.645  0.00  0.00    +0.000 A 
ATOM      3  C   UNL     1       4.569   6.230  16.568  0.00  0.00    +0.000 A 
ATOM      4  C   UNL     1       4.765   4.868  16.575  0.00  0.00    +0.000 A 
ATOM      5  C   UNL     1       5.386   4.166  15.407  0.00  0.00    +0.000 C 
ATOM      6  N   UNL     1       4.377   4.087  17.605  0.00  0.00    +0.000 NA
ATOM      7  C   UNL     1       3.765   4.669  18.645  0.00  0.00    +0.000 A 
ATOM      8  N   UNL     1       3.426   3.915  19.743  0.00  0.00    +0.000 N 
ATOM      9  C   UNL     1       3.535   2.460  19.709  0.00  0.00    +0.000 C 
ATOM     10  C   UNL     1       2.140   1.819  19.660  0.00  0.00    +0.000 C 
ATOM     11  O   UNL     1       1.300   2.292  20.727  0.00  0.00    +0.000 OA
ATOM     12  C   UNL     1       1.137   3.718  20.635  0.00  0.00    +0.000 C 
ATOM     13  C   UNL     1       2.485   4.451  20.732  0.00  0.00    +0.000 C 
ATOM     14  N   UNL     1       3.505   5.977  18.671  0.00  0.00    +0.000 NA
ATOM     15  H   UNL     1       4.428   8.679  17.715  0.00  0.00    +0.000 HD
ENDROOT
BRANCH   1  19
ATOM     16  C   UNL     1       0.268   9.721  19.767  0.00  0.00    +0.000 A 
ATOM     17  C   UNL     1       0.664  10.274  18.548  0.00  0.00    +0.000 A 
ATOM     18  C   UNL     1       1.762   9.755  17.851  0.00  0.00    +0.000 A 
ATOM     19  C   UNL     1       2.504   8.698  18.385  0.00  0.00    +0.000 A 
ATOM     20  C   UNL     1       2.083   8.147  19.604  0.00  0.00    +0.000 A 
ATOM     21  C   UNL     1       0.994   8.664  20.304  0.00  0.00    +0.000 A 
BRANCH  16  22
ATOM     22  O   UNL     1      -0.835  10.287  20.341  0.00  0.00    +0.000 OA
BRANCH  22  24
ATOM     23  C   UNL     1      -0.853  10.776  22.667  0.00  0.00    +0.000 C 
ATOM     24  C   UNL     1      -0.581  11.331  21.282  0.00  0.00    +0.000 C 
ENDBRANCH  22  24
ENDBRANCH  16  22
ENDBRANCH   1  19
TORSDOF 3
ENDMDL
MODEL 9
REMARK VINA RESULT:      -6.7      6.198      8.394
REMARK  Name = 
REMARK  5 active torsions:
REMARK  status: ('A' for Active; 'I' for Inactive)
REMARK    1  A    between atoms: C_1  and  C_2
REMARK    2  A    between atoms: C_2  and  O_3
REMARK    3  A    between atoms: O_3  and  C_4
REMARK    4  A    between atoms: C_7  and  N_8
REMARK    5  A    between atoms: C_11  and  C_12
REMARK                            x       y       z     vdW  Elec       q    Type
REMARK                         _______ _______ _______ _____ _____    ______ ____
ROOT
ATOM      1  N   UNL     1       2.648   8.643  17.684  0.00  0.00    +0.000 N 
ATOM      2  C   UNL     1       2.013   9.788  18.221  0.00  0.00    +0.000 A 
ATOM      3  C   UNL     1       2.422  11.035  17.813  0.00  0.00    +0.000 A 
ATOM      4  C   UNL     1       1.826  12.106  18.439  0.00  0.00    +0.000 A 
ATOM      5  C   UNL     1       2.265  13.510  18.166  0.00  0.00    +0.000 C 
ATOM      6  N   UNL     1       0.848  11.952  19.357  0.00  0.00    +0.000 NA
ATOM      7  C   UNL     1       0.465  10.709  19.672  0.00  0.00    +0.000 A 
ATOM      8  N   UNL     1      -0.580  10.519  20.545  0.00  0.00    +0.000 N 
ATOM      9  C   UNL     1      -1.141  11.644  21.289  0.00  0.00    +0.000 C 
ATOM     10  C   UNL     1      -0.749  11.554  22.772  0.00  0.00    +0.000 C 
ATOM     11  O   UNL     1      -1.099  10.279  23.337  0.00  0.00    +0.000 OA
ATOM     12  C   UNL     1      -0.421   9.222  22.635  0.00  0.00    +0.000 C 
ATOM     13  C   UNL     1      -0.799   9.199  21.145  0.00  0.00    +0.000 C 
ATOM     14  N   UNL     1       1.041   9.633  19.134  0.00  0.00    +0.000 NA
ATOM     15  H   UNL     1       2.448   8.570  16.693  0.00  0.00    +0.000 HD
ENDROOT
BRANCH   1  19
ATOM     16  C   UNL     1       2.979   4.934  19.697  0.00  0.00    +0.000 A 
ATOM     17  C   UNL     1       3.503   5.093  18.413  0.00  0.00    +0.000 A 
ATOM     18  C   UNL     1       3.391   6.316  17.741  0.00  0.00    +0.000 A 
ATOM     19  C   UNL     1       2.716   7.388  18.331  0.00  0.00    +0.000 A 
ATOM     20  C   UNL     1       2.206   7.214  19.626  0.00  0.00    +0.000 A 
ATOM     21  C   UNL     1       2.312   5.996  20.296  0.00  0.00    +0.000 A 
BRANCH  16  22
ATOM     22  O   UNL     1       3.175   3.709  20.267  0.00  0.00    +0.000 OA
BRANCH  22  24
ATOM     23  C   UNL     1       1.465   2.669  21.549  0.00  0.00    +0.000 C 
ATOM     24  C   UNL     1       2.084   2.793  20.170  0.00  0.00    +0.000 C 
ENDBRANCH  22  24
ENDBRANCH  16  22
ENDBRANCH   1  19
TORSDOF 3
ENDMDL
