MODEL 1
REMARK VINA RESULT:      -9.3      0.000      0.000
REMARK  Name = 
REMARK  7 active torsions:
REMARK  status: ('A' for Active; 'I' for Inactive)
REMARK    1  A    between atoms: C_1  and  C_2
REMARK    2  A    between atoms: C_2  and  S_3
REMARK    3  A    between atoms: S_3  and  N_6
REMARK    4  A    between atoms: N_6  and  C_7
REMARK    5  A    between atoms: C_9  and  C_10
REMARK    6  A    between atoms: C_14  and  C_15
REMARK    7  A    between atoms: C_22  and  C_23
REMARK                            x       y       z     vdW  Elec       q    Type
REMARK                         _______ _______ _______ _____ _____    ______ ____
ROOT
ATOM      1  C   UNL     1       4.659   4.786  18.224  0.00  0.00    +0.000 A 
ATOM      2  C   UNL     1       4.039   5.984  18.249  0.00  0.00    +0.000 A 
ATOM      3  C   UNL     1       2.935   6.238  19.179  0.00  0.00    +0.000 A 
ATOM      4  C   UNL     1       2.576   5.254  20.034  0.00  0.00    +0.000 A 
ATOM      5  N   UNL     1       3.257   4.036  20.010  0.00  0.00    +0.000 N 
ATOM      6  C   UNL     1       3.112   2.888  20.763  0.00  0.00    +0.000 A 
ATOM      7  C   UNL     1       2.098   2.669  21.820  0.00  0.00    +0.000 C 
ATOM      8  N   UNL     1       4.025   2.009  20.394  0.00  0.00    +0.000 NA
ATOM      9  N   UNL     1       4.774   2.558  19.381  0.00  0.00    +0.000 NA
ATOM     10  C   UNL     1       4.303   3.762  19.140  0.00  0.00    +0.000 A 
ENDROOT
BRANCH   3  11
ATOM     11  C   UNL     1       2.195   7.510  19.241  0.00  0.00    +0.000 A 
ATOM     12  C   UNL     1       2.135   8.335  18.113  0.00  0.00    +0.000 A 
ATOM     13  C   UNL     1       1.499   9.575  18.181  0.00  0.00    +0.000 A 
ATOM     14  C   UNL     1       0.928  10.003  19.380  0.00  0.00    +0.000 A 
ATOM     15  C   UNL     1       0.972   9.189  20.522  0.00  0.00    +0.000 A 
ATOM     16  C   UNL     1       1.592   7.930  20.437  0.00  0.00    +0.000 A 
BRANCH  15  17
ATOM     17  C   UNL     1       0.402   9.674  21.833  0.00  0.00    +0.000 C 
ATOM     18  F   UNL     1       1.203   9.406  22.904  0.00  0.00    +0.000 F 
ATOM     19  F   UNL     1       0.188  11.018  21.856  0.00  0.00    +0.000 F 
ATOM     20  F   UNL     1      -0.798   9.096  22.117  0.00  0.00    +0.000 F 
ENDBRANCH  15  17
ENDBRANCH   3  11
BRANCH   1  21
ATOM     21  N   UNL     1       5.728   4.580  17.298  0.00  0.00    +0.000 N 
ATOM     22  H   UNL     1       5.814   3.597  17.032  0.00  0.00    +0.000 HD
BRANCH  21  23
ATOM     23  S   UNL     1       7.240   5.077  17.902  0.00  0.00    +0.000 S 
ATOM     24  O   UNL     1       8.203   4.194  17.277  0.00  0.00    +0.000 OA
ATOM     25  O   UNL     1       7.167   5.216  19.342  0.00  0.00    +0.000 OA
BRANCH  23  27
ATOM     26  C   UNL     1       8.002   7.686  18.152  0.00  0.00    +0.000 C 
ATOM     27  C   UNL     1       7.393   6.701  17.170  0.00  0.00    +0.000 C 
ENDBRANCH  23  27
ENDBRANCH  21  23
ENDBRANCH   1  21
TORSDOF 5
ENDMDL
MODEL 2
REMARK VINA RESULT:      -9.1      1.351      1.557
REMARK  Name = 
REMARK  7 active torsions:
REMARK  status: ('A' for Active; 'I' for Inactive)
REMARK    1  A    between atoms: C_1  and  C_2
REMARK    2  A    between atoms: C_2  and  S_3
REMARK    3  A    between atoms: S_3  and  N_6
REMARK    4  A    between atoms: N_6  and  C_7
REMARK    5  A    between atoms: C_9  and  C_10
REMARK    6  A    between atoms: C_14  and  C_15
REMARK    7  A    between atoms: C_22  and  C_23
REMARK                            x       y       z     vdW  Elec       q    Type
REMARK                         _______ _______ _______ _____ _____    ______ ____
ROOT
ATOM      1  C   UNL     1       4.656   5.386  17.449  0.00  0.00    +0.000 A 
ATOM      2  C   UNL     1       4.103   6.556  17.826  0.00  0.00    +0.000 A 
ATOM      3  C   UNL     1       2.744   6.602  18.372  0.00  0.00    +0.000 A 
ATOM      4  C   UNL     1       2.072   5.439  18.520  0.00  0.00    +0.000 A 
ATOM      5  N   UNL     1       2.681   4.238  18.153  0.00  0.00    +0.000 N 
ATOM      6  C   UNL     1       2.240   2.930  18.208  0.00  0.00    +0.000 A 
ATOM      7  C   UNL     1       0.905   2.486  18.671  0.00  0.00    +0.000 C 
ATOM      8  N   UNL     1       3.199   2.131  17.781  0.00  0.00    +0.000 NA
ATOM      9  N   UNL     1       4.280   2.901  17.424  0.00  0.00    +0.000 NA
ATOM     10  C   UNL     1       3.963   4.160  17.630  0.00  0.00    +0.000 A 
ENDROOT
BRANCH   3  11
ATOM     11  C   UNL     1       2.067   7.846  18.778  0.00  0.00    +0.000 A 
ATOM     12  C   UNL     1       1.970   8.911  17.875  0.00  0.00    +0.000 A 
ATOM     13  C   UNL     1       1.397  10.119  18.271  0.00  0.00    +0.000 A 
ATOM     14  C   UNL     1       0.926  10.275  19.575  0.00  0.00    +0.000 A 
ATOM     15  C   UNL     1       1.009   9.220  20.494  0.00  0.00    +0.000 A 
ATOM     16  C   UNL     1       1.564   7.997  20.079  0.00  0.00    +0.000 A 
BRANCH  15  17
ATOM     17  C   UNL     1       0.549   9.405  21.920  0.00  0.00    +0.000 C 
ATOM     18  F   UNL     1       0.183  10.687  22.209  0.00  0.00    +0.000 F 
ATOM     19  F   UNL     1      -0.524   8.631  22.238  0.00  0.00    +0.000 F 
ATOM     20  F   UNL     1       1.522   9.089  22.820  0.00  0.00    +0.000 F 
ENDBRANCH  15  17
ENDBRANCH   3  11
BRANCH   1  21
ATOM     21  N   UNL     1       5.983   5.387  16.917  0.00  0.00    +0.000 N 
ATOM     22  H   UNL     1       6.084   4.718  16.151  0.00  0.00    +0.000 HD
BRANCH  21  23
ATOM     23  S   UNL     1       7.169   5.013  18.079  0.00  0.00    +0.000 S 
ATOM     24  O   UNL     1       8.162   4.237  17.365  0.00  0.00    +0.000 OA
ATOM     25  O   UNL     1       6.533   4.505  19.276  0.00  0.00    +0.000 OA
BRANCH  23  27
ATOM     26  C   UNL     1       7.534   7.603  17.299  0.00  0.00    +0.000 C 
ATOM     27  C   UNL     1       7.845   6.632  18.423  0.00  0.00    +0.000 C 
ENDBRANCH  23  27
ENDBRANCH  21  23
ENDBRANCH   1  21
TORSDOF 5
ENDMDL
MODEL 3
REMARK VINA RESULT:      -9.0      1.139      1.266
REMARK  Name = 
REMARK  7 active torsions:
REMARK  status: ('A' for Active; 'I' for Inactive)
REMARK    1  A    between atoms: C_1  and  C_2
REMARK    2  A    between atoms: C_2  and  S_3
REMARK    3  A    between atoms: S_3  and  N_6
REMARK    4  A    between atoms: N_6  and  C_7
REMARK    5  A    between atoms: C_9  and  C_10
REMARK    6  A    between atoms: C_14  and  C_15
REMARK    7  A    between atoms: C_22  and  C_23
REMARK                            x       y       z     vdW  Elec       q    Type
REMARK                         _______ _______ _______ _____ _____    ______ ____
ROOT
ATOM      1  C   UNL     1       4.886   4.720  18.888  0.00  0.00    +0.000 A 
ATOM      2  C   UNL     1       4.331   5.943  19.011  0.00  0.00    +0.000 A 
ATOM      3  C   UNL     1       2.876   6.107  19.042  0.00  0.00    +0.000 A 
ATOM      4  C   UNL     1       2.103   5.000  18.979  0.00  0.00    +0.000 A 
ATOM      5  N   UNL     1       2.704   3.743  18.885  0.00  0.00    +0.000 N 
ATOM      6  C   UNL     1       2.168   2.472  18.821  0.00  0.00    +0.000 A 
ATOM      7  C   UNL     1       0.725   2.141  18.797  0.00  0.00    +0.000 C 
ATOM      8  N   UNL     1       3.149   1.589  18.783  0.00  0.00    +0.000 NA
ATOM      9  N   UNL     1       4.345   2.267  18.807  0.00  0.00    +0.000 NA
ATOM     10  C   UNL     1       4.078   3.554  18.850  0.00  0.00    +0.000 A 
ENDROOT
BRANCH   3  11
ATOM     11  C   UNL     1       2.202   7.413  19.146  0.00  0.00    +0.000 A 
ATOM     12  C   UNL     1       2.176   8.271  18.041  0.00  0.00    +0.000 A 
ATOM     13  C   UNL     1       1.606   9.540  18.149  0.00  0.00    +0.000 A 
ATOM     14  C   UNL     1       1.066   9.962  19.365  0.00  0.00    +0.000 A 
ATOM     15  C   UNL     1       1.077   9.116  20.483  0.00  0.00    +0.000 A 
ATOM     16  C   UNL     1       1.630   7.830  20.358  0.00  0.00    +0.000 A 
BRANCH  15  17
ATOM     17  C   UNL     1       0.542   9.592  21.812  0.00  0.00    +0.000 C 
ATOM     18  F   UNL     1       1.354   9.286  22.864  0.00  0.00    +0.000 F 
ATOM     19  F   UNL     1       0.362  10.940  21.861  0.00  0.00    +0.000 F 
ATOM     20  F   UNL     1      -0.668   9.039  22.107  0.00  0.00    +0.000 F 
ENDBRANCH  15  17
ENDBRANCH   3  11
BRANCH   1  21
ATOM     21  N   UNL     1       6.311   4.606  18.858  0.00  0.00    +0.000 N 
ATOM     22  H   UNL     1       6.759   5.307  19.451  0.00  0.00    +0.000 HD
BRANCH  21  23
ATOM     23  S   UNL     1       6.961   4.772  17.294  0.00  0.00    +0.000 S 
ATOM     24  O   UNL     1       5.892   4.378  16.399  0.00  0.00    +0.000 OA
ATOM     25  O   UNL     1       8.262   4.140  17.239  0.00  0.00    +0.000 OA
BRANCH  23  27
ATOM     26  C   UNL     1       7.958   7.071  18.375  0.00  0.00    +0.000 C 
ATOM     27  C   UNL     1       7.172   6.544  17.189  0.00  0.00    +0.000 C 
ENDBRANCH  23  27
ENDBRANCH  21  23
ENDBRANCH   1  21
TORSDOF 5
ENDMDL
MODEL 4
REMARK VINA RESULT:      -8.8      1.464      1.525
REMARK  Name = 
REMARK  7 active torsions:
REMARK  status: ('A' for Active; 'I' for Inactive)
REMARK    1  A    between atoms: C_1  and  C_2
REMARK    2  A    between atoms: C_2  and  S_3
REMARK    3  A    between atoms: S_3  and  N_6
REMARK    4  A    between atoms: N_6  and  C_7
REMARK    5  A    between atoms: C_9  and  C_10
REMARK    6  A    between atoms: C_14  and  C_15
REMARK    7  A    between atoms: C_22  and  C_23
REMARK                            x       y       z     vdW  Elec       q    Type
REMARK                         _______ _______ _______ _____ _____    ______ ____
ROOT
ATOM      1  C   UNL     1       4.914   4.681  18.974  0.00  0.00    +0.000 A 
ATOM      2  C   UNL     1       4.365   5.908  19.084  0.00  0.00    +0.000 A 
ATOM      3  C   UNL     1       2.910   6.084  19.069  0.00  0.00    +0.000 A 
ATOM      4  C   UNL     1       2.132   4.982  18.979  0.00  0.00    +0.000 A 
ATOM      5  N   UNL     1       2.725   3.721  18.901  0.00  0.00    +0.000 N 
ATOM      6  C   UNL     1       2.182   2.455  18.815  0.00  0.00    +0.000 A 
ATOM      7  C   UNL     1       0.738   2.135  18.745  0.00  0.00    +0.000 C 
ATOM      8  N   UNL     1       3.157   1.564  18.806  0.00  0.00    +0.000 NA
ATOM      9  N   UNL     1       4.356   2.232  18.869  0.00  0.00    +0.000 NA
ATOM     10  C   UNL     1       4.098   3.521  18.908  0.00  0.00    +0.000 A 
ENDROOT
BRANCH   3  11
ATOM     11  C   UNL     1       2.244   7.394  19.156  0.00  0.00    +0.000 A 
ATOM     12  C   UNL     1       2.251   8.251  18.050  0.00  0.00    +0.000 A 
ATOM     13  C   UNL     1       1.687   9.524  18.143  0.00  0.00    +0.000 A 
ATOM     14  C   UNL     1       1.122   9.952  19.344  0.00  0.00    +0.000 A 
ATOM     15  C   UNL     1       1.100   9.107  20.463  0.00  0.00    +0.000 A 
ATOM     16  C   UNL     1       1.647   7.817  20.353  0.00  0.00    +0.000 A 
BRANCH  15  17
ATOM     17  C   UNL     1       0.538   9.589  21.779  0.00  0.00    +0.000 C 
ATOM     18  F   UNL     1       1.348   9.326  22.844  0.00  0.00    +0.000 F 
ATOM     19  F   UNL     1       0.315  10.932  21.803  0.00  0.00    +0.000 F 
ATOM     20  F   UNL     1      -0.657   9.004  22.073  0.00  0.00    +0.000 F 
ENDBRANCH  15  17
ENDBRANCH   3  11
BRANCH   1  21
ATOM     21  N   UNL     1       6.338   4.556  18.988  0.00  0.00    +0.000 N 
ATOM     22  H   UNL     1       6.760   5.121  19.728  0.00  0.00    +0.000 HD
BRANCH  21  23
ATOM     23  S   UNL     1       7.063   5.018  17.520  0.00  0.00    +0.000 S 
ATOM     24  O   UNL     1       8.236   4.176  17.398  0.00  0.00    +0.000 OA
ATOM     25  O   UNL     1       7.162   6.461  17.459  0.00  0.00    +0.000 OA
BRANCH  23  27
ATOM     26  C   UNL     1       5.464   5.590  15.383  0.00  0.00    +0.000 C 
ATOM     27  C   UNL     1       5.840   4.471  16.337  0.00  0.00    +0.000 C 
ENDBRANCH  23  27
ENDBRANCH  21  23
ENDBRANCH   1  21
TORSDOF 5
ENDMDL
MODEL 5
REMARK VINA RESULT:      -8.8      2.157      4.074
REMARK  Name = 
REMARK  7 active torsions:
REMARK  status: ('A' for Active; 'I' for Inactive)
REMARK    1  A    between atoms: C_1  and  C_2
REMARK    2  A    between atoms: C_2  and  S_3
REMARK    3  A    between atoms: S_3  and  N_6
REMARK    4  A    between atoms: N_6  and  C_7
REMARK    5  A    between atoms: C_9  and  C_10
REMARK    6  A    between atoms: C_14  and  C_15
REMARK    7  A    between atoms: C_22  and  C_23
REMARK                            x       y       z     vdW  Elec       q    Type
REMARK                         _______ _______ _______ _____ _____    ______ ____
ROOT
ATOM      1  C   UNL     1       3.723   4.589  17.512  0.00  0.00    +0.000 A 
ATOM      2  C   UNL     1       2.820   5.520  17.879  0.00  0.00    +0.000 A 
ATOM      3  C   UNL     1       3.227   6.908  18.119  0.00  0.00    +0.000 A 
ATOM      4  C   UNL     1       4.524   7.238  17.930  0.00  0.00    +0.000 A 
ATOM      5  N   UNL     1       5.432   6.262  17.518  0.00  0.00    +0.000 N 
ATOM      6  C   UNL     1       6.784   6.323  17.242  0.00  0.00    +0.000 A 
ATOM      7  C   UNL     1       7.639   7.525  17.370  0.00  0.00    +0.000 C 
ATOM      8  N   UNL     1       7.199   5.135  16.843  0.00  0.00    +0.000 NA
ATOM      9  N   UNL     1       6.131   4.271  16.866  0.00  0.00    +0.000 NA
ATOM     10  C   UNL     1       5.080   4.940  17.286  0.00  0.00    +0.000 A 
ENDROOT
BRANCH   3  11
ATOM     11  C   UNL     1       2.300   7.969  18.549  0.00  0.00    +0.000 A 
ATOM     12  C   UNL     1       2.012   9.031  17.685  0.00  0.00    +0.000 A 
ATOM     13  C   UNL     1       1.194  10.080  18.108  0.00  0.00    +0.000 A 
ATOM     14  C   UNL     1       0.667  10.078  19.399  0.00  0.00    +0.000 A 
ATOM     15  C   UNL     1       0.939   9.021  20.280  0.00  0.00    +0.000 A 
ATOM     16  C   UNL     1       1.743   7.956  19.837  0.00  0.00    +0.000 A 
BRANCH  15  17
ATOM     17  C   UNL     1       0.414   9.045  21.695  0.00  0.00    +0.000 C 
ATOM     18  F   UNL     1      -0.628   8.189  21.901  0.00  0.00    +0.000 F 
ATOM     19  F   UNL     1       1.357   8.712  22.618  0.00  0.00    +0.000 F 
ATOM     20  F   UNL     1      -0.046  10.277  22.052  0.00  0.00    +0.000 F 
ENDBRANCH  15  17
ENDBRANCH   3  11
BRANCH   1  21
ATOM     21  N   UNL     1       3.284   3.247  17.293  0.00  0.00    +0.000 N 
ATOM     22  H   UNL     1       2.349   3.218  16.879  0.00  0.00    +0.000 HD
BRANCH  21  23
ATOM     23  S   UNL     1       3.238   2.317  18.717  0.00  0.00    +0.000 S 
ATOM     24  O   UNL     1       3.819   3.166  19.738  0.00  0.00    +0.000 OA
ATOM     25  O   UNL     1       3.759   0.993  18.451  0.00  0.00    +0.000 OA
BRANCH  23  27
ATOM     26  C   UNL     1       1.038   3.155  20.100  0.00  0.00    +0.000 C 
ATOM     27  C   UNL     1       1.477   2.201  19.003  0.00  0.00    +0.000 C 
ENDBRANCH  23  27
ENDBRANCH  21  23
ENDBRANCH   1  21
TORSDOF 5
ENDMDL
MODEL 6
REMARK VINA RESULT:      -8.7      2.030      2.398
REMARK  Name = 
REMARK  7 active torsions:
REMARK  status: ('A' for Active; 'I' for Inactive)
REMARK    1  A    between atoms: C_1  and  C_2
REMARK    2  A    between atoms: C_2  and  S_3
REMARK    3  A    between atoms: S_3  and  N_6
REMARK    4  A    between atoms: N_6  and  C_7
REMARK    5  A    between atoms: C_9  and  C_10
REMARK    6  A    between atoms: C_14  and  C_15
REMARK    7  A    between atoms: C_22  and  C_23
REMARK                            x       y       z     vdW  Elec       q    Type
REMARK                         _______ _______ _______ _____ _____    ______ ____
ROOT
ATOM      1  C   UNL     1       4.692   5.032  17.561  0.00  0.00    +0.000 A 
ATOM      2  C   UNL     1       4.173   6.233  17.885  0.00  0.00    +0.000 A 
ATOM      3  C   UNL     1       2.801   6.348  18.387  0.00  0.00    +0.000 A 
ATOM      4  C   UNL     1       2.081   5.216  18.550  0.00  0.00    +0.000 A 
ATOM      5  N   UNL     1       2.654   3.982  18.239  0.00  0.00    +0.000 N 
ATOM      6  C   UNL     1       2.161   2.694  18.320  0.00  0.00    +0.000 A 
ATOM      7  C   UNL     1       0.797   2.316  18.755  0.00  0.00    +0.000 C 
ATOM      8  N   UNL     1       3.101   1.846  17.948  0.00  0.00    +0.000 NA
ATOM      9  N   UNL     1       4.222   2.563  17.601  0.00  0.00    +0.000 NA
ATOM     10  C   UNL     1       3.947   3.839  17.758  0.00  0.00    +0.000 A 
ENDROOT
BRANCH   3  11
ATOM     11  C   UNL     1       2.161   7.629  18.733  0.00  0.00    +0.000 A 
ATOM     12  C   UNL     1       2.103   8.655  17.784  0.00  0.00    +0.000 A 
ATOM     13  C   UNL     1       1.566   9.897  18.122  0.00  0.00    +0.000 A 
ATOM     14  C   UNL     1       1.091  10.125  19.415  0.00  0.00    +0.000 A 
ATOM     15  C   UNL     1       1.135   9.108  20.380  0.00  0.00    +0.000 A 
ATOM     16  C   UNL     1       1.655   7.852  20.022  0.00  0.00    +0.000 A 
BRANCH  15  17
ATOM     17  C   UNL     1       0.673   9.370  21.793  0.00  0.00    +0.000 C 
ATOM     18  F   UNL     1       0.350  10.675  22.024  0.00  0.00    +0.000 F 
ATOM     19  F   UNL     1      -0.429   8.647  22.135  0.00  0.00    +0.000 F 
ATOM     20  F   UNL     1       1.628   9.059  22.713  0.00  0.00    +0.000 F 
ENDBRANCH  15  17
ENDBRANCH   3  11
BRANCH   1  21
ATOM     21  N   UNL     1       6.033   4.966  17.071  0.00  0.00    +0.000 N 
ATOM     22  H   UNL     1       6.668   5.541  17.628  0.00  0.00    +0.000 HD
BRANCH  21  23
ATOM     23  S   UNL     1       6.178   5.473  15.453  0.00  0.00    +0.000 S 
ATOM     24  O   UNL     1       7.604   5.544  15.207  0.00  0.00    +0.000 OA
ATOM     25  O   UNL     1       5.316   6.613  15.221  0.00  0.00    +0.000 OA
BRANCH  23  27
ATOM     26  C   UNL     1       6.270   3.813  13.288  0.00  0.00    +0.000 C 
ATOM     27  C   UNL     1       5.516   4.059  14.582  0.00  0.00    +0.000 C 
ENDBRANCH  23  27
ENDBRANCH  21  23
ENDBRANCH   1  21
TORSDOF 5
ENDMDL
MODEL 7
REMARK VINA RESULT:      -8.7      1.406      1.769
REMARK  Name = 
REMARK  7 active torsions:
REMARK  status: ('A' for Active; 'I' for Inactive)
REMARK    1  A    between atoms: C_1  and  C_2
REMARK    2  A    between atoms: C_2  and  S_3
REMARK    3  A    between atoms: S_3  and  N_6
REMARK    4  A    between atoms: N_6  and  C_7
REMARK    5  A    between atoms: C_9  and  C_10
REMARK    6  A    between atoms: C_14  and  C_15
REMARK    7  A    between atoms: C_22  and  C_23
REMARK                            x       y       z     vdW  Elec       q    Type
REMARK                         _______ _______ _______ _____ _____    ______ ____
ROOT
ATOM      1  C   UNL     1       3.925   5.128  17.646  0.00  0.00    +0.000 A 
ATOM      2  C   UNL     1       3.371   6.334  17.885  0.00  0.00    +0.000 A 
ATOM      3  C   UNL     1       2.543   6.558  19.073  0.00  0.00    +0.000 A 
ATOM      4  C   UNL     1       2.378   5.536  19.942  0.00  0.00    +0.000 A 
ATOM      5  N   UNL     1       2.990   4.307  19.687  0.00  0.00    +0.000 N 
ATOM      6  C   UNL     1       2.999   3.122  20.396  0.00  0.00    +0.000 A 
ATOM      7  C   UNL     1       2.275   2.865  21.662  0.00  0.00    +0.000 C 
ATOM      8  N   UNL     1       3.761   2.247  19.767  0.00  0.00    +0.000 NA
ATOM      9  N   UNL     1       4.251   2.837  18.627  0.00  0.00    +0.000 NA
ATOM     10  C   UNL     1       3.775   4.062  18.571  0.00  0.00    +0.000 A 
ENDROOT
BRANCH   3  11
ATOM     11  C   UNL     1       1.885   7.839  19.382  0.00  0.00    +0.000 A 
ATOM     12  C   UNL     1       1.868   8.860  18.425  0.00  0.00    +0.000 A 
ATOM     13  C   UNL     1       1.312  10.103  18.732  0.00  0.00    +0.000 A 
ATOM     14  C   UNL     1       0.779  10.336  20.000  0.00  0.00    +0.000 A 
ATOM     15  C   UNL     1       0.782   9.325  20.972  0.00  0.00    +0.000 A 
ATOM     16  C   UNL     1       1.320   8.068  20.646  0.00  0.00    +0.000 A 
BRANCH  15  17
ATOM     17  C   UNL     1       0.254   9.594  22.361  0.00  0.00    +0.000 C 
ATOM     18  F   UNL     1      -0.135  10.887  22.552  0.00  0.00    +0.000 F 
ATOM     19  F   UNL     1      -0.826   8.829  22.677  0.00  0.00    +0.000 F 
ATOM     20  F   UNL     1       1.187   9.345  23.322  0.00  0.00    +0.000 F 
ENDBRANCH  15  17
ENDBRANCH   3  11
BRANCH   1  21
ATOM     21  N   UNL     1       4.721   4.953  16.472  0.00  0.00    +0.000 N 
ATOM     22  H   UNL     1       4.797   3.968  16.210  0.00  0.00    +0.000 HD
BRANCH  21  23
ATOM     23  S   UNL     1       6.304   5.556  16.642  0.00  0.00    +0.000 S 
ATOM     24  O   UNL     1       6.811   4.943  17.853  0.00  0.00    +0.000 OA
ATOM     25  O   UNL     1       6.297   6.994  16.470  0.00  0.00    +0.000 OA
BRANCH  23  27
ATOM     26  C   UNL     1       6.132   4.016  14.395  0.00  0.00    +0.000 C 
ATOM     27  C   UNL     1       7.116   4.807  15.237  0.00  0.00    +0.000 C 
ENDBRANCH  23  27
ENDBRANCH  21  23
ENDBRANCH   1  21
TORSDOF 5
ENDMDL
MODEL 8
REMARK VINA RESULT:      -8.6      1.140      1.541
REMARK  Name = 
REMARK  7 active torsions:
REMARK  status: ('A' for Active; 'I' for Inactive)
REMARK    1  A    between atoms: C_1  and  C_2
REMARK    2  A    between atoms: C_2  and  S_3
REMARK    3  A    between atoms: S_3  and  N_6
REMARK    4  A    between atoms: N_6  and  C_7
REMARK    5  A    between atoms: C_9  and  C_10
REMARK    6  A    between atoms: C_14  and  C_15
REMARK    7  A    between atoms: C_22  and  C_23
REMARK                            x       y       z     vdW  Elec       q    Type
REMARK                         _______ _______ _______ _____ _____    ______ ____
ROOT
ATOM      1  C   UNL     1       4.337   4.997  17.469  0.00  0.00    +0.000 A 
ATOM      2  C   UNL     1       3.747   6.198  17.641  0.00  0.00    +0.000 A 
ATOM      3  C   UNL     1       2.845   6.436  18.771  0.00  0.00    +0.000 A 
ATOM      4  C   UNL     1       2.646   5.433  19.656  0.00  0.00    +0.000 A 
ATOM      5  N   UNL     1       3.295   4.211  19.473  0.00  0.00    +0.000 N 
ATOM      6  C   UNL     1       3.283   3.045  20.213  0.00  0.00    +0.000 A 
ATOM      7  C   UNL     1       2.489   2.807  21.439  0.00  0.00    +0.000 C 
ATOM      8  N   UNL     1       4.098   2.170  19.654  0.00  0.00    +0.000 NA
ATOM      9  N   UNL     1       4.645   2.739  18.530  0.00  0.00    +0.000 NA
ATOM     10  C   UNL     1       4.151   3.952  18.412  0.00  0.00    +0.000 A 
ENDROOT
BRANCH   3  11
ATOM     11  C   UNL     1       2.145   7.711  19.005  0.00  0.00    +0.000 A 
ATOM     12  C   UNL     1       2.182   8.712  18.029  0.00  0.00    +0.000 A 
ATOM     13  C   UNL     1       1.586   9.951  18.269  0.00  0.00    +0.000 A 
ATOM     14  C   UNL     1       0.958  10.200  19.489  0.00  0.00    +0.000 A 
ATOM     15  C   UNL     1       0.905   9.208  20.480  0.00  0.00    +0.000 A 
ATOM     16  C   UNL     1       1.486   7.954  20.219  0.00  0.00    +0.000 A 
BRANCH  15  17
ATOM     17  C   UNL     1       0.273   9.494  21.821  0.00  0.00    +0.000 C 
ATOM     18  F   UNL     1      -0.320  10.721  21.889  0.00  0.00    +0.000 F 
ATOM     19  F   UNL     1      -0.690   8.595  22.158  0.00  0.00    +0.000 F 
ATOM     20  F   UNL     1       1.184   9.469  22.834  0.00  0.00    +0.000 F 
ENDBRANCH  15  17
ENDBRANCH   3  11
BRANCH   1  21
ATOM     21  N   UNL     1       5.206   4.807  16.351  0.00  0.00    +0.000 N 
ATOM     22  H   UNL     1       5.451   3.823  16.224  0.00  0.00    +0.000 HD
BRANCH  21  23
ATOM     23  S   UNL     1       6.661   5.680  16.479  0.00  0.00    +0.000 S 
ATOM     24  O   UNL     1       6.263   7.018  16.868  0.00  0.00    +0.000 OA
ATOM     25  O   UNL     1       7.473   5.447  15.304  0.00  0.00    +0.000 OA
BRANCH  23  27
ATOM     26  C   UNL     1       7.684   5.870  19.003  0.00  0.00    +0.000 C 
ATOM     27  C   UNL     1       7.427   4.879  17.882  0.00  0.00    +0.000 C 
ENDBRANCH  23  27
ENDBRANCH  21  23
ENDBRANCH   1  21
TORSDOF 5
ENDMDL
MODEL 9
REMARK VINA RESULT:      -8.6      1.668      1.819
REMARK  Name = 
REMARK  7 active torsions:
REMARK  status: ('A' for Active; 'I' for Inactive)
REMARK    1  A    between atoms: C_1  and  C_2
REMARK    2  A    between atoms: C_2  and  S_3
REMARK    3  A    between atoms: S_3  and  N_6
REMARK    4  A    between atoms: N_6  and  C_7
REMARK    5  A    between atoms: C_9  and  C_10
REMARK    6  A    between atoms: C_14  and  C_15
REMARK    7  A    between atoms: C_22  and  C_23
REMARK                            x       y       z     vdW  Elec       q    Type
REMARK                         _______ _______ _______ _____ _____    ______ ____
ROOT
ATOM      1  C   UNL     1       4.698   5.313  18.572  0.00  0.00    +0.000 A 
ATOM      2  C   UNL     1       3.990   6.455  18.688  0.00  0.00    +0.000 A 
ATOM      3  C   UNL     1       2.784   6.510  19.518  0.00  0.00    +0.000 A 
ATOM      4  C   UNL     1       2.418   5.398  20.193  0.00  0.00    +0.000 A 
ATOM      5  N   UNL     1       3.188   4.238  20.082  0.00  0.00    +0.000 N 
ATOM      6  C   UNL     1       3.056   2.990  20.659  0.00  0.00    +0.000 A 
ATOM      7  C   UNL     1       1.962   2.566  21.562  0.00  0.00    +0.000 C 
ATOM      8  N   UNL     1       4.064   2.228  20.278  0.00  0.00    +0.000 NA
ATOM      9  N   UNL     1       4.866   2.958  19.432  0.00  0.00    +0.000 NA
ATOM     10  C   UNL     1       4.332   4.152  19.302  0.00  0.00    +0.000 A 
ENDROOT
BRANCH   3  11
ATOM     11  C   UNL     1       1.948   7.713  19.667  0.00  0.00    +0.000 A 
ATOM     12  C   UNL     1       1.815   8.605  18.597  0.00  0.00    +0.000 A 
ATOM     13  C   UNL     1       1.086   9.784  18.749  0.00  0.00    +0.000 A 
ATOM     14  C   UNL     1       0.493  10.086  19.976  0.00  0.00    +0.000 A 
ATOM     15  C   UNL     1       0.609   9.204  21.060  0.00  0.00    +0.000 A 
ATOM     16  C   UNL     1       1.324   8.006  20.890  0.00  0.00    +0.000 A 
BRANCH  15  17
ATOM     17  C   UNL     1       0.013   9.555  22.403  0.00  0.00    +0.000 C 
ATOM     18  F   UNL     1       0.902   9.454  23.433  0.00  0.00    +0.000 F 
ATOM     19  F   UNL     1      -0.473  10.825  22.453  0.00  0.00    +0.000 F 
ATOM     20  F   UNL     1      -1.027   8.739  22.733  0.00  0.00    +0.000 F 
ENDBRANCH  15  17
ENDBRANCH   3  11
BRANCH   1  21
ATOM     21  N   UNL     1       5.866   5.303  17.748  0.00  0.00    +0.000 N 
ATOM     22  H   UNL     1       6.446   6.130  17.904  0.00  0.00    +0.000 HD
BRANCH  21  23
ATOM     23  S   UNL     1       5.509   5.239  16.086  0.00  0.00    +0.000 S 
ATOM     24  O   UNL     1       5.353   6.622  15.681  0.00  0.00    +0.000 OA
ATOM     25  O   UNL     1       4.467   4.262  15.849  0.00  0.00    +0.000 OA
BRANCH  23  27
ATOM     26  C   UNL     1       7.047   4.668  13.904  0.00  0.00    +0.000 C 
ATOM     27  C   UNL     1       7.048   4.618  15.421  0.00  0.00    +0.000 C 
ENDBRANCH  23  27
ENDBRANCH  21  23
ENDBRANCH   1  21
TORSDOF 5
ENDMDL
