MODEL 1
REMARK VINA RESULT:      -6.8      0.000      0.000
REMARK  Name = 
REMARK  7 active torsions:
REMARK  status: ('A' for Active; 'I' for Inactive)
REMARK    1  A    between atoms: C_2  and  C_3
REMARK    2  A    between atoms: C_8  and  C_10
REMARK    3  A    between atoms: C_10  and  N_11
REMARK    4  A    between atoms: N_11  and  N_12
REMARK    5  A    between atoms: N_11  and  C_13
REMARK    6  A    between atoms: N_16  and  C_17
REMARK    7  A    between atoms: C_17  and  C_18
REMARK                            x       y       z     vdW  Elec       q    Type
REMARK                         _______ _______ _______ _____ _____    ______ ____
ROOT
ATOM      1  C   UNL     1      -1.359  12.741  18.967  0.00  0.00    +0.000 C 
ATOM      2  C   UNL     1      -1.200  11.731  17.814  0.00  0.00    +0.000 C 
ATOM      3  C   UNL     1      -0.717  10.375  18.317  0.00  0.00    +0.000 C 
ATOM      4  N   UNL     1       0.608  10.499  18.958  0.00  0.00    +0.000 NA
ATOM      5  C   UNL     1       0.530  11.434  20.095  0.00  0.00    +0.000 C 
ATOM      6  C   UNL     1       0.031  12.808  19.649  0.00  0.00    +0.000 C 
ENDROOT
BRANCH   1   7
ATOM      7  N   UNL     1      -2.492  12.397  19.905  0.00  0.00    +0.000 NA
BRANCH   7   8
ATOM      8  N   UNL     1      -3.731  12.261  19.131  0.00  0.00    +0.000 NA
ATOM      9  H   UNL     1      -3.593  12.698  18.206  0.00  0.00    +0.000 HD
ATOM     10  H   UNL     1      -4.464  12.850  19.538  0.00  0.00    +0.000 HD
ENDBRANCH   7   8
BRANCH   7  11
ATOM     11  C   UNL     1      -2.676  13.518  20.876  0.00  0.00    +0.000 C 
BRANCH  11  17
ATOM     12  C   UNL     1      -4.009  13.083  23.652  0.00  0.00    +0.000 C 
ATOM     13  C   UNL     1      -4.998  12.217  24.424  0.00  0.00    +0.000 C 
ATOM     14  S   UNL     1      -6.626  12.931  24.080  0.00  0.00    +0.000 S 
ATOM     15  C   UNL     1      -6.075  13.846  22.618  0.00  0.00    +0.000 C 
ATOM     16  N   UNL     1      -4.690  13.489  22.390  0.00  0.00    +0.000 N 
ATOM     17  C   UNL     1      -4.128  13.934  21.183  0.00  0.00    +0.000 C 
ATOM     18  O   UNL     1      -4.806  14.595  20.390  0.00  0.00    +0.000 OA
BRANCH  12  20
ATOM     19  N   UNL     1      -1.672  11.641  23.208  0.00  0.00    +0.000 NA
ATOM     20  C   UNL     1      -2.732  12.295  23.409  0.00  0.00    +0.000 C 
ENDBRANCH  12  20
ENDBRANCH  11  17
ENDBRANCH   7  11
ENDBRANCH   1   7
BRANCH   4  21
ATOM     21  C   UNL     1       1.081   9.184  19.449  0.00  0.00    +0.000 C 
BRANCH  21  22
ATOM     22  C   UNL     1       1.988   8.490  18.434  0.00  0.00    +0.000 C 
ATOM     23  O   UNL     1       2.218   9.012  17.345  0.00  0.00    +0.000 OA
ATOM     24  N   UNL     1       2.455   7.255  18.834  0.00  0.00    +0.000 N 
ATOM     25  C   UNL     1       3.334   6.486  18.077  0.00  0.00    +0.000 A 
ATOM     26  C   UNL     1       4.348   7.075  17.323  0.00  0.00    +0.000 A 
ATOM     27  C   UNL     1       5.138   6.272  16.504  0.00  0.00    +0.000 A 
ATOM     28  C   UNL     1       4.877   4.912  16.451  0.00  0.00    +0.000 A 
ATOM     29 CL   UNL     1       5.748   3.897  15.378  0.00  0.00    +0.000 Cl
ATOM     30  C   UNL     1       3.883   4.401  17.274  0.00  0.00    +0.000 A 
ATOM     31  N   UNL     1       3.133   5.154  18.119  0.00  0.00    +0.000 NA
ATOM     32  H   UNL     1       1.941   6.762  19.552  0.00  0.00    +0.000 HD
ENDBRANCH  21  22
ENDBRANCH   4  21
TORSDOF 7
ENDMDL
MODEL 2
REMARK VINA RESULT:      -6.5      8.764     10.642
REMARK  Name = 
REMARK  7 active torsions:
REMARK  status: ('A' for Active; 'I' for Inactive)
REMARK    1  A    between atoms: C_2  and  C_3
REMARK    2  A    between atoms: C_8  and  C_10
REMARK    3  A    between atoms: C_10  and  N_11
REMARK    4  A    between atoms: N_11  and  N_12
REMARK    5  A    between atoms: N_11  and  C_13
REMARK    6  A    between atoms: N_16  and  C_17
REMARK    7  A    between atoms: C_17  and  C_18
REMARK                            x       y       z     vdW  Elec       q    Type
REMARK                         _______ _______ _______ _____ _____    ______ ____
ROOT
ATOM      1  C   UNL     1       4.725   4.967  18.460  0.00  0.00    +0.000 C 
ATOM      2  C   UNL     1       4.311   6.309  17.826  0.00  0.00    +0.000 C 
ATOM      3  C   UNL     1       5.468   6.956  17.074  0.00  0.00    +0.000 C 
ATOM      4  N   UNL     1       6.587   7.249  17.993  0.00  0.00    +0.000 NA
ATOM      5  C   UNL     1       7.059   6.003  18.622  0.00  0.00    +0.000 C 
ATOM      6  C   UNL     1       5.931   5.300  19.375  0.00  0.00    +0.000 C 
ENDROOT
BRANCH   1   7
ATOM      7  N   UNL     1       5.004   3.889  17.439  0.00  0.00    +0.000 NA
BRANCH   7   8
ATOM      8  N   UNL     1       4.559   4.352  16.120  0.00  0.00    +0.000 NA
ATOM      9  H   UNL     1       4.700   3.591  15.436  0.00  0.00    +0.000 HD
ATOM     10  H   UNL     1       5.194   5.075  15.770  0.00  0.00    +0.000 HD
ENDBRANCH   7   8
BRANCH   7  11
ATOM     11  C   UNL     1       4.212   2.671  17.790  0.00  0.00    +0.000 C 
BRANCH  11  17
ATOM     12  C   UNL     1       1.576   2.608  19.441  0.00  0.00    +0.000 C 
ATOM     13  C   UNL     1       0.758   3.353  20.489  0.00  0.00    +0.000 C 
ATOM     14  S   UNL     1       1.427   2.818  22.084  0.00  0.00    +0.000 S 
ATOM     15  C   UNL     1       2.974   2.190  21.387  0.00  0.00    +0.000 C 
ATOM     16  N   UNL     1       2.964   2.506  19.974  0.00  0.00    +0.000 N 
ATOM     17  C   UNL     1       4.166   2.285  19.282  0.00  0.00    +0.000 C 
ATOM     18  O   UNL     1       5.151   1.838  19.878  0.00  0.00    +0.000 OA
BRANCH  12  20
ATOM     19  N   UNL     1       1.441   3.975  17.023  0.00  0.00    +0.000 NA
ATOM     20  C   UNL     1       1.503   3.355  18.119  0.00  0.00    +0.000 C 
ENDBRANCH  12  20
ENDBRANCH  11  17
ENDBRANCH   7  11
ENDBRANCH   1   7
BRANCH   4  21
ATOM     21  C   UNL     1       7.715   7.879  17.267  0.00  0.00    +0.000 C 
BRANCH  21  22
ATOM     22  C   UNL     1       8.443   8.908  18.130  0.00  0.00    +0.000 C 
ATOM     23  O   UNL     1       8.871   8.601  19.240  0.00  0.00    +0.000 OA
ATOM     24  N   UNL     1       8.518  10.169  17.574  0.00  0.00    +0.000 N 
ATOM     25  C   UNL     1       9.184  11.233  18.176  0.00  0.00    +0.000 A 
ATOM     26  C   UNL     1      10.363  11.038  18.893  0.00  0.00    +0.000 A 
ATOM     27  C   UNL     1      10.938  12.117  19.560  0.00  0.00    +0.000 A 
ATOM     28  C   UNL     1      10.306  13.349  19.505  0.00  0.00    +0.000 A 
ATOM     29 CL   UNL     1      10.912  14.682  20.397  0.00  0.00    +0.000 Cl
ATOM     30  C   UNL     1       9.164  13.467  18.726  0.00  0.00    +0.000 A 
ATOM     31  N   UNL     1       8.612  12.444  18.023  0.00  0.00    +0.000 NA
ATOM     32  H   UNL     1       7.846  10.415  16.860  0.00  0.00    +0.000 HD
ENDBRANCH  21  22
ENDBRANCH   4  21
TORSDOF 7
ENDMDL
MODEL 3
REMARK VINA RESULT:      -6.5      8.002     10.367
REMARK  Name = 
REMARK  7 active torsions:
REMARK  status: ('A' for Active; 'I' for Inactive)
REMARK    1  A    between atoms: C_2  and  C_3
REMARK    2  A    between atoms: C_8  and  C_10
REMARK    3  A    between atoms: C_10  and  N_11
REMARK    4  A    between atoms: N_11  and  N_12
REMARK    5  A    between atoms: N_11  and  C_13
REMARK    6  A    between atoms: N_16  and  C_17
REMARK    7  A    between atoms: C_17  and  C_18
REMARK                            x       y       z     vdW  Elec       q    Type
REMARK                         _______ _______ _______ _____ _____    ______ ____
ROOT
ATOM      1  C   UNL     1       5.113   5.512  16.080  0.00  0.00    +0.000 C 
ATOM      2  C   UNL     1       6.595   5.449  15.661  0.00  0.00    +0.000 C 
ATOM      3  C   UNL     1       7.518   5.886  16.793  0.00  0.00    +0.000 C 
ATOM      4  N   UNL     1       7.245   7.286  17.177  0.00  0.00    +0.000 NA
ATOM      5  C   UNL     1       5.845   7.421  17.618  0.00  0.00    +0.000 C 
ATOM      6  C   UNL     1       4.874   6.977  16.526  0.00  0.00    +0.000 C 
ENDROOT
BRANCH   1   7
ATOM      7  N   UNL     1       4.747   4.482  17.123  0.00  0.00    +0.000 NA
BRANCH   7   8
ATOM      8  N   UNL     1       5.301   3.182  16.726  0.00  0.00    +0.000 NA
ATOM      9  H   UNL     1       5.162   2.513  17.500  0.00  0.00    +0.000 HD
ATOM     10  H   UNL     1       6.322   3.238  16.673  0.00  0.00    +0.000 HD
ENDBRANCH   7   8
BRANCH   7  11
ATOM     11  C   UNL     1       3.259   4.352  17.174  0.00  0.00    +0.000 C 
BRANCH  11  17
ATOM     12  C   UNL     1       1.645   4.498  19.830  0.00  0.00    +0.000 C 
ATOM     13  C   UNL     1       1.722   4.269  21.335  0.00  0.00    +0.000 C 
ATOM     14  S   UNL     1       1.383   2.506  21.566  0.00  0.00    +0.000 S 
ATOM     15  C   UNL     1       1.726   2.067  19.844  0.00  0.00    +0.000 C 
ATOM     16  N   UNL     1       2.186   3.269  19.182  0.00  0.00    +0.000 N 
ATOM     17  C   UNL     1       2.700   3.104  17.886  0.00  0.00    +0.000 C 
ATOM     18  O   UNL     1       2.734   1.981  17.372  0.00  0.00    +0.000 OA
BRANCH  12  20
ATOM     19  N   UNL     1       3.077   6.790  19.172  0.00  0.00    +0.000 NA
ATOM     20  C   UNL     1       2.428   5.751  19.470  0.00  0.00    +0.000 C 
ENDBRANCH  12  20
ENDBRANCH  11  17
ENDBRANCH   7  11
ENDBRANCH   1   7
BRANCH   4  21
ATOM     21  C   UNL     1       8.140   7.715  18.277  0.00  0.00    +0.000 C 
BRANCH  21  22
ATOM     22  C   UNL     1       8.468   9.205  18.195  0.00  0.00    +0.000 C 
ATOM     23  O   UNL     1       8.021   9.893  17.280  0.00  0.00    +0.000 OA
ATOM     24  N   UNL     1       9.319   9.658  19.183  0.00  0.00    +0.000 N 
ATOM     25  C   UNL     1       9.698  10.991  19.315  0.00  0.00    +0.000 A 
ATOM     26  C   UNL     1       8.808  12.028  19.043  0.00  0.00    +0.000 A 
ATOM     27  C   UNL     1       9.263  13.343  19.093  0.00  0.00    +0.000 A 
ATOM     28  C   UNL     1      10.595  13.577  19.395  0.00  0.00    +0.000 A 
ATOM     29 CL   UNL     1      11.232  15.169  19.363  0.00  0.00    +0.000 Cl
ATOM     30  C   UNL     1      11.400  12.489  19.704  0.00  0.00    +0.000 A 
ATOM     31  N   UNL     1      10.968  11.202  19.713  0.00  0.00    +0.000 NA
ATOM     32  H   UNL     1       9.907   8.982  19.651  0.00  0.00    +0.000 HD
ENDBRANCH  21  22
ENDBRANCH   4  21
TORSDOF 7
ENDMDL
MODEL 4
REMARK VINA RESULT:      -6.4      5.347      8.418
REMARK  Name = 
REMARK  7 active torsions:
REMARK  status: ('A' for Active; 'I' for Inactive)
REMARK    1  A    between atoms: C_2  and  C_3
REMARK    2  A    between atoms: C_8  and  C_10
REMARK    3  A    between atoms: C_10  and  N_11
REMARK    4  A    between atoms: N_11  and  N_12
REMARK    5  A    between atoms: N_11  and  C_13
REMARK    6  A    between atoms: N_16  and  C_17
REMARK    7  A    between atoms: C_17  and  C_18
REMARK                            x       y       z     vdW  Elec       q    Type
REMARK                         _______ _______ _______ _____ _____    ______ ____
ROOT
ATOM      1  C   UNL     1       3.810   5.016  17.411  0.00  0.00    +0.000 C 
ATOM      2  C   UNL     1       5.026   4.069  17.419  0.00  0.00    +0.000 C 
ATOM      3  C   UNL     1       6.170   4.631  18.255  0.00  0.00    +0.000 C 
ATOM      4  N   UNL     1       6.638   5.918  17.698  0.00  0.00    +0.000 NA
ATOM      5  C   UNL     1       5.531   6.890  17.683  0.00  0.00    +0.000 C 
ATOM      6  C   UNL     1       4.346   6.367  16.873  0.00  0.00    +0.000 C 
ENDROOT
BRANCH   1   7
ATOM      7  N   UNL     1       3.125   5.113  18.753  0.00  0.00    +0.000 NA
BRANCH   7   8
ATOM      8  N   UNL     1       2.045   4.121  18.812  0.00  0.00    +0.000 NA
ATOM      9  H   UNL     1       1.207   4.515  18.354  0.00  0.00    +0.000 HD
ATOM     10  H   UNL     1       1.726   4.009  19.779  0.00  0.00    +0.000 HD
ENDBRANCH   7   8
BRANCH   7  11
ATOM     11  C   UNL     1       2.511   6.469  18.887  0.00  0.00    +0.000 C 
BRANCH  11  17
ATOM     12  C   UNL     1       0.902   9.082  19.394  0.00  0.00    +0.000 C 
ATOM     13  C   UNL     1       0.950  10.452  20.063  0.00  0.00    +0.000 C 
ATOM     14  S   UNL     1       0.456  10.160  21.780  0.00  0.00    +0.000 S 
ATOM     15  C   UNL     1       0.768   8.378  21.718  0.00  0.00    +0.000 C 
ATOM     16  N   UNL     1       1.336   8.091  20.418  0.00  0.00    +0.000 N 
ATOM     17  C   UNL     1       1.841   6.793  20.237  0.00  0.00    +0.000 C 
ATOM     18  O   UNL     1       1.779   5.970  21.157  0.00  0.00    +0.000 OA
BRANCH  12  20
ATOM     19  N   UNL     1       2.534   9.099  17.142  0.00  0.00    +0.000 NA
ATOM     20  C   UNL     1       1.794   9.092  18.163  0.00  0.00    +0.000 C 
ENDBRANCH  12  20
ENDBRANCH  11  17
ENDBRANCH   7  11
ENDBRANCH   1   7
BRANCH   4  21
ATOM     21  C   UNL     1       7.751   6.468  18.507  0.00  0.00    +0.000 C 
BRANCH  21  22
ATOM     22  C   UNL     1       8.148   7.870  18.049  0.00  0.00    +0.000 C 
ATOM     23  O   UNL     1       8.038   8.196  16.869  0.00  0.00    +0.000 OA
ATOM     24  N   UNL     1       8.665   8.673  19.046  0.00  0.00    +0.000 N 
ATOM     25  C   UNL     1       9.039   9.998  18.846  0.00  0.00    +0.000 A 
ATOM     26  C   UNL     1       8.321  10.832  17.990  0.00  0.00    +0.000 A 
ATOM     27  C   UNL     1       8.791  12.120  17.746  0.00  0.00    +0.000 A 
ATOM     28  C   UNL     1       9.971  12.525  18.350  0.00  0.00    +0.000 A 
ATOM     29 CL   UNL     1      10.649  14.060  17.998  0.00  0.00    +0.000 Cl
ATOM     30  C   UNL     1      10.593  11.650  19.229  0.00  0.00    +0.000 A 
ATOM     31  N   UNL     1      10.128  10.409  19.524  0.00  0.00    +0.000 NA
ATOM     32  H   UNL     1       9.050   8.223  19.867  0.00  0.00    +0.000 HD
ENDBRANCH  21  22
ENDBRANCH   4  21
TORSDOF 7
ENDMDL
MODEL 5
REMARK VINA RESULT:      -6.3      1.355      1.520
REMARK  Name = 
REMARK  7 active torsions:
REMARK  status: ('A' for Active; 'I' for Inactive)
REMARK    1  A    between atoms: C_2  and  C_3
REMARK    2  A    between atoms: C_8  and  C_10
REMARK    3  A    between atoms: C_10  and  N_11
REMARK    4  A    between atoms: N_11  and  N_12
REMARK    5  A    between atoms: N_11  and  C_13
REMARK    6  A    between atoms: N_16  and  C_17
REMARK    7  A    between atoms: C_17  and  C_18
REMARK                            x       y       z     vdW  Elec       q    Type
REMARK                         _______ _______ _______ _____ _____    ______ ____
ROOT
ATOM      1  C   UNL     1      -0.549  12.848  19.866  0.00  0.00    +0.000 C 
ATOM      2  C   UNL     1      -0.463  12.118  18.512  0.00  0.00    +0.000 C 
ATOM      3  C   UNL     1      -0.285  10.615  18.695  0.00  0.00    +0.000 C 
ATOM      4  N   UNL     1       0.972  10.324  19.414  0.00  0.00    +0.000 NA
ATOM      5  C   UNL     1       0.954  10.970  20.738  0.00  0.00    +0.000 C 
ATOM      6  C   UNL     1       0.758  12.480  20.614  0.00  0.00    +0.000 C 
ENDROOT
BRANCH   1   7
ATOM      7  N   UNL     1      -1.810  12.531  20.633  0.00  0.00    +0.000 NA
BRANCH   7   8
ATOM      8  N   UNL     1      -2.971  12.790  19.773  0.00  0.00    +0.000 NA
ATOM      9  H   UNL     1      -3.820  12.444  20.249  0.00  0.00    +0.000 HD
ATOM     10  H   UNL     1      -2.932  12.191  18.943  0.00  0.00    +0.000 HD
ENDBRANCH   7   8
BRANCH   7  11
ATOM     11  C   UNL     1      -1.902  13.441  21.815  0.00  0.00    +0.000 C 
BRANCH  11  17
ATOM     12  C   UNL     1      -4.115  14.611  23.660  0.00  0.00    +0.000 C 
ATOM     13  C   UNL     1      -5.611  14.881  23.775  0.00  0.00    +0.000 C 
ATOM     14  S   UNL     1      -5.874  16.467  22.943  0.00  0.00    +0.000 S 
ATOM     15  C   UNL     1      -4.304  16.420  22.044  0.00  0.00    +0.000 C 
ATOM     16  N   UNL     1      -3.685  15.144  22.337  0.00  0.00    +0.000 N 
ATOM     17  C   UNL     1      -2.549  14.819  21.577  0.00  0.00    +0.000 C 
ATOM     18  O   UNL     1      -2.129  15.606  20.723  0.00  0.00    +0.000 OA
BRANCH  12  20
ATOM     19  N   UNL     1      -3.647  11.884  23.935  0.00  0.00    +0.000 NA
ATOM     20  C   UNL     1      -3.859  13.121  23.811  0.00  0.00    +0.000 C 
ENDBRANCH  12  20
ENDBRANCH  11  17
ENDBRANCH   7  11
ENDBRANCH   1   7
BRANCH   4  21
ATOM     21  C   UNL     1       1.150   8.863  19.594  0.00  0.00    +0.000 C 
BRANCH  21  22
ATOM     22  C   UNL     1       2.055   8.264  18.519  0.00  0.00    +0.000 C 
ATOM     23  O   UNL     1       2.238   8.855  17.457  0.00  0.00    +0.000 OA
ATOM     24  N   UNL     1       2.576   7.026  18.835  0.00  0.00    +0.000 N 
ATOM     25  C   UNL     1       3.462   6.335  18.013  0.00  0.00    +0.000 A 
ATOM     26  C   UNL     1       4.434   7.003  17.271  0.00  0.00    +0.000 A 
ATOM     27  C   UNL     1       5.232   6.279  16.389  0.00  0.00    +0.000 A 
ATOM     28  C   UNL     1       5.018   4.915  16.263  0.00  0.00    +0.000 A 
ATOM     29 CL   UNL     1       5.898   3.997  15.112  0.00  0.00    +0.000 Cl
ATOM     30  C   UNL     1       4.065   4.322  17.078  0.00  0.00    +0.000 A 
ATOM     31  N   UNL     1       3.311   4.996  17.984  0.00  0.00    +0.000 NA
ATOM     32  H   UNL     1       2.099   6.473  19.535  0.00  0.00    +0.000 HD
ENDBRANCH  21  22
ENDBRANCH   4  21
TORSDOF 7
ENDMDL
MODEL 6
REMARK VINA RESULT:      -6.3      8.842     10.613
REMARK  Name = 
REMARK  7 active torsions:
REMARK  status: ('A' for Active; 'I' for Inactive)
REMARK    1  A    between atoms: C_2  and  C_3
REMARK    2  A    between atoms: C_8  and  C_10
REMARK    3  A    between atoms: C_10  and  N_11
REMARK    4  A    between atoms: N_11  and  N_12
REMARK    5  A    between atoms: N_11  and  C_13
REMARK    6  A    between atoms: N_16  and  C_17
REMARK    7  A    between atoms: C_17  and  C_18
REMARK                            x       y       z     vdW  Elec       q    Type
REMARK                         _______ _______ _______ _____ _____    ______ ____
ROOT
ATOM      1  C   UNL     1       5.220   5.076  16.395  0.00  0.00    +0.000 C 
ATOM      2  C   UNL     1       6.612   4.499  16.717  0.00  0.00    +0.000 C 
ATOM      3  C   UNL     1       7.278   5.246  17.867  0.00  0.00    +0.000 C 
ATOM      4  N   UNL     1       7.478   6.667  17.517  0.00  0.00    +0.000 NA
ATOM      5  C   UNL     1       6.181   7.299  17.220  0.00  0.00    +0.000 C 
ATOM      6  C   UNL     1       5.459   6.575  16.085  0.00  0.00    +0.000 C 
ENDROOT
BRANCH   1   7
ATOM      7  N   UNL     1       4.206   4.825  17.486  0.00  0.00    +0.000 NA
BRANCH   7   8
ATOM      8  N   UNL     1       4.687   5.428  18.734  0.00  0.00    +0.000 NA
ATOM      9  H   UNL     1       5.701   5.601  18.650  0.00  0.00    +0.000 HD
ATOM     10  H   UNL     1       4.650   4.740  19.493  0.00  0.00    +0.000 HD
ENDBRANCH   7   8
BRANCH   7  11
ATOM     11  C   UNL     1       4.084   3.352  17.705  0.00  0.00    +0.000 C 
BRANCH  11  17
ATOM     12  C   UNL     1       1.594   2.671  19.441  0.00  0.00    +0.000 C 
ATOM     13  C   UNL     1       0.705   3.172  20.575  0.00  0.00    +0.000 C 
ATOM     14  S   UNL     1       1.544   2.662  22.096  0.00  0.00    +0.000 S 
ATOM     15  C   UNL     1       3.144   2.391  21.295  0.00  0.00    +0.000 C 
ATOM     16  N   UNL     1       3.002   2.798  19.913  0.00  0.00    +0.000 N 
ATOM     17  C   UNL     1       4.187   2.859  19.162  0.00  0.00    +0.000 C 
ATOM     18  O   UNL     1       5.267   2.567  19.684  0.00  0.00    +0.000 OA
BRANCH  12  20
ATOM     19  N   UNL     1       1.082   4.156  17.145  0.00  0.00    +0.000 NA
ATOM     20  C   UNL     1       1.315   3.483  18.186  0.00  0.00    +0.000 C 
ENDBRANCH  12  20
ENDBRANCH  11  17
ENDBRANCH   7  11
ENDBRANCH   1   7
BRANCH   4  21
ATOM     21  C   UNL     1       8.126   7.398  18.632  0.00  0.00    +0.000 C 
BRANCH  21  22
ATOM     22  C   UNL     1       8.545   8.808  18.220  0.00  0.00    +0.000 C 
ATOM     23  O   UNL     1       8.369   9.201  17.070  0.00  0.00    +0.000 OA
ATOM     24  N   UNL     1       9.159   9.537  19.219  0.00  0.00    +0.000 N 
ATOM     25  C   UNL     1       9.570  10.857  19.062  0.00  0.00    +0.000 A 
ATOM     26  C   UNL     1       8.830  11.761  18.302  0.00  0.00    +0.000 A 
ATOM     27  C   UNL     1       9.331  13.043  18.093  0.00  0.00    +0.000 A 
ATOM     28  C   UNL     1      10.564  13.373  18.634  0.00  0.00    +0.000 A 
ATOM     29 CL   UNL     1      11.277  14.900  18.315  0.00  0.00    +0.000 Cl
ATOM     30  C   UNL     1      11.209  12.430  19.421  0.00  0.00    +0.000 A 
ATOM     31  N   UNL     1      10.718  11.192  19.684  0.00  0.00    +0.000 NA
ATOM     32  H   UNL     1       9.581   9.030  19.987  0.00  0.00    +0.000 HD
ENDBRANCH  21  22
ENDBRANCH   4  21
TORSDOF 7
ENDMDL
MODEL 7
REMARK VINA RESULT:      -6.2      2.307      3.126
REMARK  Name = 
REMARK  7 active torsions:
REMARK  status: ('A' for Active; 'I' for Inactive)
REMARK    1  A    between atoms: C_2  and  C_3
REMARK    2  A    between atoms: C_8  and  C_10
REMARK    3  A    between atoms: C_10  and  N_11
REMARK    4  A    between atoms: N_11  and  N_12
REMARK    5  A    between atoms: N_11  and  C_13
REMARK    6  A    between atoms: N_16  and  C_17
REMARK    7  A    between atoms: C_17  and  C_18
REMARK                            x       y       z     vdW  Elec       q    Type
REMARK                         _______ _______ _______ _____ _____    ______ ____
ROOT
ATOM      1  C   UNL     1       0.143  10.753  19.667  0.00  0.00    +0.000 C 
ATOM      2  C   UNL     1       1.438  10.354  18.934  0.00  0.00    +0.000 C 
ATOM      3  C   UNL     1       1.622   8.841  18.902  0.00  0.00    +0.000 C 
ATOM      4  N   UNL     1       1.726   8.300  20.273  0.00  0.00    +0.000 NA
ATOM      5  C   UNL     1       0.505   8.620  21.033  0.00  0.00    +0.000 C 
ATOM      6  C   UNL     1       0.261  10.128  21.079  0.00  0.00    +0.000 C 
ENDROOT
BRANCH   1   7
ATOM      7  N   UNL     1      -1.108  10.358  18.918  0.00  0.00    +0.000 NA
BRANCH   7   8
ATOM      8  N   UNL     1      -0.770  10.123  17.510  0.00  0.00    +0.000 NA
ATOM      9  H   UNL     1       0.255  10.026  17.427  0.00  0.00    +0.000 HD
ATOM     10  H   UNL     1      -0.949  10.969  16.961  0.00  0.00    +0.000 HD
ENDBRANCH   7   8
BRANCH   7  11
ATOM     11  C   UNL     1      -2.085  11.488  18.974  0.00  0.00    +0.000 C 
BRANCH  11  17
ATOM     12  C   UNL     1      -4.766  12.720  19.957  0.00  0.00    +0.000 C 
ATOM     13  C   UNL     1      -6.085  12.409  20.656  0.00  0.00    +0.000 C 
ATOM     14  S   UNL     1      -7.181  11.796  19.352  0.00  0.00    +0.000 S 
ATOM     15  C   UNL     1      -5.838  11.430  18.196  0.00  0.00    +0.000 C 
ATOM     16  N   UNL     1      -4.595  11.695  18.889  0.00  0.00    +0.000 N 
ATOM     17  C   UNL     1      -3.423  11.281  18.237  0.00  0.00    +0.000 C 
ATOM     18  O   UNL     1      -3.489  10.733  17.132  0.00  0.00    +0.000 OA
BRANCH  12  20
ATOM     19  N   UNL     1      -2.706  12.695  21.825  0.00  0.00    +0.000 NA
ATOM     20  C   UNL     1      -3.640  12.706  20.978  0.00  0.00    +0.000 C 
ENDBRANCH  12  20
ENDBRANCH  11  17
ENDBRANCH   7  11
ENDBRANCH   1   7
BRANCH   4  21
ATOM     21  C   UNL     1       1.906   6.829  20.247  0.00  0.00    +0.000 C 
BRANCH  21  22
ATOM     22  C   UNL     1       2.618   6.365  18.978  0.00  0.00    +0.000 C 
ATOM     23  O   UNL     1       1.973   5.948  18.018  0.00  0.00    +0.000 OA
ATOM     24  N   UNL     1       3.995   6.416  19.044  0.00  0.00    +0.000 N 
ATOM     25  C   UNL     1       4.826   6.085  17.977  0.00  0.00    +0.000 A 
ATOM     26  C   UNL     1       4.474   6.389  16.663  0.00  0.00    +0.000 A 
ATOM     27  C   UNL     1       5.290   5.951  15.623  0.00  0.00    +0.000 A 
ATOM     28  C   UNL     1       6.419   5.207  15.930  0.00  0.00    +0.000 A 
ATOM     29 CL   UNL     1       7.397   4.551  14.683  0.00  0.00    +0.000 Cl
ATOM     30  C   UNL     1       6.723   4.995  17.267  0.00  0.00    +0.000 A 
ATOM     31  N   UNL     1       5.973   5.456  18.301  0.00  0.00    +0.000 NA
ATOM     32  H   UNL     1       4.428   6.418  19.958  0.00  0.00    +0.000 HD
ENDBRANCH  21  22
ENDBRANCH   4  21
TORSDOF 7
ENDMDL
MODEL 8
REMARK VINA RESULT:      -6.2      1.599      2.075
REMARK  Name = 
REMARK  7 active torsions:
REMARK  status: ('A' for Active; 'I' for Inactive)
REMARK    1  A    between atoms: C_2  and  C_3
REMARK    2  A    between atoms: C_8  and  C_10
REMARK    3  A    between atoms: C_10  and  N_11
REMARK    4  A    between atoms: N_11  and  N_12
REMARK    5  A    between atoms: N_11  and  C_13
REMARK    6  A    between atoms: N_16  and  C_17
REMARK    7  A    between atoms: C_17  and  C_18
REMARK                            x       y       z     vdW  Elec       q    Type
REMARK                         _______ _______ _______ _____ _____    ______ ____
ROOT
ATOM      1  C   UNL     1      -2.257  12.190  18.315  0.00  0.00    +0.000 C 
ATOM      2  C   UNL     1      -2.057  10.878  17.532  0.00  0.00    +0.000 C 
ATOM      3  C   UNL     1      -1.173   9.898  18.295  0.00  0.00    +0.000 C 
ATOM      4  N   UNL     1       0.171  10.471  18.513  0.00  0.00    +0.000 NA
ATOM      5  C   UNL     1       0.064  11.722  19.284  0.00  0.00    +0.000 C 
ATOM      6  C   UNL     1      -0.830  12.736  18.572  0.00  0.00    +0.000 C 
ENDROOT
BRANCH   1   7
ATOM      7  N   UNL     1      -3.087  12.015  19.565  0.00  0.00    +0.000 NA
BRANCH   7   8
ATOM      8  N   UNL     1      -4.507  11.986  19.197  0.00  0.00    +0.000 NA
ATOM      9  H   UNL     1      -4.986  12.773  19.664  0.00  0.00    +0.000 HD
ATOM     10  H   UNL     1      -4.963  11.175  19.625  0.00  0.00    +0.000 HD
ENDBRANCH   7   8
BRANCH   7  11
ATOM     11  C   UNL     1      -2.867  13.190  20.462  0.00  0.00    +0.000 C 
BRANCH  11  17
ATOM     12  C   UNL     1      -3.556  15.860  21.901  0.00  0.00    +0.000 C 
ATOM     13  C   UNL     1      -3.229  16.732  23.108  0.00  0.00    +0.000 C 
ATOM     14  S   UNL     1      -4.248  16.081  24.456  0.00  0.00    +0.000 S 
ATOM     15  C   UNL     1      -4.561  14.493  23.644  0.00  0.00    +0.000 C 
ATOM     16  N   UNL     1      -3.790  14.482  22.419  0.00  0.00    +0.000 N 
ATOM     17  C   UNL     1      -3.732  13.256  21.736  0.00  0.00    +0.000 C 
ATOM     18  O   UNL     1      -4.324  12.269  22.184  0.00  0.00    +0.000 OA
BRANCH  12  20
ATOM     19  N   UNL     1      -1.462  15.991  20.075  0.00  0.00    +0.000 NA
ATOM     20  C   UNL     1      -2.412  15.931  20.903  0.00  0.00    +0.000 C 
ENDBRANCH  12  20
ENDBRANCH  11  17
ENDBRANCH   7  11
ENDBRANCH   1   7
BRANCH   4  21
ATOM     21  C   UNL     1       1.035   9.521  19.254  0.00  0.00    +0.000 C 
BRANCH  21  22
ATOM     22  C   UNL     1       1.944   8.728  18.316  0.00  0.00    +0.000 C 
ATOM     23  O   UNL     1       2.255   9.183  17.218  0.00  0.00    +0.000 OA
ATOM     24  N   UNL     1       2.315   7.488  18.794  0.00  0.00    +0.000 N 
ATOM     25  C   UNL     1       3.179   6.633  18.116  0.00  0.00    +0.000 A 
ATOM     26  C   UNL     1       4.261   7.124  17.387  0.00  0.00    +0.000 A 
ATOM     27  C   UNL     1       5.038   6.239  16.645  0.00  0.00    +0.000 A 
ATOM     28  C   UNL     1       4.696   4.895  16.640  0.00  0.00    +0.000 A 
ATOM     29 CL   UNL     1       5.553   3.781  15.658  0.00  0.00    +0.000 Cl
ATOM     30  C   UNL     1       3.636   4.484  17.434  0.00  0.00    +0.000 A 
ATOM     31  N   UNL     1       2.895   5.319  18.208  0.00  0.00    +0.000 NA
ATOM     32  H   UNL     1       1.738   7.060  19.506  0.00  0.00    +0.000 HD
ENDBRANCH  21  22
ENDBRANCH   4  21
TORSDOF 7
ENDMDL
MODEL 9
REMARK VINA RESULT:      -6.2      2.761      3.270
REMARK  Name = 
REMARK  7 active torsions:
REMARK  status: ('A' for Active; 'I' for Inactive)
REMARK    1  A    between atoms: C_2  and  C_3
REMARK    2  A    between atoms: C_8  and  C_10
REMARK    3  A    between atoms: C_10  and  N_11
REMARK    4  A    between atoms: N_11  and  N_12
REMARK    5  A    between atoms: N_11  and  C_13
REMARK    6  A    between atoms: N_16  and  C_17
REMARK    7  A    between atoms: C_17  and  C_18
REMARK                            x       y       z     vdW  Elec       q    Type
REMARK                         _______ _______ _______ _____ _____    ______ ____
ROOT
ATOM      1  C   UNL     1      -0.933  12.574  19.200  0.00  0.00    +0.000 C 
ATOM      2  C   UNL     1      -1.196  11.155  18.660  0.00  0.00    +0.000 C 
ATOM      3  C   UNL     1      -0.738  10.085  19.645  0.00  0.00    +0.000 C 
ATOM      4  N   UNL     1       0.717  10.186  19.883  0.00  0.00    +0.000 NA
ATOM      5  C   UNL     1       1.045  11.515  20.429  0.00  0.00    +0.000 C 
ATOM      6  C   UNL     1       0.589  12.629  19.488  0.00  0.00    +0.000 C 
ENDROOT
BRANCH   1   7
ATOM      7  N   UNL     1      -1.799  12.928  20.385  0.00  0.00    +0.000 NA
BRANCH   7   8
ATOM      8  N   UNL     1      -3.203  12.966  19.958  0.00  0.00    +0.000 NA
ATOM      9  H   UNL     1      -3.796  13.146  20.784  0.00  0.00    +0.000 HD
ATOM     10  H   UNL     1      -3.508  12.030  19.676  0.00  0.00    +0.000 HD
ENDBRANCH   7   8
BRANCH   7  11
ATOM     11  C   UNL     1      -1.428  14.293  20.867  0.00  0.00    +0.000 C 
BRANCH  11  17
ATOM     12  C   UNL     1      -3.166  15.494  23.150  0.00  0.00    +0.000 C 
ATOM     13  C   UNL     1      -3.372  16.723  24.029  0.00  0.00    +0.000 C 
ATOM     14  S   UNL     1      -2.218  16.518  25.410  0.00  0.00    +0.000 S 
ATOM     15  C   UNL     1      -1.195  15.290  24.562  0.00  0.00    +0.000 C 
ATOM     16  N   UNL     1      -1.716  15.158  23.217  0.00  0.00    +0.000 N 
ATOM     17  C   UNL     1      -0.939  14.401  22.325  0.00  0.00    +0.000 C 
ATOM     18  O   UNL     1       0.118  13.887  22.706  0.00  0.00    +0.000 OA
BRANCH  12  20
ATOM     19  N   UNL     1      -4.032  16.053  20.567  0.00  0.00    +0.000 NA
ATOM     20  C   UNL     1      -3.639  15.800  21.739  0.00  0.00    +0.000 C 
ENDBRANCH  12  20
ENDBRANCH  11  17
ENDBRANCH   7  11
ENDBRANCH   1   7
BRANCH   4  21
ATOM     21  C   UNL     1       1.168   9.148  20.840  0.00  0.00    +0.000 C 
BRANCH  21  22
ATOM     22  C   UNL     1       1.737   7.924  20.125  0.00  0.00    +0.000 C 
ATOM     23  O   UNL     1       2.228   8.029  19.004  0.00  0.00    +0.000 OA
ATOM     24  N   UNL     1       1.601   6.740  20.821  0.00  0.00    +0.000 N 
ATOM     25  C   UNL     1       2.098   5.522  20.367  0.00  0.00    +0.000 A 
ATOM     26  C   UNL     1       3.306   5.446  19.675  0.00  0.00    +0.000 A 
ATOM     27  C   UNL     1       3.713   4.220  19.154  0.00  0.00    +0.000 A 
ATOM     28  C   UNL     1       2.892   3.117  19.326  0.00  0.00    +0.000 A 
ATOM     29 CL   UNL     1       3.294   1.610  18.611  0.00  0.00    +0.000 Cl
ATOM     30  C   UNL     1       1.733   3.271  20.072  0.00  0.00    +0.000 A 
ATOM     31  N   UNL     1       1.339   4.442  20.635  0.00  0.00    +0.000 NA
ATOM     32  H   UNL     1       0.886   6.688  21.535  0.00  0.00    +0.000 HD
ENDBRANCH  21  22
ENDBRANCH   4  21
TORSDOF 7
ENDMDL
