MODEL 1
REMARK VINA RESULT:      -8.0      0.000      0.000
REMARK  Name = 
REMARK  9 active torsions:
REMARK  status: ('A' for Active; 'I' for Inactive)
REMARK    1  A    between atoms: C_1  and  C_2
REMARK    2  A    between atoms: C_2  and  N_3
REMARK    3  A    between atoms: N_3  and  C_4
REMARK    4  A    between atoms: C_4  and  C_5
REMARK    5  A    between atoms: N_7  and  C_8
REMARK    6  A    between atoms: C_8  and  C_9
REMARK    7  A    between atoms: C_16  and  C_18
REMARK    8  A    between atoms: C_21  and  C_22
REMARK    9  A    between atoms: C_22  and  C_24
REMARK                            x       y       z     vdW  Elec       q    Type
REMARK                         _______ _______ _______ _____ _____    ______ ____
ROOT
ATOM      1  N   UNL     1       3.594   3.748  18.493  0.00  0.00    +0.000 N 
ATOM      2  C   UNL     1       2.315   4.319  18.578  0.00  0.00    +0.000 C 
ATOM      3  O   UNL     1       1.307   3.728  18.185  0.00  0.00    +0.000 OA
ENDROOT
BRANCH   2   4
ATOM      4  C   UNL     1       2.093   5.680  19.151  0.00  0.00    +0.000 A 
ATOM      5  C   UNL     1       2.280   6.860  18.426  0.00  0.00    +0.000 A 
ATOM      6  C   UNL     1       2.036   8.103  19.013  0.00  0.00    +0.000 A 
ATOM      7  C   UNL     1       1.517   8.182  20.308  0.00  0.00    +0.000 A 
ATOM      8  C   UNL     1       1.236   7.003  21.007  0.00  0.00    +0.000 A 
ATOM      9  C   UNL     1       1.546   5.763  20.440  0.00  0.00    +0.000 A 
BRANCH   7  10
ATOM     10  C   UNL     1       1.203   9.533  20.842  0.00  0.00    +0.000 C 
ATOM     11  O   UNL     1       1.538   9.814  21.991  0.00  0.00    +0.000 OA
BRANCH  10  12
ATOM     12  C   UNL     1       0.513  10.558  20.027  0.00  0.00    +0.000 A 
ATOM     13  C   UNL     1       1.205  11.738  19.730  0.00  0.00    +0.000 A 
ATOM     14  C   UNL     1       0.599  12.719  18.945  0.00  0.00    +0.000 A 
ATOM     15  C   UNL     1      -0.696  12.525  18.465  0.00  0.00    +0.000 A 
ATOM     16  C   UNL     1      -1.398  11.363  18.785  0.00  0.00    +0.000 A 
ATOM     17  C   UNL     1      -0.801  10.384  19.579  0.00  0.00    +0.000 A 
ENDBRANCH  10  12
ENDBRANCH   7  10
ENDBRANCH   2   4
BRANCH   1  19
ATOM     18  C   UNL     1       3.725   1.265  18.626  0.00  0.00    +0.000 C 
ATOM     19  C   UNL     1       3.694   2.498  17.733  0.00  0.00    +0.000 C 
ENDBRANCH   1  19
BRANCH   1  20
ATOM     20  C   UNL     1       4.811   4.338  19.069  0.00  0.00    +0.000 C 
BRANCH  20  21
ATOM     21  C   UNL     1       6.073   4.708  18.266  0.00  0.00    +0.000 C 
ATOM     22  O   UNL     1       7.208   4.308  18.515  0.00  0.00    +0.000 OA
ATOM     23  N   UNL     1       5.792   5.538  17.191  0.00  0.00    +0.000 N 
ATOM     24  H   UNL     1       4.842   5.833  17.012  0.00  0.00    +0.000 HD
BRANCH  23  25
ATOM     25  C   UNL     1       6.797   5.869  16.207  0.00  0.00    +0.000 C 
BRANCH  25  26
ATOM     26  C   UNL     1       6.600   5.100  14.922  0.00  0.00    +0.000 A 
ATOM     27  C   UNL     1       7.533   5.186  13.874  0.00  0.00    +0.000 A 
ATOM     28  C   UNL     1       7.357   4.438  12.707  0.00  0.00    +0.000 A 
ATOM     29  C   UNL     1       6.249   3.608  12.582  0.00  0.00    +0.000 A 
ATOM     30  F   UNL     1       6.093   2.878  11.469  0.00  0.00    +0.000 F 
ATOM     31  C   UNL     1       5.304   3.525  13.595  0.00  0.00    +0.000 A 
ATOM     32  C   UNL     1       5.474   4.275  14.761  0.00  0.00    +0.000 A 
ENDBRANCH  25  26
ENDBRANCH  23  25
ENDBRANCH  20  21
ENDBRANCH   1  20
TORSDOF 8
ENDMDL
MODEL 2
REMARK VINA RESULT:      -8.0      1.404      2.057
REMARK  Name = 
REMARK  9 active torsions:
REMARK  status: ('A' for Active; 'I' for Inactive)
REMARK    1  A    between atoms: C_1  and  C_2
REMARK    2  A    between atoms: C_2  and  N_3
REMARK    3  A    between atoms: N_3  and  C_4
REMARK    4  A    between atoms: C_4  and  C_5
REMARK    5  A    between atoms: N_7  and  C_8
REMARK    6  A    between atoms: C_8  and  C_9
REMARK    7  A    between atoms: C_16  and  C_18
REMARK    8  A    between atoms: C_21  and  C_22
REMARK    9  A    between atoms: C_22  and  C_24
REMARK                            x       y       z     vdW  Elec       q    Type
REMARK                         _______ _______ _______ _____ _____    ______ ____
ROOT
ATOM      1  N   UNL     1       4.278   5.005  19.169  0.00  0.00    +0.000 N 
ATOM      2  C   UNL     1       3.032   5.425  19.658  0.00  0.00    +0.000 C 
ATOM      3  O   UNL     1       2.316   4.690  20.340  0.00  0.00    +0.000 OA
ENDROOT
BRANCH   2   4
ATOM      4  C   UNL     1       2.494   6.790  19.383  0.00  0.00    +0.000 A 
ATOM      5  C   UNL     1       2.482   7.371  18.111  0.00  0.00    +0.000 A 
ATOM      6  C   UNL     1       1.946   8.645  17.915  0.00  0.00    +0.000 A 
ATOM      7  C   UNL     1       1.332   9.323  18.972  0.00  0.00    +0.000 A 
ATOM      8  C   UNL     1       1.252   8.708  20.226  0.00  0.00    +0.000 A 
ATOM      9  C   UNL     1       1.852   7.461  20.434  0.00  0.00    +0.000 A 
BRANCH   7  10
ATOM     10  C   UNL     1       0.708  10.639  18.676  0.00  0.00    +0.000 C 
ATOM     11  O   UNL     1       1.424  11.635  18.596  0.00  0.00    +0.000 OA
BRANCH  10  12
ATOM     12  C   UNL     1      -0.749  10.785  18.457  0.00  0.00    +0.000 A 
ATOM     13  C   UNL     1      -1.438  11.734  19.220  0.00  0.00    +0.000 A 
ATOM     14  C   UNL     1      -2.806  11.919  19.028  0.00  0.00    +0.000 A 
ATOM     15  C   UNL     1      -3.487  11.152  18.082  0.00  0.00    +0.000 A 
ATOM     16  C   UNL     1      -2.808  10.184  17.342  0.00  0.00    +0.000 A 
ATOM     17  C   UNL     1      -1.441   9.987  17.539  0.00  0.00    +0.000 A 
ENDBRANCH  10  12
ENDBRANCH   7  10
ENDBRANCH   2   4
BRANCH   1  19
ATOM     18  C   UNL     1       4.018   2.710  18.240  0.00  0.00    +0.000 C 
ATOM     19  C   UNL     1       4.596   3.585  19.343  0.00  0.00    +0.000 C 
ENDBRANCH   1  19
BRANCH   1  20
ATOM     20  C   UNL     1       5.238   5.876  18.473  0.00  0.00    +0.000 C 
BRANCH  20  21
ATOM     21  C   UNL     1       6.466   5.378  17.688  0.00  0.00    +0.000 C 
ATOM     22  O   UNL     1       7.336   4.637  18.140  0.00  0.00    +0.000 OA
ATOM     23  N   UNL     1       6.482   5.839  16.381  0.00  0.00    +0.000 N 
ATOM     24  H   UNL     1       5.740   6.436  16.044  0.00  0.00    +0.000 HD
BRANCH  23  25
ATOM     25  C   UNL     1       7.449   5.359  15.420  0.00  0.00    +0.000 C 
BRANCH  25  26
ATOM     26  C   UNL     1       6.789   4.632  14.273  0.00  0.00    +0.000 A 
ATOM     27  C   UNL     1       5.495   4.098  14.399  0.00  0.00    +0.000 A 
ATOM     28  C   UNL     1       4.883   3.462  13.316  0.00  0.00    +0.000 A 
ATOM     29  C   UNL     1       5.562   3.356  12.107  0.00  0.00    +0.000 A 
ATOM     30  F   UNL     1       4.965   2.762  11.064  0.00  0.00    +0.000 F 
ATOM     31  C   UNL     1       6.849   3.857  11.966  0.00  0.00    +0.000 A 
ATOM     32  C   UNL     1       7.465   4.488  13.049  0.00  0.00    +0.000 A 
ENDBRANCH  25  26
ENDBRANCH  23  25
ENDBRANCH  20  21
ENDBRANCH   1  20
TORSDOF 8
ENDMDL
MODEL 3
REMARK VINA RESULT:      -7.9      1.220      1.895
REMARK  Name = 
REMARK  9 active torsions:
REMARK  status: ('A' for Active; 'I' for Inactive)
REMARK    1  A    between atoms: C_1  and  C_2
REMARK    2  A    between atoms: C_2  and  N_3
REMARK    3  A    between atoms: N_3  and  C_4
REMARK    4  A    between atoms: C_4  and  C_5
REMARK    5  A    between atoms: N_7  and  C_8
REMARK    6  A    between atoms: C_8  and  C_9
REMARK    7  A    between atoms: C_16  and  C_18
REMARK    8  A    between atoms: C_21  and  C_22
REMARK    9  A    between atoms: C_22  and  C_24
REMARK                            x       y       z     vdW  Elec       q    Type
REMARK                         _______ _______ _______ _____ _____    ______ ____
ROOT
ATOM      1  N   UNL     1       4.115   4.545  19.423  0.00  0.00    +0.000 N 
ATOM      2  C   UNL     1       2.759   4.896  19.512  0.00  0.00    +0.000 C 
ATOM      3  O   UNL     1       1.883   4.064  19.756  0.00  0.00    +0.000 OA
ENDROOT
BRANCH   2   4
ATOM      4  C   UNL     1       2.293   6.301  19.319  0.00  0.00    +0.000 A 
ATOM      5  C   UNL     1       1.871   7.123  20.367  0.00  0.00    +0.000 A 
ATOM      6  C   UNL     1       1.464   8.437  20.124  0.00  0.00    +0.000 A 
ATOM      7  C   UNL     1       1.558   8.977  18.838  0.00  0.00    +0.000 A 
ATOM      8  C   UNL     1       2.070   8.192  17.800  0.00  0.00    +0.000 A 
ATOM      9  C   UNL     1       2.411   6.856  18.036  0.00  0.00    +0.000 A 
BRANCH   7  10
ATOM     10  C   UNL     1       1.187  10.406  18.664  0.00  0.00    +0.000 C 
ATOM     11  O   UNL     1       2.075  11.235  18.478  0.00  0.00    +0.000 OA
BRANCH  10  12
ATOM     12  C   UNL     1      -0.222  10.859  18.691  0.00  0.00    +0.000 A 
ATOM     13  C   UNL     1      -0.552  11.933  19.526  0.00  0.00    +0.000 A 
ATOM     14  C   UNL     1      -1.864  12.405  19.563  0.00  0.00    +0.000 A 
ATOM     15  C   UNL     1      -2.844  11.802  18.774  0.00  0.00    +0.000 A 
ATOM     16  C   UNL     1      -2.523  10.714  17.964  0.00  0.00    +0.000 A 
ATOM     17  C   UNL     1      -1.215  10.230  17.933  0.00  0.00    +0.000 A 
ENDBRANCH  10  12
ENDBRANCH   7  10
ENDBRANCH   2   4
BRANCH   1  19
ATOM     18  C   UNL     1       4.061   2.420  18.126  0.00  0.00    +0.000 C 
ATOM     19  C   UNL     1       4.413   3.110  19.437  0.00  0.00    +0.000 C 
ENDBRANCH   1  19
BRANCH   1  20
ATOM     20  C   UNL     1       5.218   5.507  19.276  0.00  0.00    +0.000 C 
BRANCH  20  21
ATOM     21  C   UNL     1       6.469   5.282  18.405  0.00  0.00    +0.000 C 
ATOM     22  O   UNL     1       7.449   4.620  18.739  0.00  0.00    +0.000 OA
ATOM     23  N   UNL     1       6.368   5.895  17.166  0.00  0.00    +0.000 N 
ATOM     24  H   UNL     1       5.539   6.420  16.925  0.00  0.00    +0.000 HD
BRANCH  23  25
ATOM     25  C   UNL     1       7.350   5.673  16.129  0.00  0.00    +0.000 C 
BRANCH  25  26
ATOM     26  C   UNL     1       6.765   4.933  14.950  0.00  0.00    +0.000 A 
ATOM     27  C   UNL     1       5.515   4.296  15.039  0.00  0.00    +0.000 A 
ATOM     28  C   UNL     1       4.970   3.648  13.927  0.00  0.00    +0.000 A 
ATOM     29  C   UNL     1       5.672   3.633  12.727  0.00  0.00    +0.000 A 
ATOM     30  F   UNL     1       5.138   3.027  11.658  0.00  0.00    +0.000 F 
ATOM     31  C   UNL     1       6.917   4.236  12.623  0.00  0.00    +0.000 A 
ATOM     32  C   UNL     1       7.467   4.880  13.734  0.00  0.00    +0.000 A 
ENDBRANCH  25  26
ENDBRANCH  23  25
ENDBRANCH  20  21
ENDBRANCH   1  20
TORSDOF 8
ENDMDL
MODEL 4
REMARK VINA RESULT:      -7.8      5.069     10.637
REMARK  Name = 
REMARK  9 active torsions:
REMARK  status: ('A' for Active; 'I' for Inactive)
REMARK    1  A    between atoms: C_1  and  C_2
REMARK    2  A    between atoms: C_2  and  N_3
REMARK    3  A    between atoms: N_3  and  C_4
REMARK    4  A    between atoms: C_4  and  C_5
REMARK    5  A    between atoms: N_7  and  C_8
REMARK    6  A    between atoms: C_8  and  C_9
REMARK    7  A    between atoms: C_16  and  C_18
REMARK    8  A    between atoms: C_21  and  C_22
REMARK    9  A    between atoms: C_22  and  C_24
REMARK                            x       y       z     vdW  Elec       q    Type
REMARK                         _______ _______ _______ _____ _____    ______ ____
ROOT
ATOM      1  N   UNL     1      -0.478  11.347  19.957  0.00  0.00    +0.000 N 
ATOM      2  C   UNL     1       0.350  10.448  20.647  0.00  0.00    +0.000 C 
ATOM      3  O   UNL     1       0.449  10.462  21.876  0.00  0.00    +0.000 OA
ENDROOT
BRANCH   2   4
ATOM      4  C   UNL     1       1.162   9.417  19.937  0.00  0.00    +0.000 A 
ATOM      5  C   UNL     1       1.508   8.186  20.501  0.00  0.00    +0.000 A 
ATOM      6  C   UNL     1       2.254   7.255  19.777  0.00  0.00    +0.000 A 
ATOM      7  C   UNL     1       2.591   7.504  18.443  0.00  0.00    +0.000 A 
ATOM      8  C   UNL     1       2.166   8.692  17.839  0.00  0.00    +0.000 A 
ATOM      9  C   UNL     1       1.478   9.651  18.590  0.00  0.00    +0.000 A 
BRANCH   7  10
ATOM     10  C   UNL     1       3.314   6.435  17.705  0.00  0.00    +0.000 C 
ATOM     11  O   UNL     1       4.261   6.743  16.985  0.00  0.00    +0.000 OA
BRANCH  10  12
ATOM     12  C   UNL     1       2.938   5.008  17.823  0.00  0.00    +0.000 A 
ATOM     13  C   UNL     1       3.958   4.052  17.762  0.00  0.00    +0.000 A 
ATOM     14  C   UNL     1       3.648   2.698  17.892  0.00  0.00    +0.000 A 
ATOM     15  C   UNL     1       2.324   2.301  18.074  0.00  0.00    +0.000 A 
ATOM     16  C   UNL     1       1.303   3.251  18.105  0.00  0.00    +0.000 A 
ATOM     17  C   UNL     1       1.606   4.604  17.963  0.00  0.00    +0.000 A 
ENDBRANCH  10  12
ENDBRANCH   7  10
ENDBRANCH   2   4
BRANCH   1  19
ATOM     18  C   UNL     1      -1.062  13.767  20.027  0.00  0.00    +0.000 C 
ATOM     19  C   UNL     1      -1.063  12.429  20.754  0.00  0.00    +0.000 C 
ENDBRANCH   1  19
BRANCH   1  20
ATOM     20  C   UNL     1      -0.748  11.292  18.512  0.00  0.00    +0.000 C 
BRANCH  20  21
ATOM     21  C   UNL     1      -2.082  10.841  17.886  0.00  0.00    +0.000 C 
ATOM     22  O   UNL     1      -2.379   9.678  17.625  0.00  0.00    +0.000 OA
ATOM     23  N   UNL     1      -2.945  11.902  17.661  0.00  0.00    +0.000 N 
ATOM     24  H   UNL     1      -2.668  12.843  17.902  0.00  0.00    +0.000 HD
BRANCH  23  25
ATOM     25  C   UNL     1      -4.311  11.690  17.239  0.00  0.00    +0.000 C 
BRANCH  25  26
ATOM     26  C   UNL     1      -5.256  11.606  18.414  0.00  0.00    +0.000 A 
ATOM     27  C   UNL     1      -6.379  10.760  18.385  0.00  0.00    +0.000 A 
ATOM     28  C   UNL     1      -7.222  10.665  19.495  0.00  0.00    +0.000 A 
ATOM     29  C   UNL     1      -6.948  11.414  20.634  0.00  0.00    +0.000 A 
ATOM     30  F   UNL     1      -7.748  11.306  21.704  0.00  0.00    +0.000 F 
ATOM     31  C   UNL     1      -5.857  12.272  20.677  0.00  0.00    +0.000 A 
ATOM     32  C   UNL     1      -5.016  12.374  19.566  0.00  0.00    +0.000 A 
ENDBRANCH  25  26
ENDBRANCH  23  25
ENDBRANCH  20  21
ENDBRANCH   1  20
TORSDOF 8
ENDMDL
MODEL 5
REMARK VINA RESULT:      -7.8      1.398      1.960
REMARK  Name = 
REMARK  9 active torsions:
REMARK  status: ('A' for Active; 'I' for Inactive)
REMARK    1  A    between atoms: C_1  and  C_2
REMARK    2  A    between atoms: C_2  and  N_3
REMARK    3  A    between atoms: N_3  and  C_4
REMARK    4  A    between atoms: C_4  and  C_5
REMARK    5  A    between atoms: N_7  and  C_8
REMARK    6  A    between atoms: C_8  and  C_9
REMARK    7  A    between atoms: C_16  and  C_18
REMARK    8  A    between atoms: C_21  and  C_22
REMARK    9  A    between atoms: C_22  and  C_24
REMARK                            x       y       z     vdW  Elec       q    Type
REMARK                         _______ _______ _______ _____ _____    ______ ____
ROOT
ATOM      1  N   UNL     1       3.964   4.511  19.124  0.00  0.00    +0.000 N 
ATOM      2  C   UNL     1       2.644   4.981  19.212  0.00  0.00    +0.000 C 
ATOM      3  O   UNL     1       1.689   4.221  19.384  0.00  0.00    +0.000 OA
ENDROOT
BRANCH   2   4
ATOM      4  C   UNL     1       2.315   6.433  19.104  0.00  0.00    +0.000 A 
ATOM      5  C   UNL     1       2.342   7.141  17.899  0.00  0.00    +0.000 A 
ATOM      6  C   UNL     1       2.003   8.494  17.860  0.00  0.00    +0.000 A 
ATOM      7  C   UNL     1       1.545   9.141  19.011  0.00  0.00    +0.000 A 
ATOM      8  C   UNL     1       1.422   8.416  20.201  0.00  0.00    +0.000 A 
ATOM      9  C   UNL     1       1.828   7.078  20.250  0.00  0.00    +0.000 A 
BRANCH   7  10
ATOM     10  C   UNL     1       1.122  10.560  18.882  0.00  0.00    +0.000 C 
ATOM     11  O   UNL     1       1.981  11.432  18.773  0.00  0.00    +0.000 OA
BRANCH  10  12
ATOM     12  C   UNL     1      -0.305  10.954  18.864  0.00  0.00    +0.000 A 
ATOM     13  C   UNL     1      -1.151  10.322  17.946  0.00  0.00    +0.000 A 
ATOM     14  C   UNL     1      -2.506  10.648  17.912  0.00  0.00    +0.000 A 
ATOM     15  C   UNL     1      -3.013  11.609  18.787  0.00  0.00    +0.000 A 
ATOM     16  C   UNL     1      -2.166  12.261  19.682  0.00  0.00    +0.000 A 
ATOM     17  C   UNL     1      -0.808  11.947  19.712  0.00  0.00    +0.000 A 
ENDBRANCH  10  12
ENDBRANCH   7  10
ENDBRANCH   2   4
BRANCH   1  19
ATOM     18  C   UNL     1       4.434   2.424  20.399  0.00  0.00    +0.000 C 
ATOM     19  C   UNL     1       4.127   3.056  19.048  0.00  0.00    +0.000 C 
ENDBRANCH   1  19
BRANCH   1  20
ATOM     20  C   UNL     1       5.154   5.372  19.061  0.00  0.00    +0.000 C 
BRANCH  20  21
ATOM     21  C   UNL     1       5.782   5.908  17.760  0.00  0.00    +0.000 C 
ATOM     22  O   UNL     1       5.689   7.067  17.360  0.00  0.00    +0.000 OA
ATOM     23  N   UNL     1       6.499   4.937  17.079  0.00  0.00    +0.000 N 
ATOM     24  H   UNL     1       6.562   3.999  17.449  0.00  0.00    +0.000 HD
BRANCH  23  25
ATOM     25  C   UNL     1       7.309   5.262  15.926  0.00  0.00    +0.000 C 
BRANCH  25  26
ATOM     26  C   UNL     1       6.761   4.646  14.662  0.00  0.00    +0.000 A 
ATOM     27  C   UNL     1       5.510   4.004  14.648  0.00  0.00    +0.000 A 
ATOM     28  C   UNL     1       5.000   3.473  13.461  0.00  0.00    +0.000 A 
ATOM     29  C   UNL     1       5.739   3.576  12.287  0.00  0.00    +0.000 A 
ATOM     30  F   UNL     1       5.238   3.082  11.147  0.00  0.00    +0.000 F 
ATOM     31  C   UNL     1       6.986   4.185  12.282  0.00  0.00    +0.000 A 
ATOM     32  C   UNL     1       7.501   4.713  13.469  0.00  0.00    +0.000 A 
ENDBRANCH  25  26
ENDBRANCH  23  25
ENDBRANCH  20  21
ENDBRANCH   1  20
TORSDOF 8
ENDMDL
MODEL 6
REMARK VINA RESULT:      -7.7      1.422      1.704
REMARK  Name = 
REMARK  9 active torsions:
REMARK  status: ('A' for Active; 'I' for Inactive)
REMARK    1  A    between atoms: C_1  and  C_2
REMARK    2  A    between atoms: C_2  and  N_3
REMARK    3  A    between atoms: N_3  and  C_4
REMARK    4  A    between atoms: C_4  and  C_5
REMARK    5  A    between atoms: N_7  and  C_8
REMARK    6  A    between atoms: C_8  and  C_9
REMARK    7  A    between atoms: C_16  and  C_18
REMARK    8  A    between atoms: C_21  and  C_22
REMARK    9  A    between atoms: C_22  and  C_24
REMARK                            x       y       z     vdW  Elec       q    Type
REMARK                         _______ _______ _______ _____ _____    ______ ____
ROOT
ATOM      1  N   UNL     1       3.501   3.993  19.700  0.00  0.00    +0.000 N 
ATOM      2  C   UNL     1       2.247   4.605  19.546  0.00  0.00    +0.000 C 
ATOM      3  O   UNL     1       1.196   3.965  19.608  0.00  0.00    +0.000 OA
ENDROOT
BRANCH   2   4
ATOM      4  C   UNL     1       2.108   6.070  19.296  0.00  0.00    +0.000 A 
ATOM      5  C   UNL     1       2.196   6.647  18.026  0.00  0.00    +0.000 A 
ATOM      6  C   UNL     1       2.036   8.023  17.856  0.00  0.00    +0.000 A 
ATOM      7  C   UNL     1       1.698   8.834  18.943  0.00  0.00    +0.000 A 
ATOM      8  C   UNL     1       1.512   8.251  20.201  0.00  0.00    +0.000 A 
ATOM      9  C   UNL     1       1.740   6.882  20.379  0.00  0.00    +0.000 A 
BRANCH   7  10
ATOM     10  C   UNL     1       1.461  10.277  18.678  0.00  0.00    +0.000 C 
ATOM     11  O   UNL     1       2.301  10.913  18.045  0.00  0.00    +0.000 OA
BRANCH  10  12
ATOM     12  C   UNL     1       0.235  10.968  19.138  0.00  0.00    +0.000 A 
ATOM     13  C   UNL     1      -0.931  10.817  18.379  0.00  0.00    +0.000 A 
ATOM     14  C   UNL     1      -2.112  11.433  18.791  0.00  0.00    +0.000 A 
ATOM     15  C   UNL     1      -2.126  12.204  19.953  0.00  0.00    +0.000 A 
ATOM     16  C   UNL     1      -0.959  12.381  20.694  0.00  0.00    +0.000 A 
ATOM     17  C   UNL     1       0.228  11.777  20.280  0.00  0.00    +0.000 A 
ENDBRANCH  10  12
ENDBRANCH   7  10
ENDBRANCH   2   4
BRANCH   1  19
ATOM     18  C   UNL     1       3.665   1.898  18.364  0.00  0.00    +0.000 C 
ATOM     19  C   UNL     1       3.505   2.528  19.741  0.00  0.00    +0.000 C 
ENDBRANCH   1  19
BRANCH   1  20
ATOM     20  C   UNL     1       4.779   4.718  19.776  0.00  0.00    +0.000 C 
BRANCH  20  21
ATOM     21  C   UNL     1       5.589   5.200  18.557  0.00  0.00    +0.000 C 
ATOM     22  O   UNL     1       5.446   6.288  18.003  0.00  0.00    +0.000 OA
ATOM     23  N   UNL     1       6.535   4.272  18.151  0.00  0.00    +0.000 N 
ATOM     24  H   UNL     1       6.631   3.395  18.643  0.00  0.00    +0.000 HD
BRANCH  23  25
ATOM     25  C   UNL     1       7.517   4.586  17.138  0.00  0.00    +0.000 C 
BRANCH  25  26
ATOM     26  C   UNL     1       6.969   4.394  15.745  0.00  0.00    +0.000 A 
ATOM     27  C   UNL     1       7.604   4.967  14.628  0.00  0.00    +0.000 A 
ATOM     28  C   UNL     1       7.106   4.747  13.341  0.00  0.00    +0.000 A 
ATOM     29  C   UNL     1       5.974   3.959  13.167  0.00  0.00    +0.000 A 
ATOM     30  F   UNL     1       5.510   3.735  11.930  0.00  0.00    +0.000 F 
ATOM     31  C   UNL     1       5.318   3.402  14.256  0.00  0.00    +0.000 A 
ATOM     32  C   UNL     1       5.810   3.624  15.544  0.00  0.00    +0.000 A 
ENDBRANCH  25  26
ENDBRANCH  23  25
ENDBRANCH  20  21
ENDBRANCH   1  20
TORSDOF 8
ENDMDL
MODEL 7
REMARK VINA RESULT:      -7.7      1.266      1.407
REMARK  Name = 
REMARK  9 active torsions:
REMARK  status: ('A' for Active; 'I' for Inactive)
REMARK    1  A    between atoms: C_1  and  C_2
REMARK    2  A    between atoms: C_2  and  N_3
REMARK    3  A    between atoms: N_3  and  C_4
REMARK    4  A    between atoms: C_4  and  C_5
REMARK    5  A    between atoms: N_7  and  C_8
REMARK    6  A    between atoms: C_8  and  C_9
REMARK    7  A    between atoms: C_16  and  C_18
REMARK    8  A    between atoms: C_21  and  C_22
REMARK    9  A    between atoms: C_22  and  C_24
REMARK                            x       y       z     vdW  Elec       q    Type
REMARK                         _______ _______ _______ _____ _____    ______ ____
ROOT
ATOM      1  N   UNL     1       3.822   4.335  19.119  0.00  0.00    +0.000 N 
ATOM      2  C   UNL     1       2.563   4.900  18.863  0.00  0.00    +0.000 C 
ATOM      3  O   UNL     1       1.564   4.207  18.659  0.00  0.00    +0.000 OA
ENDROOT
BRANCH   2   4
ATOM      4  C   UNL     1       2.354   6.377  18.823  0.00  0.00    +0.000 A 
ATOM      5  C   UNL     1       2.449   7.137  17.653  0.00  0.00    +0.000 A 
ATOM      6  C   UNL     1       2.222   8.514  17.677  0.00  0.00    +0.000 A 
ATOM      7  C   UNL     1       1.810   9.141  18.856  0.00  0.00    +0.000 A 
ATOM      8  C   UNL     1       1.618   8.373  20.010  0.00  0.00    +0.000 A 
ATOM      9  C   UNL     1       1.913   7.005  19.997  0.00  0.00    +0.000 A 
BRANCH   7  10
ATOM     10  C   UNL     1       1.505  10.594  18.792  0.00  0.00    +0.000 C 
ATOM     11  O   UNL     1       2.303  11.348  18.240  0.00  0.00    +0.000 OA
BRANCH  10  12
ATOM     12  C   UNL     1       0.261  11.160  19.361  0.00  0.00    +0.000 A 
ATOM     13  C   UNL     1       0.346  11.848  20.577  0.00  0.00    +0.000 A 
ATOM     14  C   UNL     1      -0.799  12.416  21.134  0.00  0.00    +0.000 A 
ATOM     15  C   UNL     1      -2.026  12.291  20.483  0.00  0.00    +0.000 A 
ATOM     16  C   UNL     1      -2.118  11.581  19.287  0.00  0.00    +0.000 A 
ATOM     17  C   UNL     1      -0.978  11.000  18.731  0.00  0.00    +0.000 A 
ENDBRANCH  10  12
ENDBRANCH   7  10
ENDBRANCH   2   4
BRANCH   1  19
ATOM     18  C   UNL     1       4.505   2.175  20.153  0.00  0.00    +0.000 C 
ATOM     19  C   UNL     1       3.928   2.884  18.935  0.00  0.00    +0.000 C 
ENDBRANCH   1  19
BRANCH   1  20
ATOM     20  C   UNL     1       5.016   5.099  19.508  0.00  0.00    +0.000 C 
BRANCH  20  21
ATOM     21  C   UNL     1       6.296   5.221  18.659  0.00  0.00    +0.000 C 
ATOM     22  O   UNL     1       7.415   4.860  19.017  0.00  0.00    +0.000 OA
ATOM     23  N   UNL     1       6.051   5.768  17.409  0.00  0.00    +0.000 N 
ATOM     24  H   UNL     1       5.114   6.038  17.147  0.00  0.00    +0.000 HD
BRANCH  23  25
ATOM     25  C   UNL     1       7.075   5.815  16.389  0.00  0.00    +0.000 C 
BRANCH  25  26
ATOM     26  C   UNL     1       6.659   5.075  15.140  0.00  0.00    +0.000 A 
ATOM     27  C   UNL     1       7.495   5.029  14.011  0.00  0.00    +0.000 A 
ATOM     28  C   UNL     1       7.113   4.308  12.877  0.00  0.00    +0.000 A 
ATOM     29  C   UNL     1       5.896   3.635  12.867  0.00  0.00    +0.000 A 
ATOM     30  F   UNL     1       5.541   2.930  11.784  0.00  0.00    +0.000 F 
ATOM     31  C   UNL     1       5.045   3.686  13.962  0.00  0.00    +0.000 A 
ATOM     32  C   UNL     1       5.422   4.410  15.095  0.00  0.00    +0.000 A 
ENDBRANCH  25  26
ENDBRANCH  23  25
ENDBRANCH  20  21
ENDBRANCH   1  20
TORSDOF 8
ENDMDL
MODEL 8
REMARK VINA RESULT:      -7.7      4.277      5.448
REMARK  Name = 
REMARK  9 active torsions:
REMARK  status: ('A' for Active; 'I' for Inactive)
REMARK    1  A    between atoms: C_1  and  C_2
REMARK    2  A    between atoms: C_2  and  N_3
REMARK    3  A    between atoms: N_3  and  C_4
REMARK    4  A    between atoms: C_4  and  C_5
REMARK    5  A    between atoms: N_7  and  C_8
REMARK    6  A    between atoms: C_8  and  C_9
REMARK    7  A    between atoms: C_16  and  C_18
REMARK    8  A    between atoms: C_21  and  C_22
REMARK    9  A    between atoms: C_22  and  C_24
REMARK                            x       y       z     vdW  Elec       q    Type
REMARK                         _______ _______ _______ _____ _____    ______ ____
ROOT
ATOM      1  N   UNL     1       5.581   5.745  16.844  0.00  0.00    +0.000 N 
ATOM      2  C   UNL     1       4.350   5.355  17.392  0.00  0.00    +0.000 C 
ATOM      3  O   UNL     1       3.943   4.193  17.326  0.00  0.00    +0.000 OA
ENDROOT
BRANCH   2   4
ATOM      4  C   UNL     1       3.453   6.323  18.090  0.00  0.00    +0.000 A 
ATOM      5  C   UNL     1       3.026   6.162  19.411  0.00  0.00    +0.000 A 
ATOM      6  C   UNL     1       2.203   7.115  20.015  0.00  0.00    +0.000 A 
ATOM      7  C   UNL     1       1.867   8.289  19.336  0.00  0.00    +0.000 A 
ATOM      8  C   UNL     1       2.370   8.505  18.049  0.00  0.00    +0.000 A 
ATOM      9  C   UNL     1       3.137   7.516  17.423  0.00  0.00    +0.000 A 
BRANCH   7  10
ATOM     10  C   UNL     1       1.057   9.298  20.067  0.00  0.00    +0.000 C 
ATOM     11  O   UNL     1       1.029   9.267  21.295  0.00  0.00    +0.000 OA
BRANCH  10  12
ATOM     12  C   UNL     1       0.295  10.353  19.360  0.00  0.00    +0.000 A 
ATOM     13  C   UNL     1       0.812  11.653  19.364  0.00  0.00    +0.000 A 
ATOM     14  C   UNL     1       0.137  12.671  18.691  0.00  0.00    +0.000 A 
ATOM     15  C   UNL     1      -1.056  12.392  18.023  0.00  0.00    +0.000 A 
ATOM     16  C   UNL     1      -1.588  11.103  18.043  0.00  0.00    +0.000 A 
ATOM     17  C   UNL     1      -0.923  10.085  18.725  0.00  0.00    +0.000 A 
ENDBRANCH  10  12
ENDBRANCH   7  10
ENDBRANCH   2   4
BRANCH   1  19
ATOM     18  C   UNL     1       5.888   4.836  14.546  0.00  0.00    +0.000 C 
ATOM     19  C   UNL     1       6.266   4.747  16.018  0.00  0.00    +0.000 C 
ENDBRANCH   1  19
BRANCH   1  20
ATOM     20  C   UNL     1       6.184   7.076  17.011  0.00  0.00    +0.000 C 
BRANCH  20  21
ATOM     21  C   UNL     1       7.364   7.394  17.951  0.00  0.00    +0.000 C 
ATOM     22  O   UNL     1       7.950   6.568  18.647  0.00  0.00    +0.000 OA
ATOM     23  N   UNL     1       7.723   8.732  17.916  0.00  0.00    +0.000 N 
ATOM     24  H   UNL     1       7.223   9.377  17.319  0.00  0.00    +0.000 HD
BRANCH  23  25
ATOM     25  C   UNL     1       8.907   9.216  18.587  0.00  0.00    +0.000 C 
BRANCH  25  26
ATOM     26  C   UNL     1       9.185  10.665  18.264  0.00  0.00    +0.000 A 
ATOM     27  C   UNL     1       8.176  11.503  17.759  0.00  0.00    +0.000 A 
ATOM     28  C   UNL     1       8.439  12.851  17.502  0.00  0.00    +0.000 A 
ATOM     29  C   UNL     1       9.709  13.363  17.743  0.00  0.00    +0.000 A 
ATOM     30  F   UNL     1       9.953  14.660  17.512  0.00  0.00    +0.000 F 
ATOM     31  C   UNL     1      10.727  12.548  18.220  0.00  0.00    +0.000 A 
ATOM     32  C   UNL     1      10.468  11.199  18.473  0.00  0.00    +0.000 A 
ENDBRANCH  25  26
ENDBRANCH  23  25
ENDBRANCH  20  21
ENDBRANCH   1  20
TORSDOF 8
ENDMDL
MODEL 9
REMARK VINA RESULT:      -7.7      1.457      2.180
REMARK  Name = 
REMARK  9 active torsions:
REMARK  status: ('A' for Active; 'I' for Inactive)
REMARK    1  A    between atoms: C_1  and  C_2
REMARK    2  A    between atoms: C_2  and  N_3
REMARK    3  A    between atoms: N_3  and  C_4
REMARK    4  A    between atoms: C_4  and  C_5
REMARK    5  A    between atoms: N_7  and  C_8
REMARK    6  A    between atoms: C_8  and  C_9
REMARK    7  A    between atoms: C_16  and  C_18
REMARK    8  A    between atoms: C_21  and  C_22
REMARK    9  A    between atoms: C_22  and  C_24
REMARK                            x       y       z     vdW  Elec       q    Type
REMARK                         _______ _______ _______ _____ _____    ______ ____
ROOT
ATOM      1  N   UNL     1       4.234   5.258  19.140  0.00  0.00    +0.000 N 
ATOM      2  C   UNL     1       3.036   5.583  19.795  0.00  0.00    +0.000 C 
ATOM      3  O   UNL     1       2.495   4.812  20.589  0.00  0.00    +0.000 OA
ENDROOT
BRANCH   2   4
ATOM      4  C   UNL     1       2.342   6.885  19.571  0.00  0.00    +0.000 A 
ATOM      5  C   UNL     1       1.731   7.618  20.593  0.00  0.00    +0.000 A 
ATOM      6  C   UNL     1       1.115   8.841  20.322  0.00  0.00    +0.000 A 
ATOM      7  C   UNL     1       1.175   9.394  19.040  0.00  0.00    +0.000 A 
ATOM      8  C   UNL     1       1.868   8.713  18.032  0.00  0.00    +0.000 A 
ATOM      9  C   UNL     1       2.425   7.456  18.293  0.00  0.00    +0.000 A 
BRANCH   7  10
ATOM     10  C   UNL     1       0.570  10.736  18.840  0.00  0.00    +0.000 C 
ATOM     11  O   UNL     1       1.291  11.730  18.894  0.00  0.00    +0.000 OA
BRANCH  10  12
ATOM     12  C   UNL     1      -0.873  10.912  18.560  0.00  0.00    +0.000 A 
ATOM     13  C   UNL     1      -1.461  10.090  17.593  0.00  0.00    +0.000 A 
ATOM     14  C   UNL     1      -2.822  10.208  17.316  0.00  0.00    +0.000 A 
ATOM     15  C   UNL     1      -3.593  11.150  17.998  0.00  0.00    +0.000 A 
ATOM     16  C   UNL     1      -3.002  11.990  18.941  0.00  0.00    +0.000 A 
ATOM     17  C   UNL     1      -1.639  11.885  19.213  0.00  0.00    +0.000 A 
ENDBRANCH  10  12
ENDBRANCH   7  10
ENDBRANCH   2   4
BRANCH   1  19
ATOM     18  C   UNL     1       4.177   2.948  18.212  0.00  0.00    +0.000 C 
ATOM     19  C   UNL     1       4.702   3.878  19.297  0.00  0.00    +0.000 C 
ENDBRANCH   1  19
BRANCH   1  20
ATOM     20  C   UNL     1       5.001   6.185  18.294  0.00  0.00    +0.000 C 
BRANCH  20  21
ATOM     21  C   UNL     1       6.307   5.827  17.560  0.00  0.00    +0.000 C 
ATOM     22  O   UNL     1       7.307   5.352  18.094  0.00  0.00    +0.000 OA
ATOM     23  N   UNL     1       6.235   6.078  16.198  0.00  0.00    +0.000 N 
ATOM     24  H   UNL     1       5.388   6.457  15.796  0.00  0.00    +0.000 HD
BRANCH  23  25
ATOM     25  C   UNL     1       7.281   5.659  15.294  0.00  0.00    +0.000 C 
BRANCH  25  26
ATOM     26  C   UNL     1       6.743   4.817  14.162  0.00  0.00    +0.000 A 
ATOM     27  C   UNL     1       7.498   4.597  12.997  0.00  0.00    +0.000 A 
ATOM     28  C   UNL     1       7.002   3.784  11.975  0.00  0.00    +0.000 A 
ATOM     29  C   UNL     1       5.751   3.192  12.112  0.00  0.00    +0.000 A 
ATOM     30  F   UNL     1       5.286   2.398  11.138  0.00  0.00    +0.000 F 
ATOM     31  C   UNL     1       4.979   3.414  13.244  0.00  0.00    +0.000 A 
ATOM     32  C   UNL     1       5.470   4.230  14.265  0.00  0.00    +0.000 A 
ENDBRANCH  25  26
ENDBRANCH  23  25
ENDBRANCH  20  21
ENDBRANCH   1  20
TORSDOF 8
ENDMDL
