MODEL 1
REMARK VINA RESULT:      -6.4      0.000      0.000
REMARK  Name = 
REMARK  3 active torsions:
REMARK  status: ('A' for Active; 'I' for Inactive)
REMARK    1  A    between atoms: C_2  and  C_3
REMARK    2  A    between atoms: C_6  and  N_7
REMARK    3  A    between atoms: C_8  and  C_9
REMARK                            x       y       z     vdW  Elec       q    Type
REMARK                         _______ _______ _______ _____ _____    ______ ____
ROOT
ATOM      1  N   UNL     1      -0.183  13.197  19.793  0.00  0.00    +0.000 N 
ATOM      2  C   UNL     1       0.602  12.471  20.696  0.00  0.00    +0.000 A 
ATOM      3  N   UNL     1       1.819  12.943  21.064  0.00  0.00    +0.000 NA
ATOM      4  C   UNL     1       2.345  14.081  20.556  0.00  0.00    +0.000 A 
ATOM      5  C   UNL     1       3.626  14.491  20.959  0.00  0.00    +0.000 A 
ATOM      6  C   UNL     1       4.186  15.661  20.441  0.00  0.00    +0.000 A 
ATOM      7  C   UNL     1       3.471  16.427  19.524  0.00  0.00    +0.000 A 
ATOM      8  C   UNL     1       2.196  16.031  19.118  0.00  0.00    +0.000 A 
ATOM      9  C   UNL     1       1.610  14.843  19.626  0.00  0.00    +0.000 A 
ATOM     10  C   UNL     1       0.313  14.378  19.262  0.00  0.00    +0.000 A 
ATOM     11  N   UNL     1      -0.430  15.069  18.464  0.00  0.00    +0.000 NA
ATOM     12  H   UNL     1      -0.187  15.962  18.025  0.00  0.00    +0.000 HD
ENDROOT
BRANCH   1  16
ATOM     13  C   UNL     1      -4.135  11.783  18.833  0.00  0.00    +0.000 A 
ATOM     14  C   UNL     1      -3.937  12.606  19.941  0.00  0.00    +0.000 A 
ATOM     15  C   UNL     1      -2.665  13.104  20.226  0.00  0.00    +0.000 A 
ATOM     16  C   UNL     1      -1.539  12.752  19.436  0.00  0.00    +0.000 A 
ATOM     17  C   UNL     1      -1.775  11.933  18.304  0.00  0.00    +0.000 A 
ATOM     18  C   UNL     1      -3.057  11.464  18.005  0.00  0.00    +0.000 A 
BRANCH  13  20
ATOM     19  N   UNL     1      -6.495  10.820  18.338  0.00  0.00    +0.000 NA
ATOM     20  C   UNL     1      -5.445  11.253  18.555  0.00  0.00    +0.000 C 
ENDBRANCH  13  20
ENDBRANCH   1  16
BRANCH   2  21
ATOM     21  C   UNL     1       0.175  11.160  21.296  0.00  0.00    +0.000 A 
ATOM     22  C   UNL     1      -0.518  11.091  22.525  0.00  0.00    +0.000 A 
ATOM     23  C   UNL     1      -0.764   9.864  23.140  0.00  0.00    +0.000 A 
ATOM     24  C   UNL     1      -0.361   8.682  22.525  0.00  0.00    +0.000 A 
ATOM     25  C   UNL     1       0.259   8.724  21.273  0.00  0.00    +0.000 A 
ATOM     26  C   UNL     1       0.517   9.954  20.654  0.00  0.00    +0.000 A 
ENDBRANCH   2  21
TORSDOF 3
ENDMDL
MODEL 2
REMARK VINA RESULT:      -6.4      8.802     11.833
REMARK  Name = 
REMARK  3 active torsions:
REMARK  status: ('A' for Active; 'I' for Inactive)
REMARK    1  A    between atoms: C_2  and  C_3
REMARK    2  A    between atoms: C_6  and  N_7
REMARK    3  A    between atoms: C_8  and  C_9
REMARK                            x       y       z     vdW  Elec       q    Type
REMARK                         _______ _______ _______ _____ _____    ______ ____
ROOT
ATOM      1  N   UNL     1       4.926   5.098  17.953  0.00  0.00    +0.000 N 
ATOM      2  C   UNL     1       4.764   4.221  16.875  0.00  0.00    +0.000 A 
ATOM      3  N   UNL     1       3.786   3.283  16.907  0.00  0.00    +0.000 NA
ATOM      4  C   UNL     1       2.970   3.117  17.974  0.00  0.00    +0.000 A 
ATOM      5  C   UNL     1       2.000   2.101  17.951  0.00  0.00    +0.000 A 
ATOM      6  C   UNL     1       1.152   1.912  19.045  0.00  0.00    +0.000 A 
ATOM      7  C   UNL     1       1.266   2.736  20.162  0.00  0.00    +0.000 A 
ATOM      8  C   UNL     1       2.224   3.750  20.195  0.00  0.00    +0.000 A 
ATOM      9  C   UNL     1       3.100   3.956  19.098  0.00  0.00    +0.000 A 
ATOM     10  C   UNL     1       4.098   4.971  19.058  0.00  0.00    +0.000 A 
ATOM     11  N   UNL     1       4.219   5.810  20.033  0.00  0.00    +0.000 NA
ATOM     12  H   UNL     1       3.658   5.834  20.890  0.00  0.00    +0.000 HD
ENDROOT
BRANCH   1  16
ATOM     13  C   UNL     1       7.797   8.308  17.956  0.00  0.00    +0.000 A 
ATOM     14  C   UNL     1       8.084   7.112  18.613  0.00  0.00    +0.000 A 
ATOM     15  C   UNL     1       7.174   6.054  18.573  0.00  0.00    +0.000 A 
ATOM     16  C   UNL     1       5.924   6.177  17.912  0.00  0.00    +0.000 A 
ATOM     17  C   UNL     1       5.671   7.395  17.233  0.00  0.00    +0.000 A 
ATOM     18  C   UNL     1       6.600   8.440  17.250  0.00  0.00    +0.000 A 
BRANCH  13  20
ATOM     19  N   UNL     1       9.466  10.293  18.069  0.00  0.00    +0.000 NA
ATOM     20  C   UNL     1       8.727   9.404  18.018  0.00  0.00    +0.000 C 
ENDBRANCH  13  20
ENDBRANCH   1  16
BRANCH   2  21
ATOM     21  C   UNL     1       5.635   4.247  15.649  0.00  0.00    +0.000 A 
ATOM     22  C   UNL     1       6.962   4.731  15.685  0.00  0.00    +0.000 A 
ATOM     23  C   UNL     1       7.697   4.894  14.512  0.00  0.00    +0.000 A 
ATOM     24  C   UNL     1       7.140   4.542  13.285  0.00  0.00    +0.000 A 
ATOM     25  C   UNL     1       5.856   3.992  13.235  0.00  0.00    +0.000 A 
ATOM     26  C   UNL     1       5.109   3.834  14.410  0.00  0.00    +0.000 A 
ENDBRANCH   2  21
TORSDOF 3
ENDMDL
MODEL 3
REMARK VINA RESULT:      -6.4      0.172      1.378
REMARK  Name = 
REMARK  3 active torsions:
REMARK  status: ('A' for Active; 'I' for Inactive)
REMARK    1  A    between atoms: C_2  and  C_3
REMARK    2  A    between atoms: C_6  and  N_7
REMARK    3  A    between atoms: C_8  and  C_9
REMARK                            x       y       z     vdW  Elec       q    Type
REMARK                         _______ _______ _______ _____ _____    ______ ____
ROOT
ATOM      1  N   UNL     1      -0.119  13.192  19.811  0.00  0.00    +0.000 N 
ATOM      2  C   UNL     1       0.733  12.507  20.684  0.00  0.00    +0.000 A 
ATOM      3  N   UNL     1       1.935  13.042  21.015  0.00  0.00    +0.000 NA
ATOM      4  C   UNL     1       2.382  14.208  20.495  0.00  0.00    +0.000 A 
ATOM      5  C   UNL     1       3.652  14.685  20.858  0.00  0.00    +0.000 A 
ATOM      6  C   UNL     1       4.132  15.885  20.328  0.00  0.00    +0.000 A 
ATOM      7  C   UNL     1       3.347  16.614  19.438  0.00  0.00    +0.000 A 
ATOM      8  C   UNL     1       2.083  16.151  19.072  0.00  0.00    +0.000 A 
ATOM      9  C   UNL     1       1.577  14.932  19.593  0.00  0.00    +0.000 A 
ATOM     10  C   UNL     1       0.297  14.399  19.269  0.00  0.00    +0.000 A 
ATOM     11  N   UNL     1      -0.509  15.052  18.499  0.00  0.00    +0.000 NA
ATOM     12  H   UNL     1      -0.328  15.958  18.056  0.00  0.00    +0.000 HD
ENDROOT
BRANCH   1  16
ATOM     13  C   UNL     1      -4.065  11.795  18.804  0.00  0.00    +0.000 A 
ATOM     14  C   UNL     1      -2.974  11.435  18.015  0.00  0.00    +0.000 A 
ATOM     15  C   UNL     1      -1.688  11.848  18.367  0.00  0.00    +0.000 A 
ATOM     16  C   UNL     1      -1.459  12.677  19.496  0.00  0.00    +0.000 A 
ATOM     17  C   UNL     1      -2.585  13.006  20.292  0.00  0.00    +0.000 A 
ATOM     18  C   UNL     1      -3.866  12.563  19.953  0.00  0.00    +0.000 A 
BRANCH  13  20
ATOM     19  N   UNL     1      -6.456  11.047  18.120  0.00  0.00    +0.000 NA
ATOM     20  C   UNL     1      -5.393  11.386  18.426  0.00  0.00    +0.000 C 
ENDBRANCH  13  20
ENDBRANCH   1  16
BRANCH   2  21
ATOM     21  C   UNL     1       0.396  11.173  21.292  0.00  0.00    +0.000 A 
ATOM     22  C   UNL     1       0.743   9.956  20.663  0.00  0.00    +0.000 A 
ATOM     23  C   UNL     1       0.286   8.737  21.160  0.00  0.00    +0.000 A 
ATOM     24  C   UNL     1      -0.493   8.703  22.315  0.00  0.00    +0.000 A 
ATOM     25  C   UNL     1      -0.785   9.889  22.994  0.00  0.00    +0.000 A 
ATOM     26  C   UNL     1      -0.334  11.118  22.494  0.00  0.00    +0.000 A 
ENDBRANCH   2  21
TORSDOF 3
ENDMDL
MODEL 4
REMARK VINA RESULT:      -6.3      6.015      8.647
REMARK  Name = 
REMARK  3 active torsions:
REMARK  status: ('A' for Active; 'I' for Inactive)
REMARK    1  A    between atoms: C_2  and  C_3
REMARK    2  A    between atoms: C_6  and  N_7
REMARK    3  A    between atoms: C_8  and  C_9
REMARK                            x       y       z     vdW  Elec       q    Type
REMARK                         _______ _______ _______ _____ _____    ______ ____
ROOT
ATOM      1  N   UNL     1       2.685   6.869  18.829  0.00  0.00    +0.000 N 
ATOM      2  C   UNL     1       2.278   6.251  20.017  0.00  0.00    +0.000 A 
ATOM      3  N   UNL     1       1.447   6.904  20.868  0.00  0.00    +0.000 NA
ATOM      4  C   UNL     1       1.021   8.169  20.645  0.00  0.00    +0.000 A 
ATOM      5  C   UNL     1       0.189   8.794  21.588  0.00  0.00    +0.000 A 
ATOM      6  C   UNL     1      -0.257  10.100  21.376  0.00  0.00    +0.000 A 
ATOM      7  C   UNL     1       0.122  10.786  20.224  0.00  0.00    +0.000 A 
ATOM      8  C   UNL     1       0.946  10.174  19.280  0.00  0.00    +0.000 A 
ATOM      9  C   UNL     1       1.416   8.850  19.477  0.00  0.00    +0.000 A 
ATOM     10  C   UNL     1       2.256   8.159  18.556  0.00  0.00    +0.000 A 
ATOM     11  N   UNL     1       2.596   8.711  17.439  0.00  0.00    +0.000 NA
ATOM     12  H   UNL     1       2.329   9.645  17.114  0.00  0.00    +0.000 HD
ENDROOT
BRANCH   1  16
ATOM     13  C   UNL     1       5.062   4.856  15.856  0.00  0.00    +0.000 A 
ATOM     14  C   UNL     1       5.484   6.078  16.379  0.00  0.00    +0.000 A 
ATOM     15  C   UNL     1       4.739   6.708  17.377  0.00  0.00    +0.000 A 
ATOM     16  C   UNL     1       3.519   6.157  17.850  0.00  0.00    +0.000 A 
ATOM     17  C   UNL     1       3.128   4.903  17.316  0.00  0.00    +0.000 A 
ATOM     18  C   UNL     1       3.895   4.261  16.340  0.00  0.00    +0.000 A 
BRANCH  13  20
ATOM     19  N   UNL     1       6.422   3.710  13.965  0.00  0.00    +0.000 NA
ATOM     20  C   UNL     1       5.820   4.219  14.812  0.00  0.00    +0.000 C 
ENDBRANCH  13  20
ENDBRANCH   1  16
BRANCH   2  21
ATOM     21  C   UNL     1       2.719   4.873  20.427  0.00  0.00    +0.000 A 
ATOM     22  C   UNL     1       3.987   4.359  20.074  0.00  0.00    +0.000 A 
ATOM     23  C   UNL     1       4.315   3.028  20.326  0.00  0.00    +0.000 A 
ATOM     24  C   UNL     1       3.403   2.194  20.969  0.00  0.00    +0.000 A 
ATOM     25  C   UNL     1       2.173   2.704  21.394  0.00  0.00    +0.000 A 
ATOM     26  C   UNL     1       1.835   4.039  21.135  0.00  0.00    +0.000 A 
ENDBRANCH   2  21
TORSDOF 3
ENDMDL
MODEL 5
REMARK VINA RESULT:      -6.2      2.344      3.730
REMARK  Name = 
REMARK  3 active torsions:
REMARK  status: ('A' for Active; 'I' for Inactive)
REMARK    1  A    between atoms: C_2  and  C_3
REMARK    2  A    between atoms: C_6  and  N_7
REMARK    3  A    between atoms: C_8  and  C_9
REMARK                            x       y       z     vdW  Elec       q    Type
REMARK                         _______ _______ _______ _____ _____    ______ ____
ROOT
ATOM      1  N   UNL     1       0.669  13.381  20.599  0.00  0.00    +0.000 N 
ATOM      2  C   UNL     1       0.851  12.794  19.343  0.00  0.00    +0.000 A 
ATOM      3  N   UNL     1       1.978  13.049  18.633  0.00  0.00    +0.000 NA
ATOM      4  C   UNL     1       2.936  13.901  19.068  0.00  0.00    +0.000 A 
ATOM      5  C   UNL     1       4.062  14.143  18.265  0.00  0.00    +0.000 A 
ATOM      6  C   UNL     1       5.058  15.022  18.696  0.00  0.00    +0.000 A 
ATOM      7  C   UNL     1       4.938  15.658  19.929  0.00  0.00    +0.000 A 
ATOM      8  C   UNL     1       3.825  15.423  20.737  0.00  0.00    +0.000 A 
ATOM      9  C   UNL     1       2.798  14.539  20.317  0.00  0.00    +0.000 A 
ATOM     10  C   UNL     1       1.636  14.246  21.088  0.00  0.00    +0.000 A 
ATOM     11  N   UNL     1       1.488  14.753  22.267  0.00  0.00    +0.000 NA
ATOM     12  H   UNL     1       2.137  15.385  22.745  0.00  0.00    +0.000 HD
ENDROOT
BRANCH   1  16
ATOM     13  C   UNL     1      -2.711  12.519  23.125  0.00  0.00    +0.000 A 
ATOM     14  C   UNL     1      -2.709  13.662  22.325  0.00  0.00    +0.000 A 
ATOM     15  C   UNL     1      -1.635  13.917  21.471  0.00  0.00    +0.000 A 
ATOM     16  C   UNL     1      -0.504  13.060  21.426  0.00  0.00    +0.000 A 
ATOM     17  C   UNL     1      -0.546  11.895  22.232  0.00  0.00    +0.000 A 
ATOM     18  C   UNL     1      -1.638  11.628  23.062  0.00  0.00    +0.000 A 
BRANCH  13  20
ATOM     19  N   UNL     1      -4.694  12.059  24.737  0.00  0.00    +0.000 NA
ATOM     20  C   UNL     1      -3.809  12.270  24.021  0.00  0.00    +0.000 C 
ENDBRANCH  13  20
ENDBRANCH   1  16
BRANCH   2  21
ATOM     21  C   UNL     1      -0.155  11.876  18.705  0.00  0.00    +0.000 A 
ATOM     22  C   UNL     1       0.058  10.482  18.612  0.00  0.00    +0.000 A 
ATOM     23  C   UNL     1      -0.809   9.672  17.879  0.00  0.00    +0.000 A 
ATOM     24  C   UNL     1      -1.925  10.228  17.259  0.00  0.00    +0.000 A 
ATOM     25  C   UNL     1      -2.195  11.592  17.401  0.00  0.00    +0.000 A 
ATOM     26  C   UNL     1      -1.323  12.412  18.129  0.00  0.00    +0.000 A 
ENDBRANCH   2  21
TORSDOF 3
ENDMDL
MODEL 6
REMARK VINA RESULT:      -6.2      6.338      8.641
REMARK  Name = 
REMARK  3 active torsions:
REMARK  status: ('A' for Active; 'I' for Inactive)
REMARK    1  A    between atoms: C_2  and  C_3
REMARK    2  A    between atoms: C_6  and  N_7
REMARK    3  A    between atoms: C_8  and  C_9
REMARK                            x       y       z     vdW  Elec       q    Type
REMARK                         _______ _______ _______ _____ _____    ______ ____
ROOT
ATOM      1  N   UNL     1       3.361   6.186  17.968  0.00  0.00    +0.000 N 
ATOM      2  C   UNL     1       3.400   4.829  18.304  0.00  0.00    +0.000 A 
ATOM      3  N   UNL     1       4.236   3.992  17.641  0.00  0.00    +0.000 NA
ATOM      4  C   UNL     1       5.016   4.403  16.614  0.00  0.00    +0.000 A 
ATOM      5  C   UNL     1       5.833   3.472  15.951  0.00  0.00    +0.000 A 
ATOM      6  C   UNL     1       6.641   3.877  14.887  0.00  0.00    +0.000 A 
ATOM      7  C   UNL     1       6.642   5.210  14.483  0.00  0.00    +0.000 A 
ATOM      8  C   UNL     1       5.837   6.144  15.136  0.00  0.00    +0.000 A 
ATOM      9  C   UNL     1       5.003   5.754  16.216  0.00  0.00    +0.000 A 
ATOM     10  C   UNL     1       4.159   6.650  16.932  0.00  0.00    +0.000 A 
ATOM     11  N   UNL     1       4.155   7.911  16.652  0.00  0.00    +0.000 NA
ATOM     12  H   UNL     1       4.710   8.377  15.929  0.00  0.00    +0.000 HD
ENDROOT
BRANCH   1  16
ATOM     13  C   UNL     1       1.028   9.041  20.192  0.00  0.00    +0.000 A 
ATOM     14  C   UNL     1       1.166   9.176  18.811  0.00  0.00    +0.000 A 
ATOM     15  C   UNL     1       1.883   8.225  18.082  0.00  0.00    +0.000 A 
ATOM     16  C   UNL     1       2.526   7.133  18.722  0.00  0.00    +0.000 A 
ATOM     17  C   UNL     1       2.347   7.010  20.123  0.00  0.00    +0.000 A 
ATOM     18  C   UNL     1       1.602   7.947  20.842  0.00  0.00    +0.000 A 
BRANCH  13  20
ATOM     19  N   UNL     1      -0.276  10.827  21.554  0.00  0.00    +0.000 NA
ATOM     20  C   UNL     1       0.307  10.035  20.943  0.00  0.00    +0.000 C 
ENDBRANCH  13  20
ENDBRANCH   1  16
BRANCH   2  21
ATOM     21  C   UNL     1       2.546   4.218  19.381  0.00  0.00    +0.000 A 
ATOM     22  C   UNL     1       3.021   4.037  20.699  0.00  0.00    +0.000 A 
ATOM     23  C   UNL     1       2.274   3.328  21.638  0.00  0.00    +0.000 A 
ATOM     24  C   UNL     1       1.023   2.819  21.295  0.00  0.00    +0.000 A 
ATOM     25  C   UNL     1       0.503   3.052  20.019  0.00  0.00    +0.000 A 
ATOM     26  C   UNL     1       1.253   3.757  19.068  0.00  0.00    +0.000 A 
ENDBRANCH   2  21
TORSDOF 3
ENDMDL
MODEL 7
REMARK VINA RESULT:      -6.1      6.603      8.934
REMARK  Name = 
REMARK  3 active torsions:
REMARK  status: ('A' for Active; 'I' for Inactive)
REMARK    1  A    between atoms: C_2  and  C_3
REMARK    2  A    between atoms: C_6  and  N_7
REMARK    3  A    between atoms: C_8  and  C_9
REMARK                            x       y       z     vdW  Elec       q    Type
REMARK                         _______ _______ _______ _____ _____    ______ ____
ROOT
ATOM      1  N   UNL     1       3.559   5.915  17.884  0.00  0.00    +0.000 N 
ATOM      2  C   UNL     1       3.537   4.530  18.079  0.00  0.00    +0.000 A 
ATOM      3  N   UNL     1       4.310   3.726  17.306  0.00  0.00    +0.000 NA
ATOM      4  C   UNL     1       5.082   4.203  16.303  0.00  0.00    +0.000 A 
ATOM      5  C   UNL     1       5.831   3.307  15.522  0.00  0.00    +0.000 A 
ATOM      6  C   UNL     1       6.630   3.781  14.479  0.00  0.00    +0.000 A 
ATOM      7  C   UNL     1       6.690   5.147  14.214  0.00  0.00    +0.000 A 
ATOM      8  C   UNL     1       5.952   6.046  14.985  0.00  0.00    +0.000 A 
ATOM      9  C   UNL     1       5.129   5.587  16.045  0.00  0.00    +0.000 A 
ATOM     10  C   UNL     1       4.352   6.444  16.877  0.00  0.00    +0.000 A 
ATOM     11  N   UNL     1       4.406   7.726  16.727  0.00  0.00    +0.000 NA
ATOM     12  H   UNL     1       4.965   8.237  16.038  0.00  0.00    +0.000 HD
ENDROOT
BRANCH   1  16
ATOM     13  C   UNL     1       1.204   8.481  20.416  0.00  0.00    +0.000 A 
ATOM     14  C   UNL     1       1.805   7.339  20.944  0.00  0.00    +0.000 A 
ATOM     15  C   UNL     1       2.608   6.532  20.135  0.00  0.00    +0.000 A 
ATOM     16  C   UNL     1       2.795   6.818  18.758  0.00  0.00    +0.000 A 
ATOM     17  C   UNL     1       2.191   7.998  18.256  0.00  0.00    +0.000 A 
ATOM     18  C   UNL     1       1.415   8.820  19.078  0.00  0.00    +0.000 A 
BRANCH  13  20
ATOM     19  N   UNL     1      -0.320   9.948  21.921  0.00  0.00    +0.000 NA
ATOM     20  C   UNL     1       0.360   9.299  21.247  0.00  0.00    +0.000 C 
ENDBRANCH  13  20
ENDBRANCH   1  16
BRANCH   2  21
ATOM     21  C   UNL     1       2.682   3.853  19.114  0.00  0.00    +0.000 A 
ATOM     22  C   UNL     1       1.283   3.726  18.961  0.00  0.00    +0.000 A 
ATOM     23  C   UNL     1       0.490   3.239  19.999  0.00  0.00    +0.000 A 
ATOM     24  C   UNL     1       1.079   2.833  21.195  0.00  0.00    +0.000 A 
ATOM     25  C   UNL     1       2.468   2.881  21.339  0.00  0.00    +0.000 A 
ATOM     26  C   UNL     1       3.269   3.377  20.302  0.00  0.00    +0.000 A 
ENDBRANCH   2  21
TORSDOF 3
ENDMDL
MODEL 8
REMARK VINA RESULT:      -6.1      2.314      3.719
REMARK  Name = 
REMARK  3 active torsions:
REMARK  status: ('A' for Active; 'I' for Inactive)
REMARK    1  A    between atoms: C_2  and  C_3
REMARK    2  A    between atoms: C_6  and  N_7
REMARK    3  A    between atoms: C_8  and  C_9
REMARK                            x       y       z     vdW  Elec       q    Type
REMARK                         _______ _______ _______ _____ _____    ______ ____
ROOT
ATOM      1  N   UNL     1       1.007  13.551  20.622  0.00  0.00    +0.000 N 
ATOM      2  C   UNL     1       1.118  12.983  19.349  0.00  0.00    +0.000 A 
ATOM      3  N   UNL     1       2.219  13.225  18.594  0.00  0.00    +0.000 NA
ATOM      4  C   UNL     1       3.216  14.045  19.000  0.00  0.00    +0.000 A 
ATOM      5  C   UNL     1       4.310  14.275  18.150  0.00  0.00    +0.000 A 
ATOM      6  C   UNL     1       5.346  15.121  18.551  0.00  0.00    +0.000 A 
ATOM      7  C   UNL     1       5.297  15.737  19.799  0.00  0.00    +0.000 A 
ATOM      8  C   UNL     1       4.216  15.513  20.652  0.00  0.00    +0.000 A 
ATOM      9  C   UNL     1       3.150  14.663  20.264  0.00  0.00    +0.000 A 
ATOM     10  C   UNL     1       2.017  14.384  21.082  0.00  0.00    +0.000 A 
ATOM     11  N   UNL     1       1.935  14.872  22.275  0.00  0.00    +0.000 NA
ATOM     12  H   UNL     1       2.620  15.479  22.734  0.00  0.00    +0.000 HD
ENDROOT
BRANCH   1  16
ATOM     13  C   UNL     1      -2.404  12.591  23.068  0.00  0.00    +0.000 A 
ATOM     14  C   UNL     1      -1.376  11.663  22.907  0.00  0.00    +0.000 A 
ATOM     15  C   UNL     1      -0.247  11.991  22.154  0.00  0.00    +0.000 A 
ATOM     16  C   UNL     1      -0.135  13.243  21.495  0.00  0.00    +0.000 A 
ATOM     17  C   UNL     1      -1.185  14.174  21.697  0.00  0.00    +0.000 A 
ATOM     18  C   UNL     1      -2.298  13.852  22.479  0.00  0.00    +0.000 A 
BRANCH  13  20
ATOM     19  N   UNL     1      -4.518  11.951  24.433  0.00  0.00    +0.000 NA
ATOM     20  C   UNL     1      -3.576  12.242  23.827  0.00  0.00    +0.000 C 
ENDBRANCH  13  20
ENDBRANCH   1  16
BRANCH   2  21
ATOM     21  C   UNL     1       0.062  12.101  18.741  0.00  0.00    +0.000 A 
ATOM     22  C   UNL     1      -1.155  12.624  18.248  0.00  0.00    +0.000 A 
ATOM     23  C   UNL     1      -2.183  11.777  17.835  0.00  0.00    +0.000 A 
ATOM     24  C   UNL     1      -2.005  10.396  17.868  0.00  0.00    +0.000 A 
ATOM     25  C   UNL     1      -0.782   9.861  18.282  0.00  0.00    +0.000 A 
ATOM     26  C   UNL     1       0.252  10.707  18.706  0.00  0.00    +0.000 A 
ENDBRANCH   2  21
TORSDOF 3
ENDMDL
MODEL 9
REMARK VINA RESULT:      -6.0      2.310      3.018
REMARK  Name = 
REMARK  3 active torsions:
REMARK  status: ('A' for Active; 'I' for Inactive)
REMARK    1  A    between atoms: C_2  and  C_3
REMARK    2  A    between atoms: C_6  and  N_7
REMARK    3  A    between atoms: C_8  and  C_9
REMARK                            x       y       z     vdW  Elec       q    Type
REMARK                         _______ _______ _______ _____ _____    ______ ____
ROOT
ATOM      1  N   UNL     1      -1.791  13.945  20.795  0.00  0.00    +0.000 N 
ATOM      2  C   UNL     1      -0.688  13.086  20.755  0.00  0.00    +0.000 A 
ATOM      3  N   UNL     1       0.469  13.497  20.178  0.00  0.00    +0.000 NA
ATOM      4  C   UNL     1       0.597  14.705  19.582  0.00  0.00    +0.000 A 
ATOM      5  C   UNL     1       1.816  15.049  18.974  0.00  0.00    +0.000 A 
ATOM      6  C   UNL     1       1.965  16.290  18.350  0.00  0.00    +0.000 A 
ATOM      7  C   UNL     1       0.904  17.192  18.334  0.00  0.00    +0.000 A 
ATOM      8  C   UNL     1      -0.310  16.861  18.937  0.00  0.00    +0.000 A 
ATOM      9  C   UNL     1      -0.487  15.604  19.570  0.00  0.00    +0.000 A 
ATOM     10  C   UNL     1      -1.694  15.199  20.210  0.00  0.00    +0.000 A 
ATOM     11  N   UNL     1      -2.698  16.008  20.286  0.00  0.00    +0.000 NA
ATOM     12  H   UNL     1      -2.743  16.961  19.914  0.00  0.00    +0.000 HD
ENDROOT
BRANCH   1  16
ATOM     13  C   UNL     1      -5.483  12.934  22.768  0.00  0.00    +0.000 A 
ATOM     14  C   UNL     1      -5.280  12.573  21.436  0.00  0.00    +0.000 A 
ATOM     15  C   UNL     1      -4.065  12.858  20.810  0.00  0.00    +0.000 A 
ATOM     16  C   UNL     1      -3.031  13.559  21.484  0.00  0.00    +0.000 A 
ATOM     17  C   UNL     1      -3.258  13.892  22.843  0.00  0.00    +0.000 A 
ATOM     18  C   UNL     1      -4.463  13.575  23.475  0.00  0.00    +0.000 A 
BRANCH  13  20
ATOM     19  N   UNL     1      -7.763  12.439  23.906  0.00  0.00    +0.000 NA
ATOM     20  C   UNL     1      -6.744  12.659  23.404  0.00  0.00    +0.000 C 
ENDBRANCH  13  20
ENDBRANCH   1  16
BRANCH   2  21
ATOM     21  C   UNL     1      -0.703  11.693  21.322  0.00  0.00    +0.000 A 
ATOM     22  C   UNL     1      -0.837  11.451  22.707  0.00  0.00    +0.000 A 
ATOM     23  C   UNL     1      -0.690  10.166  23.227  0.00  0.00    +0.000 A 
ATOM     24  C   UNL     1      -0.446   9.092  22.374  0.00  0.00    +0.000 A 
ATOM     25  C   UNL     1      -0.385   9.299  20.994  0.00  0.00    +0.000 A 
ATOM     26  C   UNL     1      -0.523  10.589  20.466  0.00  0.00    +0.000 A 
ENDBRANCH   2  21
TORSDOF 3
ENDMDL
