MODEL 1
REMARK VINA RESULT:      -6.1      0.000      0.000
REMARK  Name = 
REMARK  6 active torsions:
REMARK  status: ('A' for Active; 'I' for Inactive)
REMARK    1  A    between atoms: C_1  and  C_2
REMARK    2  A    between atoms: C_5  and  N_6
REMARK    3  A    between atoms: N_6  and  S_7
REMARK    4  A    between atoms: S_7  and  N_10
REMARK    5  A    between atoms: N_10  and  C_11
REMARK    6  A    between atoms: N_10  and  C_12
REMARK                            x       y       z     vdW  Elec       q    Type
REMARK                         _______ _______ _______ _____ _____    ______ ____
ROOT
ATOM      1  N   UNL     1       5.597   3.599  16.995  0.00  0.00    +0.000 N 
ATOM      2  H   UNL     1       6.141   2.760  17.199  0.00  0.00    +0.000 HD
ENDROOT
BRANCH   1   7
ATOM      3  C   UNL     1       0.922   3.850  20.318  0.00  0.00    +0.000 C 
ATOM      4  C   UNL     1       2.150   3.781  19.457  0.00  0.00    +0.000 A 
ATOM      5  C   UNL     1       3.364   3.302  19.966  0.00  0.00    +0.000 A 
ATOM      6  C   UNL     1       4.501   3.249  19.153  0.00  0.00    +0.000 A 
ATOM      7  C   UNL     1       4.437   3.690  17.834  0.00  0.00    +0.000 A 
ATOM      8  C   UNL     1       3.227   4.144  17.308  0.00  0.00    +0.000 A 
ATOM      9  C   UNL     1       2.089   4.197  18.120  0.00  0.00    +0.000 A 
ENDBRANCH   1   7
BRANCH   1  10
ATOM     10  S   UNL     1       6.667   4.900  17.159  0.00  0.00    +0.000 S 
ATOM     11  O   UNL     1       6.170   5.837  18.139  0.00  0.00    +0.000 OA
ATOM     12  O   UNL     1       8.003   4.353  17.227  0.00  0.00    +0.000 OA
BRANCH  10  13
ATOM     13  N   UNL     1       6.479   5.609  15.623  0.00  0.00    +0.000 NA
ATOM     14  C   UNL     1       6.484   4.656  14.490  0.00  0.00    +0.000 C 
ATOM     15  C   UNL     1       5.291   6.497  15.558  0.00  0.00    +0.000 C 
ENDBRANCH  10  13
ENDBRANCH   1  10
TORSDOF 3
ENDMDL
MODEL 2
REMARK VINA RESULT:      -6.1      2.856      5.064
REMARK  Name = 
REMARK  6 active torsions:
REMARK  status: ('A' for Active; 'I' for Inactive)
REMARK    1  A    between atoms: C_1  and  C_2
REMARK    2  A    between atoms: C_5  and  N_6
REMARK    3  A    between atoms: N_6  and  S_7
REMARK    4  A    between atoms: S_7  and  N_10
REMARK    5  A    between atoms: N_10  and  C_11
REMARK    6  A    between atoms: N_10  and  C_12
REMARK                            x       y       z     vdW  Elec       q    Type
REMARK                         _______ _______ _______ _____ _____    ______ ____
ROOT
ATOM      1  N   UNL     1       4.999   3.427  17.867  0.00  0.00    +0.000 N 
ATOM      2  H   UNL     1       4.260   3.392  17.165  0.00  0.00    +0.000 HD
ENDROOT
BRANCH   1   7
ATOM      3  C   UNL     1       7.929   8.359  17.634  0.00  0.00    +0.000 C 
ATOM      4  C   UNL     1       7.170   7.066  17.701  0.00  0.00    +0.000 A 
ATOM      5  C   UNL     1       7.647   5.986  18.454  0.00  0.00    +0.000 A 
ATOM      6  C   UNL     1       6.932   4.785  18.503  0.00  0.00    +0.000 A 
ATOM      7  C   UNL     1       5.746   4.649  17.785  0.00  0.00    +0.000 A 
ATOM      8  C   UNL     1       5.247   5.726  17.052  0.00  0.00    +0.000 A 
ATOM      9  C   UNL     1       5.961   6.928  17.004  0.00  0.00    +0.000 A 
ENDBRANCH   1   7
BRANCH   1  10
ATOM     10  S   UNL     1       4.237   3.188  19.360  0.00  0.00    +0.000 S 
ATOM     11  O   UNL     1       5.029   2.313  20.192  0.00  0.00    +0.000 OA
ATOM     12  O   UNL     1       3.778   4.478  19.819  0.00  0.00    +0.000 OA
BRANCH  10  13
ATOM     13  N   UNL     1       2.874   2.312  18.838  0.00  0.00    +0.000 NA
ATOM     14  C   UNL     1       1.734   2.308  19.784  0.00  0.00    +0.000 C 
ATOM     15  C   UNL     1       2.431   2.721  17.482  0.00  0.00    +0.000 C 
ENDBRANCH  10  13
ENDBRANCH   1  10
TORSDOF 3
ENDMDL
MODEL 3
REMARK VINA RESULT:      -6.1      2.902      5.256
REMARK  Name = 
REMARK  6 active torsions:
REMARK  status: ('A' for Active; 'I' for Inactive)
REMARK    1  A    between atoms: C_1  and  C_2
REMARK    2  A    between atoms: C_5  and  N_6
REMARK    3  A    between atoms: N_6  and  S_7
REMARK    4  A    between atoms: S_7  and  N_10
REMARK    5  A    between atoms: N_10  and  C_11
REMARK    6  A    between atoms: N_10  and  C_12
REMARK                            x       y       z     vdW  Elec       q    Type
REMARK                         _______ _______ _______ _____ _____    ______ ____
ROOT
ATOM      1  N   UNL     1       4.797   3.450  17.949  0.00  0.00    +0.000 N 
ATOM      2  H   UNL     1       3.998   3.480  17.316  0.00  0.00    +0.000 HD
ENDROOT
BRANCH   1   7
ATOM      3  C   UNL     1       7.923   8.252  17.589  0.00  0.00    +0.000 C 
ATOM      4  C   UNL     1       7.098   7.001  17.678  0.00  0.00    +0.000 A 
ATOM      5  C   UNL     1       5.840   6.920  17.068  0.00  0.00    +0.000 A 
ATOM      6  C   UNL     1       5.081   5.749  17.164  0.00  0.00    +0.000 A 
ATOM      7  C   UNL     1       5.565   4.660  17.885  0.00  0.00    +0.000 A 
ATOM      8  C   UNL     1       6.828   4.720  18.474  0.00  0.00    +0.000 A 
ATOM      9  C   UNL     1       7.589   5.889  18.378  0.00  0.00    +0.000 A 
ENDBRANCH   1   7
BRANCH   1  10
ATOM     10  S   UNL     1       4.166   3.117  19.483  0.00  0.00    +0.000 S 
ATOM     11  O   UNL     1       5.060   2.252  20.216  0.00  0.00    +0.000 OA
ATOM     12  O   UNL     1       3.684   4.366  20.030  0.00  0.00    +0.000 OA
BRANCH  10  13
ATOM     13  N   UNL     1       2.808   2.196  19.031  0.00  0.00    +0.000 NA
ATOM     14  C   UNL     1       1.579   2.470  19.812  0.00  0.00    +0.000 C 
ATOM     15  C   UNL     1       2.535   2.278  17.575  0.00  0.00    +0.000 C 
ENDBRANCH  10  13
ENDBRANCH   1  10
TORSDOF 3
ENDMDL
MODEL 4
REMARK VINA RESULT:      -6.0      0.097      1.294
REMARK  Name = 
REMARK  6 active torsions:
REMARK  status: ('A' for Active; 'I' for Inactive)
REMARK    1  A    between atoms: C_1  and  C_2
REMARK    2  A    between atoms: C_5  and  N_6
REMARK    3  A    between atoms: N_6  and  S_7
REMARK    4  A    between atoms: S_7  and  N_10
REMARK    5  A    between atoms: N_10  and  C_11
REMARK    6  A    between atoms: N_10  and  C_12
REMARK                            x       y       z     vdW  Elec       q    Type
REMARK                         _______ _______ _______ _____ _____    ______ ____
ROOT
ATOM      1  N   UNL     1       5.585   3.595  17.046  0.00  0.00    +0.000 N 
ATOM      2  H   UNL     1       6.151   2.772  17.251  0.00  0.00    +0.000 HD
ENDROOT
BRANCH   1   7
ATOM      3  C   UNL     1       0.867   3.854  20.309  0.00  0.00    +0.000 C 
ATOM      4  C   UNL     1       2.095   3.790  19.448  0.00  0.00    +0.000 A 
ATOM      5  C   UNL     1       2.062   4.200  18.109  0.00  0.00    +0.000 A 
ATOM      6  C   UNL     1       3.213   4.130  17.317  0.00  0.00    +0.000 A 
ATOM      7  C   UNL     1       4.398   3.631  17.853  0.00  0.00    +0.000 A 
ATOM      8  C   UNL     1       4.451   3.245  19.192  0.00  0.00    +0.000 A 
ATOM      9  C   UNL     1       3.301   3.316  19.984  0.00  0.00    +0.000 A 
ENDBRANCH   1   7
BRANCH   1  10
ATOM     10  S   UNL     1       6.603   4.929  17.263  0.00  0.00    +0.000 S 
ATOM     11  O   UNL     1       6.024   5.853  18.208  0.00  0.00    +0.000 OA
ATOM     12  O   UNL     1       7.949   4.423  17.409  0.00  0.00    +0.000 OA
BRANCH  10  13
ATOM     13  N   UNL     1       6.481   5.626  15.715  0.00  0.00    +0.000 NA
ATOM     14  C   UNL     1       6.564   4.667  14.589  0.00  0.00    +0.000 C 
ATOM     15  C   UNL     1       5.280   6.489  15.583  0.00  0.00    +0.000 C 
ENDBRANCH  10  13
ENDBRANCH   1  10
TORSDOF 3
ENDMDL
MODEL 5
REMARK VINA RESULT:      -6.0      1.598      2.052
REMARK  Name = 
REMARK  6 active torsions:
REMARK  status: ('A' for Active; 'I' for Inactive)
REMARK    1  A    between atoms: C_1  and  C_2
REMARK    2  A    between atoms: C_5  and  N_6
REMARK    3  A    between atoms: N_6  and  S_7
REMARK    4  A    between atoms: S_7  and  N_10
REMARK    5  A    between atoms: N_10  and  C_11
REMARK    6  A    between atoms: N_10  and  C_12
REMARK                            x       y       z     vdW  Elec       q    Type
REMARK                         _______ _______ _______ _____ _____    ______ ____
ROOT
ATOM      1  N   UNL     1       6.339   4.117  18.745  0.00  0.00    +0.000 N 
ATOM      2  H   UNL     1       6.856   4.803  19.296  0.00  0.00    +0.000 HD
ENDROOT
BRANCH   1   7
ATOM      3  C   UNL     1       0.863   3.860  20.451  0.00  0.00    +0.000 C 
ATOM      4  C   UNL     1       2.294   3.937  20.005  0.00  0.00    +0.000 A 
ATOM      5  C   UNL     1       2.944   5.171  19.872  0.00  0.00    +0.000 A 
ATOM      6  C   UNL     1       4.277   5.227  19.451  0.00  0.00    +0.000 A 
ATOM      7  C   UNL     1       4.961   4.054  19.142  0.00  0.00    +0.000 A 
ATOM      8  C   UNL     1       4.333   2.819  19.296  0.00  0.00    +0.000 A 
ATOM      9  C   UNL     1       3.001   2.761  19.719  0.00  0.00    +0.000 A 
ENDBRANCH   1   7
BRANCH   1  10
ATOM     10  S   UNL     1       6.568   4.551  17.125  0.00  0.00    +0.000 S 
ATOM     11  O   UNL     1       7.965   4.459  16.775  0.00  0.00    +0.000 OA
ATOM     12  O   UNL     1       5.537   3.894  16.354  0.00  0.00    +0.000 OA
BRANCH  10  13
ATOM     13  N   UNL     1       6.165   6.202  17.221  0.00  0.00    +0.000 NA
ATOM     14  C   UNL     1       7.321   7.120  17.354  0.00  0.00    +0.000 C 
ATOM     15  C   UNL     1       5.280   6.629  16.109  0.00  0.00    +0.000 C 
ENDBRANCH  10  13
ENDBRANCH   1  10
TORSDOF 3
ENDMDL
MODEL 6
REMARK VINA RESULT:      -6.0      1.838      2.415
REMARK  Name = 
REMARK  6 active torsions:
REMARK  status: ('A' for Active; 'I' for Inactive)
REMARK    1  A    between atoms: C_1  and  C_2
REMARK    2  A    between atoms: C_5  and  N_6
REMARK    3  A    between atoms: N_6  and  S_7
REMARK    4  A    between atoms: S_7  and  N_10
REMARK    5  A    between atoms: N_10  and  C_11
REMARK    6  A    between atoms: N_10  and  C_12
REMARK                            x       y       z     vdW  Elec       q    Type
REMARK                         _______ _______ _______ _____ _____    ______ ____
ROOT
ATOM      1  N   UNL     1       5.943   3.722  18.652  0.00  0.00    +0.000 N 
ATOM      2  H   UNL     1       6.513   3.174  19.297  0.00  0.00    +0.000 HD
ENDROOT
BRANCH   1   7
ATOM      3  C   UNL     1       0.418   2.164  18.789  0.00  0.00    +0.000 C 
ATOM      4  C   UNL     1       1.862   2.574  18.743  0.00  0.00    +0.000 A 
ATOM      5  C   UNL     1       2.433   3.081  17.569  0.00  0.00    +0.000 A 
ATOM      6  C   UNL     1       3.781   3.453  17.540  0.00  0.00    +0.000 A 
ATOM      7  C   UNL     1       4.570   3.304  18.678  0.00  0.00    +0.000 A 
ATOM      8  C   UNL     1       4.006   2.826  19.861  0.00  0.00    +0.000 A 
ATOM      9  C   UNL     1       2.659   2.454  19.891  0.00  0.00    +0.000 A 
ENDBRANCH   1   7
BRANCH   1  10
ATOM     10  S   UNL     1       6.176   5.342  19.085  0.00  0.00    +0.000 S 
ATOM     11  O   UNL     1       4.915   5.953  19.433  0.00  0.00    +0.000 OA
ATOM     12  O   UNL     1       7.322   5.391  19.964  0.00  0.00    +0.000 OA
BRANCH  10  13
ATOM     13  N   UNL     1       6.656   5.966  17.576  0.00  0.00    +0.000 NA
ATOM     14  C   UNL     1       7.552   7.144  17.644  0.00  0.00    +0.000 C 
ATOM     15  C   UNL     1       7.229   4.919  16.694  0.00  0.00    +0.000 C 
ENDBRANCH  10  13
ENDBRANCH   1  10
TORSDOF 3
ENDMDL
MODEL 7
REMARK VINA RESULT:      -5.9      1.236      1.445
REMARK  Name = 
REMARK  6 active torsions:
REMARK  status: ('A' for Active; 'I' for Inactive)
REMARK    1  A    between atoms: C_1  and  C_2
REMARK    2  A    between atoms: C_5  and  N_6
REMARK    3  A    between atoms: N_6  and  S_7
REMARK    4  A    between atoms: S_7  and  N_10
REMARK    5  A    between atoms: N_10  and  C_11
REMARK    6  A    between atoms: N_10  and  C_12
REMARK                            x       y       z     vdW  Elec       q    Type
REMARK                         _______ _______ _______ _____ _____    ______ ____
ROOT
ATOM      1  N   UNL     1       5.690   3.807  17.603  0.00  0.00    +0.000 N 
ATOM      2  H   UNL     1       6.153   2.900  17.559  0.00  0.00    +0.000 HD
ENDROOT
BRANCH   1   7
ATOM      3  C   UNL     1       0.689   3.423  20.396  0.00  0.00    +0.000 C 
ATOM      4  C   UNL     1       2.000   3.516  19.672  0.00  0.00    +0.000 A 
ATOM      5  C   UNL     1       3.065   2.664  19.992  0.00  0.00    +0.000 A 
ATOM      6  C   UNL     1       4.283   2.766  19.312  0.00  0.00    +0.000 A 
ATOM      7  C   UNL     1       4.450   3.732  18.322  0.00  0.00    +0.000 A 
ATOM      8  C   UNL     1       3.389   4.568  17.976  0.00  0.00    +0.000 A 
ATOM      9  C   UNL     1       2.170   4.466  18.655  0.00  0.00    +0.000 A 
ENDBRANCH   1   7
BRANCH   1  10
ATOM     10  S   UNL     1       6.815   4.873  18.284  0.00  0.00    +0.000 S 
ATOM     11  O   UNL     1       6.459   5.170  19.652  0.00  0.00    +0.000 OA
ATOM     12  O   UNL     1       8.130   4.402  17.917  0.00  0.00    +0.000 OA
BRANCH  10  13
ATOM     13  N   UNL     1       6.485   6.258  17.351  0.00  0.00    +0.000 NA
ATOM     14  C   UNL     1       7.492   7.339  17.461  0.00  0.00    +0.000 C 
ATOM     15  C   UNL     1       6.223   5.926  15.928  0.00  0.00    +0.000 C 
ENDBRANCH  10  13
ENDBRANCH   1  10
TORSDOF 3
ENDMDL
MODEL 8
REMARK VINA RESULT:      -5.9      1.996      2.367
REMARK  Name = 
REMARK  6 active torsions:
REMARK  status: ('A' for Active; 'I' for Inactive)
REMARK    1  A    between atoms: C_1  and  C_2
REMARK    2  A    between atoms: C_5  and  N_6
REMARK    3  A    between atoms: N_6  and  S_7
REMARK    4  A    between atoms: S_7  and  N_10
REMARK    5  A    between atoms: N_10  and  C_11
REMARK    6  A    between atoms: N_10  and  C_12
REMARK                            x       y       z     vdW  Elec       q    Type
REMARK                         _______ _______ _______ _____ _____    ______ ____
ROOT
ATOM      1  N   UNL     1       6.138   4.369  17.569  0.00  0.00    +0.000 N 
ATOM      2  H   UNL     1       6.754   4.390  18.382  0.00  0.00    +0.000 HD
ENDROOT
BRANCH   1   7
ATOM      3  C   UNL     1       0.874   2.565  18.983  0.00  0.00    +0.000 C 
ATOM      4  C   UNL     1       2.253   3.037  18.623  0.00  0.00    +0.000 A 
ATOM      5  C   UNL     1       3.221   3.262  19.611  0.00  0.00    +0.000 A 
ATOM      6  C   UNL     1       4.499   3.706  19.261  0.00  0.00    +0.000 A 
ATOM      7  C   UNL     1       4.813   3.948  17.925  0.00  0.00    +0.000 A 
ATOM      8  C   UNL     1       3.866   3.702  16.931  0.00  0.00    +0.000 A 
ATOM      9  C   UNL     1       2.587   3.256  17.280  0.00  0.00    +0.000 A 
ENDBRANCH   1   7
BRANCH   1  10
ATOM     10  S   UNL     1       6.207   5.918  16.891  0.00  0.00    +0.000 S 
ATOM     11  O   UNL     1       6.441   5.833  15.469  0.00  0.00    +0.000 OA
ATOM     12  O   UNL     1       5.110   6.679  17.445  0.00  0.00    +0.000 OA
BRANCH  10  13
ATOM     13  N   UNL     1       7.640   6.477  17.620  0.00  0.00    +0.000 NA
ATOM     14  C   UNL     1       7.806   7.949  17.625  0.00  0.00    +0.000 C 
ATOM     15  C   UNL     1       7.829   5.921  18.983  0.00  0.00    +0.000 C 
ENDBRANCH  10  13
ENDBRANCH   1  10
TORSDOF 3
ENDMDL
MODEL 9
REMARK VINA RESULT:      -5.9      1.865      2.053
REMARK  Name = 
REMARK  6 active torsions:
REMARK  status: ('A' for Active; 'I' for Inactive)
REMARK    1  A    between atoms: C_1  and  C_2
REMARK    2  A    between atoms: C_5  and  N_6
REMARK    3  A    between atoms: N_6  and  S_7
REMARK    4  A    between atoms: S_7  and  N_10
REMARK    5  A    between atoms: N_10  and  C_11
REMARK    6  A    between atoms: N_10  and  C_12
REMARK                            x       y       z     vdW  Elec       q    Type
REMARK                         _______ _______ _______ _____ _____    ______ ____
ROOT
ATOM      1  N   UNL     1       4.493   4.427  16.627  0.00  0.00    +0.000 N 
ATOM      2  H   UNL     1       5.329   3.845  16.593  0.00  0.00    +0.000 HD
ENDROOT
BRANCH   1   7
ATOM      3  C   UNL     1       1.127   2.907  21.024  0.00  0.00    +0.000 C 
ATOM      4  C   UNL     1       2.015   3.302  19.880  0.00  0.00    +0.000 A 
ATOM      5  C   UNL     1       3.408   3.194  19.975  0.00  0.00    +0.000 A 
ATOM      6  C   UNL     1       4.223   3.571  18.903  0.00  0.00    +0.000 A 
ATOM      7  C   UNL     1       3.653   4.076  17.737  0.00  0.00    +0.000 A 
ATOM      8  C   UNL     1       2.266   4.164  17.620  0.00  0.00    +0.000 A 
ATOM      9  C   UNL     1       1.450   3.786  18.692  0.00  0.00    +0.000 A 
ENDBRANCH   1   7
BRANCH   1  10
ATOM     10  S   UNL     1       5.039   6.028  16.660  0.00  0.00    +0.000 S 
ATOM     11  O   UNL     1       5.317   6.490  15.320  0.00  0.00    +0.000 OA
ATOM     12  O   UNL     1       4.177   6.759  17.561  0.00  0.00    +0.000 OA
BRANCH  10  13
ATOM     13  N   UNL     1       6.530   5.797  17.447  0.00  0.00    +0.000 NA
ATOM     14  C   UNL     1       7.309   4.627  16.978  0.00  0.00    +0.000 C 
ATOM     15  C   UNL     1       7.365   7.024  17.436  0.00  0.00    +0.000 C 
ENDBRANCH  10  13
ENDBRANCH   1  10
TORSDOF 3
ENDMDL
