MODEL 1
REMARK VINA RESULT:      -8.0      0.000      0.000
REMARK  Name = 
REMARK  6 active torsions:
REMARK  status: ('A' for Active; 'I' for Inactive)
REMARK    1  A    between atoms: C_2  and  C_3
REMARK    2  A    between atoms: C_3  and  N_4
REMARK    3  A    between atoms: C_10  and  C_11
REMARK    4  A    between atoms: N_22  and  C_23
REMARK    5  A    between atoms: C_23  and  C_24
REMARK    6  A    between atoms: C_24  and  N_25
REMARK                            x       y       z     vdW  Elec       q    Type
REMARK                         _______ _______ _______ _____ _____    ______ ____
ROOT
ATOM      1  N   UNL     1      -0.036  10.283  19.269  0.00  0.00    +0.000 N 
ATOM      2  C   UNL     1      -0.366  10.265  20.694  0.00  0.00    +0.000 C 
ATOM      3  C   UNL     1      -0.221   8.907  21.373  0.00  0.00    +0.000 C 
ATOM      4  C   UNL     1       1.230   8.470  21.473  0.00  0.00    +0.000 C 
ATOM      5  C   UNL     1       1.733   7.948  20.163  0.00  0.00    +0.000 A 
ATOM      6  N   UNL     1       2.071   6.637  20.142  0.00  0.00    +0.000 NA
ATOM      7  C   UNL     1       2.522   6.117  18.980  0.00  0.00    +0.000 A 
ATOM      8  N   UNL     1       2.718   6.834  17.859  0.00  0.00    +0.000 NA
ATOM      9  C   UNL     1       2.362   8.134  17.919  0.00  0.00    +0.000 A 
ATOM     10  C   UNL     1       1.829   8.737  19.042  0.00  0.00    +0.000 A 
ATOM     11  C   UNL     1       1.303  10.102  18.901  0.00  0.00    +0.000 C 
ATOM     12  O   UNL     1       1.940  10.907  18.231  0.00  0.00    +0.000 OA
ENDROOT
BRANCH   7  13
ATOM     13  C   UNL     1       2.748   4.664  18.930  0.00  0.00    +0.000 A 
ATOM     14  C   UNL     1       2.379   3.834  20.001  0.00  0.00    +0.000 A 
ATOM     15  C   UNL     1       2.601   2.470  19.912  0.00  0.00    +0.000 A 
ATOM     16  N   UNL     1       3.156   1.871  18.840  0.00  0.00    +0.000 NA
ATOM     17  C   UNL     1       3.498   2.672  17.811  0.00  0.00    +0.000 A 
ATOM     18  C   UNL     1       3.314   4.046  17.809  0.00  0.00    +0.000 A 
ENDBRANCH   7  13
BRANCH   1  19
ATOM     19  C   UNL     1      -0.762  11.293  18.484  0.00  0.00    +0.000 C 
BRANCH  19  21
ATOM     20  O   UNL     1      -1.903   9.748  17.022  0.00  0.00    +0.000 OA
ATOM     21  C   UNL     1      -2.001  10.711  17.779  0.00  0.00    +0.000 C 
ATOM     22  N   UNL     1      -3.195  11.339  18.076  0.00  0.00    +0.000 N 
ATOM     23  H   UNL     1      -3.122  12.214  18.597  0.00  0.00    +0.000 HD
BRANCH  22  24
ATOM     24  C   UNL     1      -4.469  11.060  17.418  0.00  0.00    +0.000 C 
BRANCH  24  25
ATOM     25  C   UNL     1      -5.483  12.217  17.500  0.00  0.00    +0.000 C 
BRANCH  25  26
ATOM     26  N   UNL     1      -6.884  11.858  17.797  0.00  0.00    +0.000 NA
ATOM     27  C   UNL     1      -7.738  12.995  18.195  0.00  0.00    +0.000 C 
ATOM     28  C   UNL     1      -7.401  13.574  19.579  0.00  0.00    +0.000 C 
ATOM     29  O   UNL     1      -7.469  12.566  20.595  0.00  0.00    +0.000 OA
ATOM     30  C   UNL     1      -6.596  11.470  20.288  0.00  0.00    +0.000 C 
ATOM     31  C   UNL     1      -6.912  10.867  18.906  0.00  0.00    +0.000 C 
ENDBRANCH  25  26
ENDBRANCH  24  25
ENDBRANCH  22  24
ENDBRANCH  19  21
ENDBRANCH   1  19
TORSDOF 6
ENDMDL
MODEL 2
REMARK VINA RESULT:      -7.9      0.804      1.229
REMARK  Name = 
REMARK  6 active torsions:
REMARK  status: ('A' for Active; 'I' for Inactive)
REMARK    1  A    between atoms: C_2  and  C_3
REMARK    2  A    between atoms: C_3  and  N_4
REMARK    3  A    between atoms: C_10  and  C_11
REMARK    4  A    between atoms: N_22  and  C_23
REMARK    5  A    between atoms: C_23  and  C_24
REMARK    6  A    between atoms: C_24  and  N_25
REMARK                            x       y       z     vdW  Elec       q    Type
REMARK                         _______ _______ _______ _____ _____    ______ ____
ROOT
ATOM      1  N   UNL     1       0.124  10.386  19.240  0.00  0.00    +0.000 N 
ATOM      2  C   UNL     1      -0.226  10.378  20.661  0.00  0.00    +0.000 C 
ATOM      3  C   UNL     1      -0.171   9.010  21.331  0.00  0.00    +0.000 C 
ATOM      4  C   UNL     1       1.249   8.487  21.448  0.00  0.00    +0.000 C 
ATOM      5  C   UNL     1       1.739   7.944  20.142  0.00  0.00    +0.000 A 
ATOM      6  N   UNL     1       1.999   6.615  20.115  0.00  0.00    +0.000 NA
ATOM      7  C   UNL     1       2.435   6.077  18.956  0.00  0.00    +0.000 A 
ATOM      8  N   UNL     1       2.688   6.788  17.843  0.00  0.00    +0.000 NA
ATOM      9  C   UNL     1       2.409   8.106  17.908  0.00  0.00    +0.000 A 
ATOM     10  C   UNL     1       1.898   8.732  19.027  0.00  0.00    +0.000 A 
ATOM     11  C   UNL     1       1.455  10.127  18.889  0.00  0.00    +0.000 C 
ATOM     12  O   UNL     1       2.148  10.898  18.234  0.00  0.00    +0.000 OA
ENDROOT
BRANCH   7  13
ATOM     13  C   UNL     1       2.575   4.614  18.899  0.00  0.00    +0.000 A 
ATOM     14  C   UNL     1       2.503   3.924  17.678  0.00  0.00    +0.000 A 
ATOM     15  C   UNL     1       2.648   2.547  17.665  0.00  0.00    +0.000 A 
ATOM     16  N   UNL     1       2.862   1.807  18.771  0.00  0.00    +0.000 NA
ATOM     17  C   UNL     1       2.940   2.476  19.939  0.00  0.00    +0.000 A 
ATOM     18  C   UNL     1       2.808   3.852  20.050  0.00  0.00    +0.000 A 
ENDBRANCH   7  13
BRANCH   1  19
ATOM     19  C   UNL     1      -0.529  11.441  18.453  0.00  0.00    +0.000 C 
BRANCH  19  21
ATOM     20  O   UNL     1      -2.131  10.102  17.243  0.00  0.00    +0.000 OA
ATOM     21  C   UNL     1      -1.949  11.048  18.005  0.00  0.00    +0.000 C 
ATOM     22  N   UNL     1      -2.966  11.821  18.531  0.00  0.00    +0.000 N 
ATOM     23  H   UNL     1      -2.675  12.664  19.028  0.00  0.00    +0.000 HD
BRANCH  22  24
ATOM     24  C   UNL     1      -4.370  11.731  18.136  0.00  0.00    +0.000 C 
BRANCH  24  25
ATOM     25  C   UNL     1      -5.343  12.402  19.125  0.00  0.00    +0.000 C 
BRANCH  25  26
ATOM     26  N   UNL     1      -6.784  12.159  18.914  0.00  0.00    +0.000 NA
ATOM     27  C   UNL     1      -7.646  12.566  20.041  0.00  0.00    +0.000 C 
ATOM     28  C   UNL     1      -7.494  11.688  21.293  0.00  0.00    +0.000 C 
ATOM     29  O   UNL     1      -7.744  10.308  20.995  0.00  0.00    +0.000 OA
ATOM     30  C   UNL     1      -6.874   9.845  19.953  0.00  0.00    +0.000 C 
ATOM     31  C   UNL     1      -7.007  10.706  18.682  0.00  0.00    +0.000 C 
ENDBRANCH  25  26
ENDBRANCH  24  25
ENDBRANCH  22  24
ENDBRANCH  19  21
ENDBRANCH   1  19
TORSDOF 6
ENDMDL
MODEL 3
REMARK VINA RESULT:      -7.6      5.079     10.394
REMARK  Name = 
REMARK  6 active torsions:
REMARK  status: ('A' for Active; 'I' for Inactive)
REMARK    1  A    between atoms: C_2  and  C_3
REMARK    2  A    between atoms: C_3  and  N_4
REMARK    3  A    between atoms: C_10  and  C_11
REMARK    4  A    between atoms: N_22  and  C_23
REMARK    5  A    between atoms: C_23  and  C_24
REMARK    6  A    between atoms: C_24  and  N_25
REMARK                            x       y       z     vdW  Elec       q    Type
REMARK                         _______ _______ _______ _____ _____    ______ ____
ROOT
ATOM      1  N   UNL     1       5.447   6.182  17.862  0.00  0.00    +0.000 N 
ATOM      2  C   UNL     1       5.284   4.891  18.530  0.00  0.00    +0.000 C 
ATOM      3  C   UNL     1       4.355   4.905  19.740  0.00  0.00    +0.000 C 
ATOM      4  C   UNL     1       2.907   5.138  19.347  0.00  0.00    +0.000 C 
ATOM      5  C   UNL     1       2.651   6.582  19.046  0.00  0.00    +0.000 A 
ATOM      6  N   UNL     1       1.793   7.215  19.881  0.00  0.00    +0.000 NA
ATOM      7  C   UNL     1       1.536   8.521  19.656  0.00  0.00    +0.000 A 
ATOM      8  N   UNL     1       2.029   9.218  18.617  0.00  0.00    +0.000 NA
ATOM      9  C   UNL     1       2.885   8.554  17.813  0.00  0.00    +0.000 A 
ATOM     10  C   UNL     1       3.259   7.238  18.003  0.00  0.00    +0.000 A 
ATOM     11  C   UNL     1       4.349   6.709  17.171  0.00  0.00    +0.000 C 
ATOM     12  O   UNL     1       4.371   7.003  15.981  0.00  0.00    +0.000 OA
ENDROOT
BRANCH   7  13
ATOM     13  C   UNL     1       0.720   9.233  20.652  0.00  0.00    +0.000 A 
ATOM     14  C   UNL     1       0.724   8.850  22.003  0.00  0.00    +0.000 A 
ATOM     15  C   UNL     1      -0.053   9.550  22.910  0.00  0.00    +0.000 A 
ATOM     16  N   UNL     1      -0.827  10.602  22.577  0.00  0.00    +0.000 NA
ATOM     17  C   UNL     1      -0.818  10.971  21.280  0.00  0.00    +0.000 A 
ATOM     18  C   UNL     1      -0.074  10.332  20.302  0.00  0.00    +0.000 A 
ENDBRANCH   7  13
BRANCH   1  19
ATOM     19  C   UNL     1       6.744   6.368  17.195  0.00  0.00    +0.000 C 
BRANCH  19  21
ATOM     20  O   UNL     1       8.358   6.515  18.984  0.00  0.00    +0.000 OA
ATOM     21  C   UNL     1       7.763   7.104  18.084  0.00  0.00    +0.000 C 
ATOM     22  N   UNL     1       7.952   8.438  17.780  0.00  0.00    +0.000 N 
ATOM     23  H   UNL     1       7.292   8.843  17.115  0.00  0.00    +0.000 HD
BRANCH  22  24
ATOM     24  C   UNL     1       8.751   9.369  18.575  0.00  0.00    +0.000 C 
BRANCH  24  25
ATOM     25  C   UNL     1       8.914  10.760  17.933  0.00  0.00    +0.000 C 
BRANCH  25  26
ATOM     26  N   UNL     1      10.191  11.462  18.175  0.00  0.00    +0.000 NA
ATOM     27  C   UNL     1      10.556  11.597  19.599  0.00  0.00    +0.000 C 
ATOM     28  C   UNL     1       9.662  12.571  20.384  0.00  0.00    +0.000 C 
ATOM     29  O   UNL     1       9.655  13.871  19.782  0.00  0.00    +0.000 OA
ATOM     30  C   UNL     1       9.233  13.800  18.414  0.00  0.00    +0.000 C 
ATOM     31  C   UNL     1      10.114  12.832  17.600  0.00  0.00    +0.000 C 
ENDBRANCH  25  26
ENDBRANCH  24  25
ENDBRANCH  22  24
ENDBRANCH  19  21
ENDBRANCH   1  19
TORSDOF 6
ENDMDL
MODEL 4
REMARK VINA RESULT:      -7.5      1.608      1.933
REMARK  Name = 
REMARK  6 active torsions:
REMARK  status: ('A' for Active; 'I' for Inactive)
REMARK    1  A    between atoms: C_2  and  C_3
REMARK    2  A    between atoms: C_3  and  N_4
REMARK    3  A    between atoms: C_10  and  C_11
REMARK    4  A    between atoms: N_22  and  C_23
REMARK    5  A    between atoms: C_23  and  C_24
REMARK    6  A    between atoms: C_24  and  N_25
REMARK                            x       y       z     vdW  Elec       q    Type
REMARK                         _______ _______ _______ _____ _____    ______ ____
ROOT
ATOM      1  N   UNL     1       0.001  10.302  19.276  0.00  0.00    +0.000 N 
ATOM      2  C   UNL     1      -0.333  10.285  20.700  0.00  0.00    +0.000 C 
ATOM      3  C   UNL     1      -0.222   8.921  21.373  0.00  0.00    +0.000 C 
ATOM      4  C   UNL     1       1.218   8.449  21.474  0.00  0.00    +0.000 C 
ATOM      5  C   UNL     1       1.712   7.921  20.163  0.00  0.00    +0.000 A 
ATOM      6  N   UNL     1       2.019   6.603  20.136  0.00  0.00    +0.000 NA
ATOM      7  C   UNL     1       2.460   6.078  18.973  0.00  0.00    +0.000 A 
ATOM      8  N   UNL     1       2.676   6.795  17.856  0.00  0.00    +0.000 NA
ATOM      9  C   UNL     1       2.350   8.103  17.922  0.00  0.00    +0.000 A 
ATOM     10  C   UNL     1       1.829   8.713  19.046  0.00  0.00    +0.000 A 
ATOM     11  C   UNL     1       1.336  10.091  18.910  0.00  0.00    +0.000 C 
ATOM     12  O   UNL     1       1.993  10.884  18.246  0.00  0.00    +0.000 OA
ENDROOT
BRANCH   7  13
ATOM     13  C   UNL     1       2.652   4.620  18.917  0.00  0.00    +0.000 A 
ATOM     14  C   UNL     1       3.877   4.033  19.273  0.00  0.00    +0.000 A 
ATOM     15  C   UNL     1       4.015   2.657  19.213  0.00  0.00    +0.000 A 
ATOM     16  N   UNL     1       3.027   1.823  18.834  0.00  0.00    +0.000 NA
ATOM     17  C   UNL     1       1.850   2.391  18.504  0.00  0.00    +0.000 A 
ATOM     18  C   UNL     1       1.618   3.758  18.532  0.00  0.00    +0.000 A 
ENDBRANCH   7  13
BRANCH   1  19
ATOM     19  C   UNL     1      -0.699  11.332  18.494  0.00  0.00    +0.000 C 
BRANCH  19  21
ATOM     20  O   UNL     1      -2.895  10.382  18.176  0.00  0.00    +0.000 OA
ATOM     21  C   UNL     1      -2.226  11.279  18.684  0.00  0.00    +0.000 C 
ATOM     22  N   UNL     1      -2.757  12.289  19.462  0.00  0.00    +0.000 N 
ATOM     23  H   UNL     1      -2.121  13.052  19.699  0.00  0.00    +0.000 HD
BRANCH  22  24
ATOM     24  C   UNL     1      -4.185  12.528  19.657  0.00  0.00    +0.000 C 
BRANCH  24  25
ATOM     25  C   UNL     1      -4.550  13.031  21.067  0.00  0.00    +0.000 C 
BRANCH  25  26
ATOM     26  N   UNL     1      -5.620  12.304  21.780  0.00  0.00    +0.000 NA
ATOM     27  C   UNL     1      -6.887  12.189  21.032  0.00  0.00    +0.000 C 
ATOM     28  C   UNL     1      -7.643  13.518  20.876  0.00  0.00    +0.000 C 
ATOM     29  O   UNL     1      -7.910  14.118  22.150  0.00  0.00    +0.000 OA
ATOM     30  C   UNL     1      -6.696  14.319  22.886  0.00  0.00    +0.000 C 
ATOM     31  C   UNL     1      -5.917  13.001  23.061  0.00  0.00    +0.000 C 
ENDBRANCH  25  26
ENDBRANCH  24  25
ENDBRANCH  22  24
ENDBRANCH  19  21
ENDBRANCH   1  19
TORSDOF 6
ENDMDL
MODEL 5
REMARK VINA RESULT:      -7.4      3.589      6.032
REMARK  Name = 
REMARK  6 active torsions:
REMARK  status: ('A' for Active; 'I' for Inactive)
REMARK    1  A    between atoms: C_2  and  C_3
REMARK    2  A    between atoms: C_3  and  N_4
REMARK    3  A    between atoms: C_10  and  C_11
REMARK    4  A    between atoms: N_22  and  C_23
REMARK    5  A    between atoms: C_23  and  C_24
REMARK    6  A    between atoms: C_24  and  N_25
REMARK                            x       y       z     vdW  Elec       q    Type
REMARK                         _______ _______ _______ _____ _____    ______ ____
ROOT
ATOM      1  N   UNL     1       2.711   5.455  19.248  0.00  0.00    +0.000 N 
ATOM      2  C   UNL     1       1.644   4.506  18.933  0.00  0.00    +0.000 C 
ATOM      3  C   UNL     1       1.678   3.943  17.516  0.00  0.00    +0.000 C 
ATOM      4  C   UNL     1       2.867   3.023  17.295  0.00  0.00    +0.000 C 
ATOM      5  C   UNL     1       4.128   3.804  17.091  0.00  0.00    +0.000 A 
ATOM      6  N   UNL     1       4.704   3.686  15.871  0.00  0.00    +0.000 NA
ATOM      7  C   UNL     1       5.839   4.378  15.636  0.00  0.00    +0.000 A 
ATOM      8  N   UNL     1       6.470   5.127  16.558  0.00  0.00    +0.000 NA
ATOM      9  C   UNL     1       5.861   5.226  17.757  0.00  0.00    +0.000 A 
ATOM     10  C   UNL     1       4.665   4.609  18.068  0.00  0.00    +0.000 A 
ATOM     11  C   UNL     1       4.020   4.966  19.340  0.00  0.00    +0.000 C 
ATOM     12  O   UNL     1       4.723   5.086  20.337  0.00  0.00    +0.000 OA
ENDROOT
BRANCH   7  13
ATOM     13  C   UNL     1       6.374   4.357  14.266  0.00  0.00    +0.000 A 
ATOM     14  C   UNL     1       5.831   3.510  13.286  0.00  0.00    +0.000 A 
ATOM     15  C   UNL     1       6.358   3.525  12.006  0.00  0.00    +0.000 A 
ATOM     16  N   UNL     1       7.377   4.321  11.626  0.00  0.00    +0.000 NA
ATOM     17  C   UNL     1       7.886   5.140  12.568  0.00  0.00    +0.000 A 
ATOM     18  C   UNL     1       7.425   5.195  13.874  0.00  0.00    +0.000 A 
ENDBRANCH   7  13
BRANCH   1  19
ATOM     19  C   UNL     1       2.356   6.466  20.255  0.00  0.00    +0.000 C 
BRANCH  19  21
ATOM     20  O   UNL     1       2.099   8.036  18.440  0.00  0.00    +0.000 OA
ATOM     21  C   UNL     1       1.873   7.784  19.621  0.00  0.00    +0.000 C 
ATOM     22  N   UNL     1       1.174   8.620  20.468  0.00  0.00    +0.000 N 
ATOM     23  H   UNL     1       1.183   8.366  21.457  0.00  0.00    +0.000 HD
BRANCH  22  24
ATOM     24  C   UNL     1       0.750   9.979  20.134  0.00  0.00    +0.000 C 
BRANCH  24  25
ATOM     25  C   UNL     1      -0.684  10.068  19.575  0.00  0.00    +0.000 C 
BRANCH  25  26
ATOM     26  N   UNL     1      -0.868  10.837  18.329  0.00  0.00    +0.000 NA
ATOM     27  C   UNL     1      -1.613  12.101  18.493  0.00  0.00    +0.000 C 
ATOM     28  C   UNL     1      -3.104  11.911  18.811  0.00  0.00    +0.000 C 
ATOM     29  O   UNL     1      -3.754  11.118  17.810  0.00  0.00    +0.000 OA
ATOM     30  C   UNL     1      -3.109   9.845  17.666  0.00  0.00    +0.000 C 
ATOM     31  C   UNL     1      -1.610  10.005  17.343  0.00  0.00    +0.000 C 
ENDBRANCH  25  26
ENDBRANCH  24  25
ENDBRANCH  22  24
ENDBRANCH  19  21
ENDBRANCH   1  19
TORSDOF 6
ENDMDL
MODEL 6
REMARK VINA RESULT:      -7.4      2.564      3.194
REMARK  Name = 
REMARK  6 active torsions:
REMARK  status: ('A' for Active; 'I' for Inactive)
REMARK    1  A    between atoms: C_2  and  C_3
REMARK    2  A    between atoms: C_3  and  N_4
REMARK    3  A    between atoms: C_10  and  C_11
REMARK    4  A    between atoms: N_22  and  C_23
REMARK    5  A    between atoms: C_23  and  C_24
REMARK    6  A    between atoms: C_24  and  N_25
REMARK                            x       y       z     vdW  Elec       q    Type
REMARK                         _______ _______ _______ _____ _____    ______ ____
ROOT
ATOM      1  N   UNL     1      -0.128  10.382  19.459  0.00  0.00    +0.000 N 
ATOM      2  C   UNL     1      -0.388  10.356  20.898  0.00  0.00    +0.000 C 
ATOM      3  C   UNL     1      -0.225   8.991  21.558  0.00  0.00    +0.000 C 
ATOM      4  C   UNL     1       1.225   8.539  21.585  0.00  0.00    +0.000 C 
ATOM      5  C   UNL     1       1.658   8.022  20.248  0.00  0.00    +0.000 A 
ATOM      6  N   UNL     1       1.981   6.708  20.201  0.00  0.00    +0.000 NA
ATOM      7  C   UNL     1       2.370   6.193  19.015  0.00  0.00    +0.000 A 
ATOM      8  N   UNL     1       2.518   6.916  17.891  0.00  0.00    +0.000 NA
ATOM      9  C   UNL     1       2.179   8.219  17.978  0.00  0.00    +0.000 A 
ATOM     10  C   UNL     1       1.708   8.819  19.129  0.00  0.00    +0.000 A 
ATOM     11  C   UNL     1       1.189  10.190  19.025  0.00  0.00    +0.000 C 
ATOM     12  O   UNL     1       1.801  10.994  18.331  0.00  0.00    +0.000 OA
ENDROOT
BRANCH   7  13
ATOM     13  C   UNL     1       2.577   4.738  18.943  0.00  0.00    +0.000 A 
ATOM     14  C   UNL     1       3.627   4.190  18.188  0.00  0.00    +0.000 A 
ATOM     15  C   UNL     1       3.794   2.816  18.152  0.00  0.00    +0.000 A 
ATOM     16  N   UNL     1       3.001   1.949  18.813  0.00  0.00    +0.000 NA
ATOM     17  C   UNL     1       2.002   2.482  19.544  0.00  0.00    +0.000 A 
ATOM     18  C   UNL     1       1.757   3.843  19.640  0.00  0.00    +0.000 A 
ENDBRANCH   7  13
BRANCH   1  19
ATOM     19  C   UNL     1      -0.880  11.405  18.718  0.00  0.00    +0.000 C 
BRANCH  19  21
ATOM     20  O   UNL     1       0.024  13.412  19.708  0.00  0.00    +0.000 OA
ATOM     21  C   UNL     1      -0.978  12.736  19.486  0.00  0.00    +0.000 C 
ATOM     22  N   UNL     1      -2.253  13.095  19.878  0.00  0.00    +0.000 N 
ATOM     23  H   UNL     1      -2.973  12.381  19.766  0.00  0.00    +0.000 HD
BRANCH  22  24
ATOM     24  C   UNL     1      -2.570  14.231  20.741  0.00  0.00    +0.000 C 
BRANCH  24  25
ATOM     25  C   UNL     1      -3.939  14.124  21.440  0.00  0.00    +0.000 C 
BRANCH  25  26
ATOM     26  N   UNL     1      -4.000  14.532  22.857  0.00  0.00    +0.000 NA
ATOM     27  C   UNL     1      -3.123  13.757  23.757  0.00  0.00    +0.000 C 
ATOM     28  C   UNL     1      -3.573  12.303  23.967  0.00  0.00    +0.000 C 
ATOM     29  O   UNL     1      -4.916  12.240  24.463  0.00  0.00    +0.000 OA
ATOM     30  C   UNL     1      -5.820  12.918  23.580  0.00  0.00    +0.000 C 
ATOM     31  C   UNL     1      -5.395  14.382  23.352  0.00  0.00    +0.000 C 
ENDBRANCH  25  26
ENDBRANCH  24  25
ENDBRANCH  22  24
ENDBRANCH  19  21
ENDBRANCH   1  19
TORSDOF 6
ENDMDL
MODEL 7
REMARK VINA RESULT:      -7.4      1.151      1.521
REMARK  Name = 
REMARK  6 active torsions:
REMARK  status: ('A' for Active; 'I' for Inactive)
REMARK    1  A    between atoms: C_2  and  C_3
REMARK    2  A    between atoms: C_3  and  N_4
REMARK    3  A    between atoms: C_10  and  C_11
REMARK    4  A    between atoms: N_22  and  C_23
REMARK    5  A    between atoms: C_23  and  C_24
REMARK    6  A    between atoms: C_24  and  N_25
REMARK                            x       y       z     vdW  Elec       q    Type
REMARK                         _______ _______ _______ _____ _____    ______ ____
ROOT
ATOM      1  N   UNL     1       0.022  10.192  19.247  0.00  0.00    +0.000 N 
ATOM      2  C   UNL     1      -0.308  10.146  20.672  0.00  0.00    +0.000 C 
ATOM      3  C   UNL     1      -0.156   8.776  21.324  0.00  0.00    +0.000 C 
ATOM      4  C   UNL     1       1.297   8.344  21.417  0.00  0.00    +0.000 C 
ATOM      5  C   UNL     1       1.803   7.850  20.098  0.00  0.00    +0.000 A 
ATOM      6  N   UNL     1       2.148   6.541  20.051  0.00  0.00    +0.000 NA
ATOM      7  C   UNL     1       2.602   6.046  18.880  0.00  0.00    +0.000 A 
ATOM      8  N   UNL     1       2.794   6.784  17.773  0.00  0.00    +0.000 NA
ATOM      9  C   UNL     1       2.431   8.081  17.858  0.00  0.00    +0.000 A 
ATOM     10  C   UNL     1       1.895   8.660  18.991  0.00  0.00    +0.000 A 
ATOM     11  C   UNL     1       1.362  10.024  18.876  0.00  0.00    +0.000 C 
ATOM     12  O   UNL     1       1.995  10.846  18.222  0.00  0.00    +0.000 OA
ENDROOT
BRANCH   7  13
ATOM     13  C   UNL     1       2.835   4.595  18.803  0.00  0.00    +0.000 A 
ATOM     14  C   UNL     1       3.934   4.000  19.443  0.00  0.00    +0.000 A 
ATOM     15  C   UNL     1       4.115   2.630  19.353  0.00  0.00    +0.000 A 
ATOM     16  N   UNL     1       3.284   1.810  18.681  0.00  0.00    +0.000 NA
ATOM     17  C   UNL     1       2.224   2.385  18.077  0.00  0.00    +0.000 A 
ATOM     18  C   UNL     1       1.962   3.746  18.112  0.00  0.00    +0.000 A 
ENDBRANCH   7  13
BRANCH   1  19
ATOM     19  C   UNL     1      -0.709  11.212  18.481  0.00  0.00    +0.000 C 
BRANCH  19  21
ATOM     20  O   UNL     1      -2.658   9.869  18.009  0.00  0.00    +0.000 OA
ATOM     21  C   UNL     1      -2.223  10.938  18.431  0.00  0.00    +0.000 C 
ATOM     22  N   UNL     1      -3.021  11.963  18.901  0.00  0.00    +0.000 N 
ATOM     23  H   UNL     1      -2.550  12.851  19.081  0.00  0.00    +0.000 HD
BRANCH  22  24
ATOM     24  C   UNL     1      -4.480  11.990  18.814  0.00  0.00    +0.000 C 
BRANCH  24  25
ATOM     25  C   UNL     1      -5.158  12.824  19.918  0.00  0.00    +0.000 C 
BRANCH  25  26
ATOM     26  N   UNL     1      -6.622  12.690  20.052  0.00  0.00    +0.000 NA
ATOM     27  C   UNL     1      -7.292  12.078  18.888  0.00  0.00    +0.000 C 
ATOM     28  C   UNL     1      -7.305  12.968  17.636  0.00  0.00    +0.000 C 
ATOM     29  O   UNL     1      -7.915  14.237  17.905  0.00  0.00    +0.000 OA
ATOM     30  C   UNL     1      -7.248  14.906  18.984  0.00  0.00    +0.000 C 
ATOM     31  C   UNL     1      -7.221  14.037  20.257  0.00  0.00    +0.000 C 
ENDBRANCH  25  26
ENDBRANCH  24  25
ENDBRANCH  22  24
ENDBRANCH  19  21
ENDBRANCH   1  19
TORSDOF 6
ENDMDL
MODEL 8
REMARK VINA RESULT:      -7.3      1.847      2.436
REMARK  Name = 
REMARK  6 active torsions:
REMARK  status: ('A' for Active; 'I' for Inactive)
REMARK    1  A    between atoms: C_2  and  C_3
REMARK    2  A    between atoms: C_3  and  N_4
REMARK    3  A    between atoms: C_10  and  C_11
REMARK    4  A    between atoms: N_22  and  C_23
REMARK    5  A    between atoms: C_23  and  C_24
REMARK    6  A    between atoms: C_24  and  N_25
REMARK                            x       y       z     vdW  Elec       q    Type
REMARK                         _______ _______ _______ _____ _____    ______ ____
ROOT
ATOM      1  N   UNL     1      -0.026  10.318  19.278  0.00  0.00    +0.000 N 
ATOM      2  C   UNL     1      -0.335  10.317  20.708  0.00  0.00    +0.000 C 
ATOM      3  C   UNL     1      -0.211   8.962  21.395  0.00  0.00    +0.000 C 
ATOM      4  C   UNL     1       1.231   8.494  21.478  0.00  0.00    +0.000 C 
ATOM      5  C   UNL     1       1.704   7.951  20.166  0.00  0.00    +0.000 A 
ATOM      6  N   UNL     1       2.013   6.632  20.150  0.00  0.00    +0.000 NA
ATOM      7  C   UNL     1       2.436   6.094  18.986  0.00  0.00    +0.000 A 
ATOM      8  N   UNL     1       2.631   6.798  17.857  0.00  0.00    +0.000 NA
ATOM      9  C   UNL     1       2.305   8.106  17.912  0.00  0.00    +0.000 A 
ATOM     10  C   UNL     1       1.801   8.728  19.037  0.00  0.00    +0.000 A 
ATOM     11  C   UNL     1       1.303  10.104  18.893  0.00  0.00    +0.000 C 
ATOM     12  O   UNL     1       1.948  10.890  18.208  0.00  0.00    +0.000 OA
ENDROOT
BRANCH   7  13
ATOM     13  C   UNL     1       2.629   4.636  18.944  0.00  0.00    +0.000 A 
ATOM     14  C   UNL     1       3.601   4.055  18.114  0.00  0.00    +0.000 A 
ATOM     15  C   UNL     1       3.757   2.679  18.109  0.00  0.00    +0.000 A 
ATOM     16  N   UNL     1       3.025   1.841  18.869  0.00  0.00    +0.000 NA
ATOM     17  C   UNL     1       2.100   2.406  19.671  0.00  0.00    +0.000 A 
ATOM     18  C   UNL     1       1.873   3.771  19.744  0.00  0.00    +0.000 A 
ENDBRANCH   7  13
BRANCH   1  19
ATOM     19  C   UNL     1      -0.740  11.337  18.496  0.00  0.00    +0.000 C 
BRANCH  19  21
ATOM     20  O   UNL     1      -2.774  10.130  18.013  0.00  0.00    +0.000 OA
ATOM     21  C   UNL     1      -2.267  11.130  18.514  0.00  0.00    +0.000 C 
ATOM     22  N   UNL     1      -2.987  12.131  19.137  0.00  0.00    +0.000 N 
ATOM     23  H   UNL     1      -2.465  12.975  19.377  0.00  0.00    +0.000 HD
BRANCH  22  24
ATOM     24  C   UNL     1      -4.445  12.226  19.146  0.00  0.00    +0.000 C 
BRANCH  24  25
ATOM     25  C   UNL     1      -5.004  13.184  20.216  0.00  0.00    +0.000 C 
BRANCH  25  26
ATOM     26  N   UNL     1      -4.082  13.593  21.293  0.00  0.00    +0.000 NA
ATOM     27  C   UNL     1      -4.218  12.822  22.544  0.00  0.00    +0.000 C 
ATOM     28  C   UNL     1      -5.524  13.097  23.308  0.00  0.00    +0.000 C 
ATOM     29  O   UNL     1      -5.669  14.491  23.606  0.00  0.00    +0.000 OA
ATOM     30  C   UNL     1      -5.617  15.279  22.408  0.00  0.00    +0.000 C 
ATOM     31  C   UNL     1      -4.316  15.026  21.622  0.00  0.00    +0.000 C 
ENDBRANCH  25  26
ENDBRANCH  24  25
ENDBRANCH  22  24
ENDBRANCH  19  21
ENDBRANCH   1  19
TORSDOF 6
ENDMDL
MODEL 9
REMARK VINA RESULT:      -7.3      1.503      1.936
REMARK  Name = 
REMARK  6 active torsions:
REMARK  status: ('A' for Active; 'I' for Inactive)
REMARK    1  A    between atoms: C_2  and  C_3
REMARK    2  A    between atoms: C_3  and  N_4
REMARK    3  A    between atoms: C_10  and  C_11
REMARK    4  A    between atoms: N_22  and  C_23
REMARK    5  A    between atoms: C_23  and  C_24
REMARK    6  A    between atoms: C_24  and  N_25
REMARK                            x       y       z     vdW  Elec       q    Type
REMARK                         _______ _______ _______ _____ _____    ______ ____
ROOT
ATOM      1  N   UNL     1      -0.125  10.226  19.296  0.00  0.00    +0.000 N 
ATOM      2  C   UNL     1      -0.439  10.194  20.724  0.00  0.00    +0.000 C 
ATOM      3  C   UNL     1      -0.261   8.836  21.394  0.00  0.00    +0.000 C 
ATOM      4  C   UNL     1       1.199   8.427  21.478  0.00  0.00    +0.000 C 
ATOM      5  C   UNL     1       1.698   7.921  20.160  0.00  0.00    +0.000 A 
ATOM      6  N   UNL     1       2.062   6.617  20.128  0.00  0.00    +0.000 NA
ATOM      7  C   UNL     1       2.511   6.112  18.959  0.00  0.00    +0.000 A 
ATOM      8  N   UNL     1       2.681   6.838  17.840  0.00  0.00    +0.000 NA
ATOM      9  C   UNL     1       2.300   8.130  17.911  0.00  0.00    +0.000 A 
ATOM     10  C   UNL     1       1.768   8.717  19.041  0.00  0.00    +0.000 A 
ATOM     11  C   UNL     1       1.213  10.072  18.913  0.00  0.00    +0.000 C 
ATOM     12  O   UNL     1       1.827  10.894  18.241  0.00  0.00    +0.000 OA
ENDROOT
BRANCH   7  13
ATOM     13  C   UNL     1       2.765   4.664  18.900  0.00  0.00    +0.000 A 
ATOM     14  C   UNL     1       3.193   3.954  20.033  0.00  0.00    +0.000 A 
ATOM     15  C   UNL     1       3.414   2.590  19.937  0.00  0.00    +0.000 A 
ATOM     16  N   UNL     1       3.235   1.882  18.805  0.00  0.00    +0.000 NA
ATOM     17  C   UNL     1       2.814   2.567  17.723  0.00  0.00    +0.000 A 
ATOM     18  C   UNL     1       2.567   3.931  17.723  0.00  0.00    +0.000 A 
ENDBRANCH   7  13
BRANCH   1  19
ATOM     19  C   UNL     1      -0.879  11.224  18.524  0.00  0.00    +0.000 C 
BRANCH  19  21
ATOM     20  O   UNL     1      -0.586  13.224  19.843  0.00  0.00    +0.000 OA
ATOM     21  C   UNL     1      -1.373  12.393  19.397  0.00  0.00    +0.000 C 
ATOM     22  N   UNL     1      -2.737  12.428  19.613  0.00  0.00    +0.000 N 
ATOM     23  H   UNL     1      -3.258  11.602  19.316  0.00  0.00    +0.000 HD
BRANCH  22  24
ATOM     24  C   UNL     1      -3.412  13.350  20.524  0.00  0.00    +0.000 C 
BRANCH  24  25
ATOM     25  C   UNL     1      -4.592  12.721  21.290  0.00  0.00    +0.000 C 
BRANCH  25  26
ATOM     26  N   UNL     1      -5.915  13.351  21.113  0.00  0.00    +0.000 NA
ATOM     27  C   UNL     1      -7.052  12.528  21.570  0.00  0.00    +0.000 C 
ATOM     28  C   UNL     1      -7.320  11.292  20.696  0.00  0.00    +0.000 C 
ATOM     29  O   UNL     1      -7.535  11.659  19.328  0.00  0.00    +0.000 OA
ATOM     30  C   UNL     1      -6.419  12.399  18.815  0.00  0.00    +0.000 C 
ATOM     31  C   UNL     1      -6.128  13.647  19.670  0.00  0.00    +0.000 C 
ENDBRANCH  25  26
ENDBRANCH  24  25
ENDBRANCH  22  24
ENDBRANCH  19  21
ENDBRANCH   1  19
TORSDOF 6
ENDMDL
