MODEL 1
REMARK VINA RESULT:      -7.3      0.000      0.000
REMARK  Name = 
REMARK  3 active torsions:
REMARK  status: ('A' for Active; 'I' for Inactive)
REMARK    1  A    between atoms: C_1  and  C_2
REMARK    2  A    between atoms: C_5  and  S_6
REMARK    3  A    between atoms: S_6  and  N_9
REMARK                            x       y       z     vdW  Elec       q    Type
REMARK                         _______ _______ _______ _____ _____    ______ ____
ROOT
ATOM      1  S   UNL     1       2.566   4.250  19.259  0.00  0.00    +0.000 S 
ATOM      2  O   UNL     1       3.172   3.840  20.514  0.00  0.00    +0.000 OA
ATOM      3  O   UNL     1       1.449   3.531  18.685  0.00  0.00    +0.000 OA
ENDROOT
BRANCH   1   4
ATOM      4  N   UNL     1       3.828   4.194  18.102  0.00  0.00    +0.000 N 
ATOM      5  C   UNL     1       3.712   3.587  16.872  0.00  0.00    +0.000 A 
ATOM      6  C   UNL     1       4.908   3.738  16.204  0.00  0.00    +0.000 A 
ATOM      7  C   UNL     1       5.772   4.473  17.051  0.00  0.00    +0.000 A 
ATOM      8  C   UNL     1       5.100   4.703  18.244  0.00  0.00    +0.000 A 
ATOM      9  C   UNL     1       5.657   5.447  19.414  0.00  0.00    +0.000 C 
ATOM     10  C   UNL     1       7.187   5.556  19.265  0.00  0.00    +0.000 C 
ATOM     11  C   UNL     1       7.586   6.011  17.855  0.00  0.00    +0.000 C 
ATOM     12  C   UNL     1       7.126   4.980  16.833  0.00  0.00    +0.000 C 
ATOM     13  O   UNL     1       7.811   4.653  15.870  0.00  0.00    +0.000 OA
ENDBRANCH   1   4
BRANCH   1  18
ATOM     14  C   UNL     1       1.165  10.147  19.743  0.00  0.00    +0.000 C 
ATOM     15  C   UNL     1       1.530   8.696  19.623  0.00  0.00    +0.000 A 
ATOM     16  C   UNL     1       2.025   8.174  18.420  0.00  0.00    +0.000 A 
ATOM     17  C   UNL     1       2.330   6.816  18.309  0.00  0.00    +0.000 A 
ATOM     18  C   UNL     1       2.132   5.966  19.401  0.00  0.00    +0.000 A 
ATOM     19  C   UNL     1       1.685   6.483  20.622  0.00  0.00    +0.000 A 
ATOM     20  C   UNL     1       1.374   7.843  20.724  0.00  0.00    +0.000 A 
ENDBRANCH   1  18
TORSDOF 2
ENDMDL
MODEL 2
REMARK VINA RESULT:      -7.3      0.063      1.084
REMARK  Name = 
REMARK  3 active torsions:
REMARK  status: ('A' for Active; 'I' for Inactive)
REMARK    1  A    between atoms: C_1  and  C_2
REMARK    2  A    between atoms: C_5  and  S_6
REMARK    3  A    between atoms: S_6  and  N_9
REMARK                            x       y       z     vdW  Elec       q    Type
REMARK                         _______ _______ _______ _____ _____    ______ ____
ROOT
ATOM      1  S   UNL     1       2.574   4.279  19.279  0.00  0.00    +0.000 S 
ATOM      2  O   UNL     1       3.168   3.827  20.525  0.00  0.00    +0.000 OA
ATOM      3  O   UNL     1       1.438   3.603  18.691  0.00  0.00    +0.000 OA
ENDROOT
BRANCH   1   4
ATOM      4  N   UNL     1       3.836   4.209  18.121  0.00  0.00    +0.000 N 
ATOM      5  C   UNL     1       3.718   3.589  16.898  0.00  0.00    +0.000 A 
ATOM      6  C   UNL     1       4.913   3.731  16.227  0.00  0.00    +0.000 A 
ATOM      7  C   UNL     1       5.778   4.475  17.064  0.00  0.00    +0.000 A 
ATOM      8  C   UNL     1       5.108   4.719  18.256  0.00  0.00    +0.000 A 
ATOM      9  C   UNL     1       5.667   5.476  19.416  0.00  0.00    +0.000 C 
ATOM     10  C   UNL     1       7.197   5.581  19.265  0.00  0.00    +0.000 C 
ATOM     11  C   UNL     1       7.595   6.021  17.849  0.00  0.00    +0.000 C 
ATOM     12  C   UNL     1       7.132   4.978  16.839  0.00  0.00    +0.000 C 
ATOM     13  O   UNL     1       7.816   4.640  15.879  0.00  0.00    +0.000 OA
ENDBRANCH   1   4
BRANCH   1  18
ATOM     14  C   UNL     1       1.173  10.165  19.878  0.00  0.00    +0.000 C 
ATOM     15  C   UNL     1       1.500   8.708  19.730  0.00  0.00    +0.000 A 
ATOM     16  C   UNL     1       1.318   7.817  20.796  0.00  0.00    +0.000 A 
ATOM     17  C   UNL     1       1.656   6.468  20.659  0.00  0.00    +0.000 A 
ATOM     18  C   UNL     1       2.190   6.004  19.454  0.00  0.00    +0.000 A 
ATOM     19  C   UNL     1       2.331   6.872  18.366  0.00  0.00    +0.000 A 
ATOM     20  C   UNL     1       1.997   8.223  18.513  0.00  0.00    +0.000 A 
ENDBRANCH   1  18
TORSDOF 2
ENDMDL
MODEL 3
REMARK VINA RESULT:      -7.3      2.479      6.135
REMARK  Name = 
REMARK  3 active torsions:
REMARK  status: ('A' for Active; 'I' for Inactive)
REMARK    1  A    between atoms: C_1  and  C_2
REMARK    2  A    between atoms: C_5  and  S_6
REMARK    3  A    between atoms: S_6  and  N_9
REMARK                            x       y       z     vdW  Elec       q    Type
REMARK                         _______ _______ _______ _____ _____    ______ ____
ROOT
ATOM      1  S   UNL     1       6.260   5.662  17.773  0.00  0.00    +0.000 S 
ATOM      2  O   UNL     1       7.015   4.768  18.635  0.00  0.00    +0.000 OA
ATOM      3  O   UNL     1       6.584   7.069  17.671  0.00  0.00    +0.000 OA
ENDROOT
BRANCH   1   4
ATOM      4  N   UNL     1       4.642   5.573  18.329  0.00  0.00    +0.000 N 
ATOM      5  C   UNL     1       3.731   6.597  18.199  0.00  0.00    +0.000 A 
ATOM      6  C   UNL     1       2.537   6.181  18.744  0.00  0.00    +0.000 A 
ATOM      7  C   UNL     1       2.724   4.857  19.207  0.00  0.00    +0.000 A 
ATOM      8  C   UNL     1       4.052   4.516  18.984  0.00  0.00    +0.000 A 
ATOM      9  C   UNL     1       4.669   3.199  19.328  0.00  0.00    +0.000 C 
ATOM     10  C   UNL     1       3.753   2.451  20.315  0.00  0.00    +0.000 C 
ATOM     11  C   UNL     1       2.290   2.470  19.853  0.00  0.00    +0.000 C 
ATOM     12  C   UNL     1       1.786   3.907  19.802  0.00  0.00    +0.000 C 
ATOM     13  O   UNL     1       0.661   4.226  20.170  0.00  0.00    +0.000 OA
ENDBRANCH   1   4
BRANCH   1  18
ATOM     14  C   UNL     1       6.175   3.328  12.160  0.00  0.00    +0.000 C 
ATOM     15  C   UNL     1       6.193   3.922  13.538  0.00  0.00    +0.000 A 
ATOM     16  C   UNL     1       7.269   4.709  13.969  0.00  0.00    +0.000 A 
ATOM     17  C   UNL     1       7.292   5.231  15.265  0.00  0.00    +0.000 A 
ATOM     18  C   UNL     1       6.240   4.957  16.144  0.00  0.00    +0.000 A 
ATOM     19  C   UNL     1       5.136   4.214  15.710  0.00  0.00    +0.000 A 
ATOM     20  C   UNL     1       5.124   3.689  14.414  0.00  0.00    +0.000 A 
ENDBRANCH   1  18
TORSDOF 2
ENDMDL
MODEL 4
REMARK VINA RESULT:      -7.3      2.479      6.178
REMARK  Name = 
REMARK  3 active torsions:
REMARK  status: ('A' for Active; 'I' for Inactive)
REMARK    1  A    between atoms: C_1  and  C_2
REMARK    2  A    between atoms: C_5  and  S_6
REMARK    3  A    between atoms: S_6  and  N_9
REMARK                            x       y       z     vdW  Elec       q    Type
REMARK                         _______ _______ _______ _____ _____    ______ ____
ROOT
ATOM      1  S   UNL     1       6.253   5.649  17.805  0.00  0.00    +0.000 S 
ATOM      2  O   UNL     1       6.989   4.707  18.631  0.00  0.00    +0.000 OA
ATOM      3  O   UNL     1       6.603   7.052  17.758  0.00  0.00    +0.000 OA
ENDROOT
BRANCH   1   4
ATOM      4  N   UNL     1       4.632   5.568  18.354  0.00  0.00    +0.000 N 
ATOM      5  C   UNL     1       3.725   6.593  18.211  0.00  0.00    +0.000 A 
ATOM      6  C   UNL     1       2.527   6.185  18.755  0.00  0.00    +0.000 A 
ATOM      7  C   UNL     1       2.709   4.864  19.230  0.00  0.00    +0.000 A 
ATOM      8  C   UNL     1       4.037   4.518  19.016  0.00  0.00    +0.000 A 
ATOM      9  C   UNL     1       4.650   3.203  19.374  0.00  0.00    +0.000 C 
ATOM     10  C   UNL     1       3.728   2.465  20.364  0.00  0.00    +0.000 C 
ATOM     11  C   UNL     1       2.267   2.484  19.895  0.00  0.00    +0.000 C 
ATOM     12  C   UNL     1       1.767   3.922  19.829  0.00  0.00    +0.000 C 
ATOM     13  O   UNL     1       0.641   4.246  20.190  0.00  0.00    +0.000 OA
ENDBRANCH   1   4
BRANCH   1  18
ATOM     14  C   UNL     1       6.165   3.376  12.166  0.00  0.00    +0.000 C 
ATOM     15  C   UNL     1       6.190   3.919  13.565  0.00  0.00    +0.000 A 
ATOM     16  C   UNL     1       5.150   3.646  14.463  0.00  0.00    +0.000 A 
ATOM     17  C   UNL     1       5.167   4.183  15.753  0.00  0.00    +0.000 A 
ATOM     18  C   UNL     1       6.223   5.008  16.149  0.00  0.00    +0.000 A 
ATOM     19  C   UNL     1       7.292   5.249  15.279  0.00  0.00    +0.000 A 
ATOM     20  C   UNL     1       7.265   4.714  13.987  0.00  0.00    +0.000 A 
ENDBRANCH   1  18
TORSDOF 2
ENDMDL
MODEL 5
REMARK VINA RESULT:      -7.1      2.357      6.182
REMARK  Name = 
REMARK  3 active torsions:
REMARK  status: ('A' for Active; 'I' for Inactive)
REMARK    1  A    between atoms: C_1  and  C_2
REMARK    2  A    between atoms: C_5  and  S_6
REMARK    3  A    between atoms: S_6  and  N_9
REMARK                            x       y       z     vdW  Elec       q    Type
REMARK                         _______ _______ _______ _____ _____    ______ ____
ROOT
ATOM      1  S   UNL     1       6.995   5.287  17.505  0.00  0.00    +0.000 S 
ATOM      2  O   UNL     1       7.981   4.391  18.085  0.00  0.00    +0.000 OA
ATOM      3  O   UNL     1       7.220   6.715  17.430  0.00  0.00    +0.000 OA
ENDROOT
BRANCH   1   4
ATOM      4  N   UNL     1       5.574   5.066  18.436  0.00  0.00    +0.000 N 
ATOM      5  C   UNL     1       5.362   3.987  19.264  0.00  0.00    +0.000 A 
ATOM      6  C   UNL     1       4.128   4.136  19.857  0.00  0.00    +0.000 A 
ATOM      7  C   UNL     1       3.579   5.353  19.385  0.00  0.00    +0.000 A 
ATOM      8  C   UNL     1       4.471   5.889  18.466  0.00  0.00    +0.000 A 
ATOM      9  C   UNL     1       4.274   7.174  17.729  0.00  0.00    +0.000 C 
ATOM     10  C   UNL     1       2.793   7.591  17.821  0.00  0.00    +0.000 C 
ATOM     11  C   UNL     1       2.267   7.489  19.259  0.00  0.00    +0.000 C 
ATOM     12  C   UNL     1       2.337   6.042  19.730  0.00  0.00    +0.000 C 
ATOM     13  O   UNL     1       1.451   5.522  20.399  0.00  0.00    +0.000 OA
ENDBRANCH   1   4
BRANCH   1  18
ATOM     14  C   UNL     1       5.608   3.296  11.931  0.00  0.00    +0.000 C 
ATOM     15  C   UNL     1       5.945   3.806  13.302  0.00  0.00    +0.000 A 
ATOM     16  C   UNL     1       7.088   4.587  13.518  0.00  0.00    +0.000 A 
ATOM     17  C   UNL     1       7.411   5.030  14.804  0.00  0.00    +0.000 A 
ATOM     18  C   UNL     1       6.596   4.682  15.885  0.00  0.00    +0.000 A 
ATOM     19  C   UNL     1       5.426   3.944  15.675  0.00  0.00    +0.000 A 
ATOM     20  C   UNL     1       5.113   3.498  14.386  0.00  0.00    +0.000 A 
ENDBRANCH   1  18
TORSDOF 2
ENDMDL
MODEL 6
REMARK VINA RESULT:      -7.0      2.359      6.248
REMARK  Name = 
REMARK  3 active torsions:
REMARK  status: ('A' for Active; 'I' for Inactive)
REMARK    1  A    between atoms: C_1  and  C_2
REMARK    2  A    between atoms: C_5  and  S_6
REMARK    3  A    between atoms: S_6  and  N_9
REMARK                            x       y       z     vdW  Elec       q    Type
REMARK                         _______ _______ _______ _____ _____    ______ ____
ROOT
ATOM      1  S   UNL     1       6.990   5.338  17.503  0.00  0.00    +0.000 S 
ATOM      2  O   UNL     1       7.971   4.422  18.058  0.00  0.00    +0.000 OA
ATOM      3  O   UNL     1       7.224   6.766  17.458  0.00  0.00    +0.000 OA
ENDROOT
BRANCH   1   4
ATOM      4  N   UNL     1       5.570   5.107  18.433  0.00  0.00    +0.000 N 
ATOM      5  C   UNL     1       5.366   4.026  19.261  0.00  0.00    +0.000 A 
ATOM      6  C   UNL     1       4.130   4.166  19.854  0.00  0.00    +0.000 A 
ATOM      7  C   UNL     1       3.573   5.379  19.382  0.00  0.00    +0.000 A 
ATOM      8  C   UNL     1       4.461   5.922  18.462  0.00  0.00    +0.000 A 
ATOM      9  C   UNL     1       4.255   7.205  17.725  0.00  0.00    +0.000 C 
ATOM     10  C   UNL     1       2.771   7.611  17.817  0.00  0.00    +0.000 C 
ATOM     11  C   UNL     1       2.245   7.506  19.254  0.00  0.00    +0.000 C 
ATOM     12  C   UNL     1       2.326   6.059  19.726  0.00  0.00    +0.000 C 
ATOM     13  O   UNL     1       1.444   5.532  20.395  0.00  0.00    +0.000 OA
ENDBRANCH   1   4
BRANCH   1  18
ATOM     14  C   UNL     1       5.616   3.318  11.935  0.00  0.00    +0.000 C 
ATOM     15  C   UNL     1       5.960   3.798  13.315  0.00  0.00    +0.000 A 
ATOM     16  C   UNL     1       5.162   3.461  14.415  0.00  0.00    +0.000 A 
ATOM     17  C   UNL     1       5.473   3.940  15.691  0.00  0.00    +0.000 A 
ATOM     18  C   UNL     1       6.581   4.772  15.870  0.00  0.00    +0.000 A 
ATOM     19  C   UNL     1       7.415   5.077  14.788  0.00  0.00    +0.000 A 
ATOM     20  C   UNL     1       7.093   4.599  13.513  0.00  0.00    +0.000 A 
ENDBRANCH   1  18
TORSDOF 2
ENDMDL
MODEL 7
REMARK VINA RESULT:      -6.8      1.650      2.974
REMARK  Name = 
REMARK  3 active torsions:
REMARK  status: ('A' for Active; 'I' for Inactive)
REMARK    1  A    between atoms: C_1  and  C_2
REMARK    2  A    between atoms: C_5  and  S_6
REMARK    3  A    between atoms: S_6  and  N_9
REMARK                            x       y       z     vdW  Elec       q    Type
REMARK                         _______ _______ _______ _____ _____    ______ ____
ROOT
ATOM      1  S   UNL     1       4.336   3.587  18.662  0.00  0.00    +0.000 S 
ATOM      2  O   UNL     1       5.030   2.987  19.788  0.00  0.00    +0.000 OA
ATOM      3  O   UNL     1       3.504   2.800  17.777  0.00  0.00    +0.000 OA
ENDROOT
BRANCH   1   4
ATOM      4  N   UNL     1       5.561   4.284  17.688  0.00  0.00    +0.000 N 
ATOM      5  C   UNL     1       6.626   4.996  18.192  0.00  0.00    +0.000 A 
ATOM      6  C   UNL     1       7.411   5.400  17.135  0.00  0.00    +0.000 A 
ATOM      7  C   UNL     1       6.811   4.905  15.953  0.00  0.00    +0.000 A 
ATOM      8  C   UNL     1       5.637   4.257  16.314  0.00  0.00    +0.000 A 
ATOM      9  C   UNL     1       4.698   3.589  15.363  0.00  0.00    +0.000 C 
ATOM     10  C   UNL     1       4.997   4.070  13.930  0.00  0.00    +0.000 C 
ATOM     11  C   UNL     1       6.500   4.024  13.622  0.00  0.00    +0.000 C 
ATOM     12  C   UNL     1       7.245   4.967  14.558  0.00  0.00    +0.000 C 
ATOM     13  O   UNL     1       8.176   5.672  14.182  0.00  0.00    +0.000 OA
ENDBRANCH   1   4
BRANCH   1  18
ATOM     14  C   UNL     1       1.010   8.233  20.742  0.00  0.00    +0.000 C 
ATOM     15  C   UNL     1       1.815   7.077  20.223  0.00  0.00    +0.000 A 
ATOM     16  C   UNL     1       1.815   5.843  20.887  0.00  0.00    +0.000 A 
ATOM     17  C   UNL     1       2.592   4.783  20.414  0.00  0.00    +0.000 A 
ATOM     18  C   UNL     1       3.386   4.956  19.277  0.00  0.00    +0.000 A 
ATOM     19  C   UNL     1       3.358   6.167  18.576  0.00  0.00    +0.000 A 
ATOM     20  C   UNL     1       2.582   7.226  19.059  0.00  0.00    +0.000 A 
ENDBRANCH   1  18
TORSDOF 2
ENDMDL
MODEL 8
REMARK VINA RESULT:      -6.7      1.641      2.784
REMARK  Name = 
REMARK  3 active torsions:
REMARK  status: ('A' for Active; 'I' for Inactive)
REMARK    1  A    between atoms: C_1  and  C_2
REMARK    2  A    between atoms: C_5  and  S_6
REMARK    3  A    between atoms: S_6  and  N_9
REMARK                            x       y       z     vdW  Elec       q    Type
REMARK                         _______ _______ _______ _____ _____    ______ ____
ROOT
ATOM      1  S   UNL     1       4.323   3.525  18.687  0.00  0.00    +0.000 S 
ATOM      2  O   UNL     1       5.010   2.955  19.833  0.00  0.00    +0.000 OA
ATOM      3  O   UNL     1       3.523   2.710  17.798  0.00  0.00    +0.000 OA
ENDROOT
BRANCH   1   4
ATOM      4  N   UNL     1       5.551   4.234  17.724  0.00  0.00    +0.000 N 
ATOM      5  C   UNL     1       6.619   4.933  18.240  0.00  0.00    +0.000 A 
ATOM      6  C   UNL     1       7.405   5.351  17.189  0.00  0.00    +0.000 A 
ATOM      7  C   UNL     1       6.803   4.879  15.999  0.00  0.00    +0.000 A 
ATOM      8  C   UNL     1       5.626   4.230  16.350  0.00  0.00    +0.000 A 
ATOM      9  C   UNL     1       4.683   3.582  15.388  0.00  0.00    +0.000 C 
ATOM     10  C   UNL     1       4.984   4.087  13.963  0.00  0.00    +0.000 C 
ATOM     11  C   UNL     1       6.486   4.040  13.653  0.00  0.00    +0.000 C 
ATOM     12  C   UNL     1       7.236   4.963  14.605  0.00  0.00    +0.000 C 
ATOM     13  O   UNL     1       8.170   5.670  14.241  0.00  0.00    +0.000 OA
ENDBRANCH   1   4
BRANCH   1  18
ATOM     14  C   UNL     1       1.014   8.215  20.696  0.00  0.00    +0.000 C 
ATOM     15  C   UNL     1       1.848   7.066  20.205  0.00  0.00    +0.000 A 
ATOM     16  C   UNL     1       2.638   7.189  19.055  0.00  0.00    +0.000 A 
ATOM     17  C   UNL     1       3.385   6.104  18.589  0.00  0.00    +0.000 A 
ATOM     18  C   UNL     1       3.335   4.883  19.266  0.00  0.00    +0.000 A 
ATOM     19  C   UNL     1       2.589   4.761  20.443  0.00  0.00    +0.000 A 
ATOM     20  C   UNL     1       1.838   5.849  20.900  0.00  0.00    +0.000 A 
ENDBRANCH   1  18
TORSDOF 2
ENDMDL
MODEL 9
REMARK VINA RESULT:      -6.7      2.579      6.198
REMARK  Name = 
REMARK  3 active torsions:
REMARK  status: ('A' for Active; 'I' for Inactive)
REMARK    1  A    between atoms: C_1  and  C_2
REMARK    2  A    between atoms: C_5  and  S_6
REMARK    3  A    between atoms: S_6  and  N_9
REMARK                            x       y       z     vdW  Elec       q    Type
REMARK                         _______ _______ _______ _____ _____    ______ ____
ROOT
ATOM      1  S   UNL     1       5.587   4.949  17.761  0.00  0.00    +0.000 S 
ATOM      2  O   UNL     1       6.618   4.317  18.567  0.00  0.00    +0.000 OA
ATOM      3  O   UNL     1       5.185   6.321  17.985  0.00  0.00    +0.000 OA
ENDROOT
BRANCH   1   4
ATOM      4  N   UNL     1       4.185   3.989  17.978  0.00  0.00    +0.000 N 
ATOM      5  C   UNL     1       3.905   2.865  17.233  0.00  0.00    +0.000 A 
ATOM      6  C   UNL     1       2.710   2.343  17.678  0.00  0.00    +0.000 A 
ATOM      7  C   UNL     1       2.259   3.167  18.736  0.00  0.00    +0.000 A 
ATOM      8  C   UNL     1       3.163   4.212  18.873  0.00  0.00    +0.000 A 
ATOM      9  C   UNL     1       3.059   5.311  19.880  0.00  0.00    +0.000 C 
ATOM     10  C   UNL     1       1.627   5.346  20.447  0.00  0.00    +0.000 C 
ATOM     11  C   UNL     1       1.143   3.946  20.846  0.00  0.00    +0.000 C 
ATOM     12  C   UNL     1       1.098   3.048  19.616  0.00  0.00    +0.000 C 
ATOM     13  O   UNL     1       0.192   2.246  19.417  0.00  0.00    +0.000 OA
ENDBRANCH   1   4
BRANCH   1  18
ATOM     14  C   UNL     1       7.122   4.187  11.928  0.00  0.00    +0.000 C 
ATOM     15  C   UNL     1       6.743   4.356  13.370  0.00  0.00    +0.000 A 
ATOM     16  C   UNL     1       5.465   4.007  13.825  0.00  0.00    +0.000 A 
ATOM     17  C   UNL     1       5.112   4.198  15.163  0.00  0.00    +0.000 A 
ATOM     18  C   UNL     1       6.035   4.752  16.054  0.00  0.00    +0.000 A 
ATOM     19  C   UNL     1       7.331   5.059  15.624  0.00  0.00    +0.000 A 
ATOM     20  C   UNL     1       7.675   4.871  14.281  0.00  0.00    +0.000 A 
ENDBRANCH   1  18
TORSDOF 2
ENDMDL
