MODEL 1
REMARK VINA RESULT:      -7.0      0.000      0.000
REMARK  Name = 
REMARK  5 active torsions:
REMARK  status: ('A' for Active; 'I' for Inactive)
REMARK    1  A    between atoms: C_1  and  C_2
REMARK    2  A    between atoms: C_6  and  N_7
REMARK    3  A    between atoms: N_7  and  C_8
REMARK    4  A    between atoms: C_14  and  S_15
REMARK    5  A    between atoms: C_17  and  C_18
REMARK                            x       y       z     vdW  Elec       q    Type
REMARK                         _______ _______ _______ _____ _____    ______ ____
ROOT
ATOM      1  N   UNL     1       3.382   5.667  18.021  0.00  0.00    +0.000 N 
ATOM      2  C   UNL     1       2.692   4.465  17.530  0.00  0.00    +0.000 C 
ATOM      3  C   UNL     1       4.646   5.798  17.348  0.00  0.00    +0.000 A 
ATOM      4  C   UNL     1       5.594   6.667  17.855  0.00  0.00    +0.000 A 
ATOM      5  C   UNL     1       6.793   6.712  17.194  0.00  0.00    +0.000 A 
ATOM      6 CL   UNL     1       8.064   7.720  17.751  0.00  0.00    +0.000 Cl
ATOM      7  N   UNL     1       7.100   5.996  16.103  0.00  0.00    +0.000 NA
ATOM      8  C   UNL     1       6.129   5.189  15.681  0.00  0.00    +0.000 A 
ATOM      9  N   UNL     1       4.926   5.056  16.255  0.00  0.00    +0.000 NA
ENDROOT
BRANCH   1  15
ATOM     10  C   UNL     1       1.034   8.394  21.615  0.00  0.00    +0.000 C 
ATOM     11  C   UNL     1       1.499   8.151  20.199  0.00  0.00    +0.000 A 
ATOM     12  C   UNL     1       1.395   9.219  19.296  0.00  0.00    +0.000 A 
ATOM     13  C   UNL     1       1.828   9.074  17.992  0.00  0.00    +0.000 A 
ATOM     14  C   UNL     1       2.403   7.868  17.590  0.00  0.00    +0.000 A 
ATOM     15  C   UNL     1       2.589   6.771  18.473  0.00  0.00    +0.000 A 
ATOM     16  C   UNL     1       2.057   6.899  19.781  0.00  0.00    +0.000 A 
ATOM     17  C   UNL     1       2.170   5.837  20.849  0.00  0.00    +0.000 C 
ENDBRANCH   1  15
BRANCH   8  18
ATOM     18  S   UNL     1       6.474   4.195  14.260  0.00  0.00    +0.000 S 
ATOM     19  H   UNL     1       5.668   3.200  14.647  0.00  0.00    +0.000 HD
ENDBRANCH   8  18
TORSDOF 2
ENDMDL
MODEL 2
REMARK VINA RESULT:      -6.4      1.243      2.153
REMARK  Name = 
REMARK  5 active torsions:
REMARK  status: ('A' for Active; 'I' for Inactive)
REMARK    1  A    between atoms: C_1  and  C_2
REMARK    2  A    between atoms: C_6  and  N_7
REMARK    3  A    between atoms: N_7  and  C_8
REMARK    4  A    between atoms: C_14  and  S_15
REMARK    5  A    between atoms: C_17  and  C_18
REMARK                            x       y       z     vdW  Elec       q    Type
REMARK                         _______ _______ _______ _____ _____    ______ ____
ROOT
ATOM      1  N   UNL     1       2.900   5.339  18.668  0.00  0.00    +0.000 N 
ATOM      2  C   UNL     1       1.996   4.594  17.780  0.00  0.00    +0.000 C 
ATOM      3  C   UNL     1       4.252   5.200  18.198  0.00  0.00    +0.000 A 
ATOM      4  C   UNL     1       5.297   5.552  19.032  0.00  0.00    +0.000 A 
ATOM      5  C   UNL     1       6.559   5.352  18.541  0.00  0.00    +0.000 A 
ATOM      6 CL   UNL     1       7.938   5.711  19.497  0.00  0.00    +0.000 Cl
ATOM      7  N   UNL     1       6.848   4.862  17.327  0.00  0.00    +0.000 NA
ATOM      8  C   UNL     1       5.783   4.553  16.590  0.00  0.00    +0.000 A 
ATOM      9  N   UNL     1       4.507   4.694  16.972  0.00  0.00    +0.000 NA
ENDROOT
BRANCH   1  15
ATOM     10  C   UNL     1       1.297  10.164  18.795  0.00  0.00    +0.000 C 
ATOM     11  C   UNL     1       1.546   8.812  19.420  0.00  0.00    +0.000 A 
ATOM     12  C   UNL     1       0.983   8.574  20.682  0.00  0.00    +0.000 A 
ATOM     13  C   UNL     1       1.149   7.349  21.298  0.00  0.00    +0.000 A 
ATOM     14  C   UNL     1       1.850   6.339  20.640  0.00  0.00    +0.000 A 
ATOM     15  C   UNL     1       2.393   6.500  19.337  0.00  0.00    +0.000 A 
ATOM     16  C   UNL     1       2.297   7.788  18.754  0.00  0.00    +0.000 A 
ATOM     17  C   UNL     1       2.811   8.136  17.377  0.00  0.00    +0.000 C 
ENDBRANCH   1  15
BRANCH   8  18
ATOM     18  S   UNL     1       6.089   3.876  14.986  0.00  0.00    +0.000 S 
ATOM     19  H   UNL     1       6.456   5.050  14.460  0.00  0.00    +0.000 HD
ENDBRANCH   8  18
TORSDOF 2
ENDMDL
MODEL 3
REMARK VINA RESULT:      -6.3      2.476      3.780
REMARK  Name = 
REMARK  5 active torsions:
REMARK  status: ('A' for Active; 'I' for Inactive)
REMARK    1  A    between atoms: C_1  and  C_2
REMARK    2  A    between atoms: C_6  and  N_7
REMARK    3  A    between atoms: N_7  and  C_8
REMARK    4  A    between atoms: C_14  and  S_15
REMARK    5  A    between atoms: C_17  and  C_18
REMARK                            x       y       z     vdW  Elec       q    Type
REMARK                         _______ _______ _______ _____ _____    ______ ____
ROOT
ATOM      1  N   UNL     1       3.210   5.915  17.822  0.00  0.00    +0.000 N 
ATOM      2  C   UNL     1       2.930   7.209  18.460  0.00  0.00    +0.000 C 
ATOM      3  C   UNL     1       4.543   5.928  17.283  0.00  0.00    +0.000 A 
ATOM      4  C   UNL     1       4.918   4.950  16.381  0.00  0.00    +0.000 A 
ATOM      5  C   UNL     1       6.186   5.046  15.872  0.00  0.00    +0.000 A 
ATOM      6 CL   UNL     1       6.752   3.916  14.712  0.00  0.00    +0.000 Cl
ATOM      7  N   UNL     1       7.076   5.996  16.191  0.00  0.00    +0.000 NA
ATOM      8  C   UNL     1       6.634   6.894  17.069  0.00  0.00    +0.000 A 
ATOM      9  N   UNL     1       5.414   6.905  17.620  0.00  0.00    +0.000 NA
ENDROOT
BRANCH   1  15
ATOM     10  C   UNL     1       2.305   2.429  21.413  0.00  0.00    +0.000 C 
ATOM     11  C   UNL     1       2.046   3.083  20.077  0.00  0.00    +0.000 A 
ATOM     12  C   UNL     1       0.886   2.700  19.388  0.00  0.00    +0.000 A 
ATOM     13  C   UNL     1       0.573   3.279  18.174  0.00  0.00    +0.000 A 
ATOM     14  C   UNL     1       1.401   4.275  17.655  0.00  0.00    +0.000 A 
ATOM     15  C   UNL     1       2.557   4.747  18.333  0.00  0.00    +0.000 A 
ATOM     16  C   UNL     1       2.918   4.082  19.531  0.00  0.00    +0.000 A 
ATOM     17  C   UNL     1       4.108   4.455  20.382  0.00  0.00    +0.000 C 
ENDBRANCH   1  15
BRANCH   8  18
ATOM     18  S   UNL     1       7.748   8.192  17.516  0.00  0.00    +0.000 S 
ATOM     19  H   UNL     1       8.842   7.462  17.268  0.00  0.00    +0.000 HD
ENDBRANCH   8  18
TORSDOF 2
ENDMDL
MODEL 4
REMARK VINA RESULT:      -6.3      1.299      2.265
REMARK  Name = 
REMARK  5 active torsions:
REMARK  status: ('A' for Active; 'I' for Inactive)
REMARK    1  A    between atoms: C_1  and  C_2
REMARK    2  A    between atoms: C_6  and  N_7
REMARK    3  A    between atoms: N_7  and  C_8
REMARK    4  A    between atoms: C_14  and  S_15
REMARK    5  A    between atoms: C_17  and  C_18
REMARK                            x       y       z     vdW  Elec       q    Type
REMARK                         _______ _______ _______ _____ _____    ______ ____
ROOT
ATOM      1  N   UNL     1       3.495   4.439  18.100  0.00  0.00    +0.000 N 
ATOM      2  C   UNL     1       2.647   3.798  17.086  0.00  0.00    +0.000 C 
ATOM      3  C   UNL     1       4.835   4.559  17.594  0.00  0.00    +0.000 A 
ATOM      4  C   UNL     1       5.866   4.846  18.469  0.00  0.00    +0.000 A 
ATOM      5  C   UNL     1       7.123   4.903  17.930  0.00  0.00    +0.000 A 
ATOM      6 CL   UNL     1       8.489   5.209  18.922  0.00  0.00    +0.000 Cl
ATOM      7  N   UNL     1       7.418   4.717  16.635  0.00  0.00    +0.000 NA
ATOM      8  C   UNL     1       6.366   4.449  15.864  0.00  0.00    +0.000 A 
ATOM      9  N   UNL     1       5.098   4.358  16.284  0.00  0.00    +0.000 NA
ENDROOT
BRANCH   1  15
ATOM     10  C   UNL     1       1.602   8.992  19.348  0.00  0.00    +0.000 C 
ATOM     11  C   UNL     1       1.902   7.538  19.624  0.00  0.00    +0.000 A 
ATOM     12  C   UNL     1       1.296   6.958  20.748  0.00  0.00    +0.000 A 
ATOM     13  C   UNL     1       1.505   5.625  21.043  0.00  0.00    +0.000 A 
ATOM     14  C   UNL     1       2.296   4.850  20.194  0.00  0.00    +0.000 A 
ATOM     15  C   UNL     1       2.889   5.365  19.009  0.00  0.00    +0.000 A 
ATOM     16  C   UNL     1       2.743   6.753  18.768  0.00  0.00    +0.000 A 
ATOM     17  C   UNL     1       3.300   7.466  17.558  0.00  0.00    +0.000 C 
ENDBRANCH   1  15
BRANCH   8  18
ATOM     18  S   UNL     1       6.684   4.168  14.147  0.00  0.00    +0.000 S 
ATOM     19  H   UNL     1       5.777   5.061  13.739  0.00  0.00    +0.000 HD
ENDBRANCH   8  18
TORSDOF 2
ENDMDL
MODEL 5
REMARK VINA RESULT:      -6.2      3.632      6.031
REMARK  Name = 
REMARK  5 active torsions:
REMARK  status: ('A' for Active; 'I' for Inactive)
REMARK    1  A    between atoms: C_1  and  C_2
REMARK    2  A    between atoms: C_6  and  N_7
REMARK    3  A    between atoms: N_7  and  C_8
REMARK    4  A    between atoms: C_14  and  S_15
REMARK    5  A    between atoms: C_17  and  C_18
REMARK                            x       y       z     vdW  Elec       q    Type
REMARK                         _______ _______ _______ _____ _____    ______ ____
ROOT
ATOM      1  N   UNL     1       2.763   5.380  19.531  0.00  0.00    +0.000 N 
ATOM      2  C   UNL     1       2.283   4.574  20.662  0.00  0.00    +0.000 C 
ATOM      3  C   UNL     1       2.276   6.726  19.664  0.00  0.00    +0.000 A 
ATOM      4  C   UNL     1       2.339   7.579  18.578  0.00  0.00    +0.000 A 
ATOM      5  C   UNL     1       1.818   8.833  18.759  0.00  0.00    +0.000 A 
ATOM      6 CL   UNL     1       1.799   9.967  17.472  0.00  0.00    +0.000 Cl
ATOM      7  N   UNL     1       1.273   9.287  19.896  0.00  0.00    +0.000 NA
ATOM      8  C   UNL     1       1.257   8.402  20.891  0.00  0.00    +0.000 A 
ATOM      9  N   UNL     1       1.726   7.149  20.824  0.00  0.00    +0.000 NA
ENDROOT
BRANCH   1  15
ATOM     10  C   UNL     1       5.618   3.627  15.704  0.00  0.00    +0.000 C 
ATOM     11  C   UNL     1       5.430   4.250  17.067  0.00  0.00    +0.000 A 
ATOM     12  C   UNL     1       6.565   4.792  17.688  0.00  0.00    +0.000 A 
ATOM     13  C   UNL     1       6.458   5.401  18.923  0.00  0.00    +0.000 A 
ATOM     14  C   UNL     1       5.207   5.506  19.531  0.00  0.00    +0.000 A 
ATOM     15  C   UNL     1       4.013   5.029  18.926  0.00  0.00    +0.000 A 
ATOM     16  C   UNL     1       4.148   4.325  17.704  0.00  0.00    +0.000 A 
ATOM     17  C   UNL     1       2.988   3.757  16.921  0.00  0.00    +0.000 C 
ENDBRANCH   1  15
BRANCH   8  18
ATOM     18  S   UNL     1       0.530   8.925  22.416  0.00  0.00    +0.000 S 
ATOM     19  H   UNL     1       0.178  10.125  21.941  0.00  0.00    +0.000 HD
ENDBRANCH   8  18
TORSDOF 2
ENDMDL
MODEL 6
REMARK VINA RESULT:      -6.2      2.421      4.016
REMARK  Name = 
REMARK  5 active torsions:
REMARK  status: ('A' for Active; 'I' for Inactive)
REMARK    1  A    between atoms: C_1  and  C_2
REMARK    2  A    between atoms: C_6  and  N_7
REMARK    3  A    between atoms: N_7  and  C_8
REMARK    4  A    between atoms: C_14  and  S_15
REMARK    5  A    between atoms: C_17  and  C_18
REMARK                            x       y       z     vdW  Elec       q    Type
REMARK                         _______ _______ _______ _____ _____    ______ ____
ROOT
ATOM      1  N   UNL     1       3.010   6.206  18.450  0.00  0.00    +0.000 N 
ATOM      2  C   UNL     1       2.843   7.602  18.878  0.00  0.00    +0.000 C 
ATOM      3  C   UNL     1       4.296   6.051  17.825  0.00  0.00    +0.000 A 
ATOM      4  C   UNL     1       4.552   4.916  17.078  0.00  0.00    +0.000 A 
ATOM      5  C   UNL     1       5.779   4.851  16.473  0.00  0.00    +0.000 A 
ATOM      6 CL   UNL     1       6.198   3.513  15.484  0.00  0.00    +0.000 Cl
ATOM      7  N   UNL     1       6.736   5.785  16.563  0.00  0.00    +0.000 NA
ATOM      8  C   UNL     1       6.407   6.841  17.305  0.00  0.00    +0.000 A 
ATOM      9  N   UNL     1       5.235   7.016  17.931  0.00  0.00    +0.000 NA
ENDROOT
BRANCH   1  15
ATOM     10  C   UNL     1       0.415   1.851  18.857  0.00  0.00    +0.000 C 
ATOM     11  C   UNL     1       1.148   3.040  19.432  0.00  0.00    +0.000 A 
ATOM     12  C   UNL     1       1.453   3.006  20.801  0.00  0.00    +0.000 A 
ATOM     13  C   UNL     1       2.146   4.048  21.385  0.00  0.00    +0.000 A 
ATOM     14  C   UNL     1       2.572   5.117  20.597  0.00  0.00    +0.000 A 
ATOM     15  C   UNL     1       2.346   5.180  19.196  0.00  0.00    +0.000 A 
ATOM     16  C   UNL     1       1.554   4.152  18.625  0.00  0.00    +0.000 A 
ATOM     17  C   UNL     1       1.221   4.058  17.155  0.00  0.00    +0.000 C 
ENDBRANCH   1  15
BRANCH   8  18
ATOM     18  S   UNL     1       7.613   8.126  17.447  0.00  0.00    +0.000 S 
ATOM     19  H   UNL     1       7.788   7.941  18.760  0.00  0.00    +0.000 HD
ENDBRANCH   8  18
TORSDOF 2
ENDMDL
MODEL 7
REMARK VINA RESULT:      -6.2      1.954      3.270
REMARK  Name = 
REMARK  5 active torsions:
REMARK  status: ('A' for Active; 'I' for Inactive)
REMARK    1  A    between atoms: C_1  and  C_2
REMARK    2  A    between atoms: C_6  and  N_7
REMARK    3  A    between atoms: N_7  and  C_8
REMARK    4  A    between atoms: C_14  and  S_15
REMARK    5  A    between atoms: C_17  and  C_18
REMARK                            x       y       z     vdW  Elec       q    Type
REMARK                         _______ _______ _______ _____ _____    ______ ____
ROOT
ATOM      1  N   UNL     1       4.474   3.160  18.471  0.00  0.00    +0.000 N 
ATOM      2  C   UNL     1       3.973   2.195  17.483  0.00  0.00    +0.000 C 
ATOM      3  C   UNL     1       5.436   4.027  17.844  0.00  0.00    +0.000 A 
ATOM      4  C   UNL     1       6.260   4.806  18.635  0.00  0.00    +0.000 A 
ATOM      5  C   UNL     1       7.184   5.574  17.977  0.00  0.00    +0.000 A 
ATOM      6 CL   UNL     1       8.291   6.551  18.850  0.00  0.00    +0.000 Cl
ATOM      7  N   UNL     1       7.333   5.633  16.646  0.00  0.00    +0.000 NA
ATOM      8  C   UNL     1       6.496   4.855  15.963  0.00  0.00    +0.000 A 
ATOM      9  N   UNL     1       5.565   4.056  16.500  0.00  0.00    +0.000 NA
ENDROOT
BRANCH   1  15
ATOM     10  C   UNL     1       0.984   6.190  20.594  0.00  0.00    +0.000 C 
ATOM     11  C   UNL     1       1.866   4.964  20.569  0.00  0.00    +0.000 A 
ATOM     12  C   UNL     1       1.622   3.977  21.535  0.00  0.00    +0.000 A 
ATOM     13  C   UNL     1       2.373   2.818  21.552  0.00  0.00    +0.000 A 
ATOM     14  C   UNL     1       3.352   2.621  20.578  0.00  0.00    +0.000 A 
ATOM     15  C   UNL     1       3.606   3.556  19.539  0.00  0.00    +0.000 A 
ATOM     16  C   UNL     1       2.894   4.780  19.587  0.00  0.00    +0.000 A 
ATOM     17  C   UNL     1       3.033   5.882  18.564  0.00  0.00    +0.000 C 
ENDBRANCH   1  15
BRANCH   8  18
ATOM     18  S   UNL     1       6.653   4.863  14.202  0.00  0.00    +0.000 S 
ATOM     19  H   UNL     1       5.481   5.477  14.009  0.00  0.00    +0.000 HD
ENDBRANCH   8  18
TORSDOF 2
ENDMDL
MODEL 8
REMARK VINA RESULT:      -6.0      1.945      2.853
REMARK  Name = 
REMARK  5 active torsions:
REMARK  status: ('A' for Active; 'I' for Inactive)
REMARK    1  A    between atoms: C_1  and  C_2
REMARK    2  A    between atoms: C_6  and  N_7
REMARK    3  A    between atoms: N_7  and  C_8
REMARK    4  A    between atoms: C_14  and  S_15
REMARK    5  A    between atoms: C_17  and  C_18
REMARK                            x       y       z     vdW  Elec       q    Type
REMARK                         _______ _______ _______ _____ _____    ______ ____
ROOT
ATOM      1  N   UNL     1       4.422   3.610  17.818  0.00  0.00    +0.000 N 
ATOM      2  C   UNL     1       4.072   2.579  16.831  0.00  0.00    +0.000 C 
ATOM      3  C   UNL     1       5.468   4.442  17.287  0.00  0.00    +0.000 A 
ATOM      4  C   UNL     1       6.166   5.277  18.140  0.00  0.00    +0.000 A 
ATOM      5  C   UNL     1       7.179   6.009  17.579  0.00  0.00    +0.000 A 
ATOM      6 CL   UNL     1       8.145   7.049  18.543  0.00  0.00    +0.000 Cl
ATOM      7  N   UNL     1       7.526   5.983  16.285  0.00  0.00    +0.000 NA
ATOM      8  C   UNL     1       6.800   5.156  15.536  0.00  0.00    +0.000 A 
ATOM      9  N   UNL     1       5.797   4.386  15.978  0.00  0.00    +0.000 NA
ENDROOT
BRANCH   1  15
ATOM     10  C   UNL     1       1.326   3.072  21.817  0.00  0.00    +0.000 C 
ATOM     11  C   UNL     1       1.941   3.865  20.688  0.00  0.00    +0.000 A 
ATOM     12  C   UNL     1       1.713   5.249  20.676  0.00  0.00    +0.000 A 
ATOM     13  C   UNL     1       2.269   6.037  19.688  0.00  0.00    +0.000 A 
ATOM     14  C   UNL     1       3.089   5.452  18.722  0.00  0.00    +0.000 A 
ATOM     15  C   UNL     1       3.404   4.067  18.716  0.00  0.00    +0.000 A 
ATOM     16  C   UNL     1       2.754   3.254  19.678  0.00  0.00    +0.000 A 
ATOM     17  C   UNL     1       2.976   1.767  19.820  0.00  0.00    +0.000 C 
ENDBRANCH   1  15
BRANCH   8  18
ATOM     18  S   UNL     1       7.219   5.052  13.821  0.00  0.00    +0.000 S 
ATOM     19  H   UNL     1       8.464   4.626  14.058  0.00  0.00    +0.000 HD
ENDBRANCH   8  18
TORSDOF 2
ENDMDL
MODEL 9
REMARK VINA RESULT:      -5.9      4.227      6.328
REMARK  Name = 
REMARK  5 active torsions:
REMARK  status: ('A' for Active; 'I' for Inactive)
REMARK    1  A    between atoms: C_1  and  C_2
REMARK    2  A    between atoms: C_6  and  N_7
REMARK    3  A    between atoms: N_7  and  C_8
REMARK    4  A    between atoms: C_14  and  S_15
REMARK    5  A    between atoms: C_17  and  C_18
REMARK                            x       y       z     vdW  Elec       q    Type
REMARK                         _______ _______ _______ _____ _____    ______ ____
ROOT
ATOM      1  N   UNL     1       2.552   7.121  19.350  0.00  0.00    +0.000 N 
ATOM      2  C   UNL     1       2.980   7.532  18.006  0.00  0.00    +0.000 C 
ATOM      3  C   UNL     1       1.721   8.146  19.920  0.00  0.00    +0.000 A 
ATOM      4  C   UNL     1       1.453   8.124  21.276  0.00  0.00    +0.000 A 
ATOM      5  C   UNL     1       0.693   9.154  21.762  0.00  0.00    +0.000 A 
ATOM      6 CL   UNL     1       0.329   9.260  23.436  0.00  0.00    +0.000 Cl
ATOM      7  N   UNL     1       0.188  10.155  21.028  0.00  0.00    +0.000 NA
ATOM      8  C   UNL     1       0.491  10.096  19.733  0.00  0.00    +0.000 A 
ATOM      9  N   UNL     1       1.234   9.145  19.152  0.00  0.00    +0.000 NA
ENDROOT
BRANCH   1  15
ATOM     10  C   UNL     1       4.386   2.463  20.252  0.00  0.00    +0.000 C 
ATOM     11  C   UNL     1       3.265   3.467  20.128  0.00  0.00    +0.000 A 
ATOM     12  C   UNL     1       1.998   3.076  20.586  0.00  0.00    +0.000 A 
ATOM     13  C   UNL     1       0.934   3.955  20.528  0.00  0.00    +0.000 A 
ATOM     14  C   UNL     1       1.138   5.248  20.044  0.00  0.00    +0.000 A 
ATOM     15  C   UNL     1       2.409   5.721  19.621  0.00  0.00    +0.000 A 
ATOM     16  C   UNL     1       3.470   4.783  19.598  0.00  0.00    +0.000 A 
ATOM     17  C   UNL     1       4.885   5.114  19.185  0.00  0.00    +0.000 C 
ENDBRANCH   1  15
BRANCH   8  18
ATOM     18  S   UNL     1      -0.122  11.400  18.707  0.00  0.00    +0.000 S 
ATOM     19  H   UNL     1       0.446  10.916  17.597  0.00  0.00    +0.000 HD
ENDBRANCH   8  18
TORSDOF 2
ENDMDL
