MODEL 1
REMARK VINA RESULT:      -8.4      0.000      0.000
REMARK  Name = 
REMARK  6 active torsions:
REMARK  status: ('A' for Active; 'I' for Inactive)
REMARK    1  A    between atoms: C_6  and  C_7
REMARK    2  A    between atoms: C_12  and  C_13
REMARK    3  A    between atoms: C_16  and  O_17
REMARK    4  A    between atoms: O_17  and  C_18
REMARK    5  A    between atoms: C_18  and  C_19
REMARK    6  A    between atoms: C_19  and  N_20
REMARK                            x       y       z     vdW  Elec       q    Type
REMARK                         _______ _______ _______ _____ _____    ______ ____
ROOT
ATOM      1  C   UNL     1       2.763   7.040  18.629  0.00  0.00    +0.000 A 
ATOM      2  C   UNL     1       2.868   7.869  17.492  0.00  0.00    +0.000 A 
ATOM      3  N   UNL     1       2.200   9.014  17.612  0.00  0.00    +0.000 NA
ATOM      4  N   UNL     1       1.646   8.947  18.845  0.00  0.00    +0.000 N 
ATOM      5  C   UNL     1       0.832   9.895  19.444  0.00  0.00    +0.000 A 
ATOM      6  C   UNL     1       0.365   9.696  20.684  0.00  0.00    +0.000 A 
ATOM      7  C   UNL     1       0.779   8.412  21.323  0.00  0.00    +0.000 A 
ATOM      8  N   UNL     1       1.527   7.498  20.784  0.00  0.00    +0.000 NA
ATOM      9  C   UNL     1       1.977   7.759  19.511  0.00  0.00    +0.000 A 
ENDROOT
BRANCH   1  15
ATOM     10  F   UNL     1       2.288   2.253  19.182  0.00  0.00    +0.000 F 
ATOM     11  C   UNL     1       3.078   3.333  19.117  0.00  0.00    +0.000 A 
ATOM     12  C   UNL     1       4.455   3.178  19.212  0.00  0.00    +0.000 A 
ATOM     13  C   UNL     1       5.279   4.298  19.138  0.00  0.00    +0.000 A 
ATOM     14  C   UNL     1       4.716   5.564  18.962  0.00  0.00    +0.000 A 
ATOM     15  C   UNL     1       3.324   5.721  18.862  0.00  0.00    +0.000 A 
ATOM     16  C   UNL     1       2.507   4.589  18.946  0.00  0.00    +0.000 A 
ENDBRANCH   1  15
BRANCH   6  17
ATOM     17  C   UNL     1      -0.537  10.637  21.314  0.00  0.00    +0.000 A 
ATOM     18  C   UNL     1      -1.058  11.670  20.545  0.00  0.00    +0.000 A 
ATOM     19  C   UNL     1      -1.867  12.630  21.139  0.00  0.00    +0.000 A 
ATOM     20  C   UNL     1      -2.180  12.575  22.505  0.00  0.00    +0.000 A 
ATOM     21  C   UNL     1      -1.666  11.535  23.275  0.00  0.00    +0.000 A 
ATOM     22  C   UNL     1      -0.847  10.568  22.682  0.00  0.00    +0.000 A 
BRANCH  20  23
ATOM     23  O   UNL     1      -2.977  13.527  23.119  0.00  0.00    +0.000 OA
BRANCH  23  24
ATOM     24  C   UNL     1      -4.135  12.944  23.745  0.00  0.00    +0.000 C 
BRANCH  24  25
ATOM     25  C   UNL     1      -5.465  13.338  23.106  0.00  0.00    +0.000 C 
BRANCH  25  26
ATOM     26  N   UNL     1      -5.918  12.358  22.083  0.00  0.00    +0.000 NA
ATOM     27  C   UNL     1      -7.369  12.101  22.127  0.00  0.00    +0.000 C 
ATOM     28  C   UNL     1      -7.807  11.092  21.061  0.00  0.00    +0.000 C 
ATOM     29  C   UNL     1      -7.399  11.551  19.670  0.00  0.00    +0.000 C 
ATOM     30  C   UNL     1      -5.909  11.857  19.641  0.00  0.00    +0.000 C 
ATOM     31  C   UNL     1      -5.512  12.833  20.750  0.00  0.00    +0.000 C 
ENDBRANCH  25  26
ENDBRANCH  24  25
ENDBRANCH  23  24
ENDBRANCH  20  23
ENDBRANCH   6  17
TORSDOF 6
ENDMDL
MODEL 2
REMARK VINA RESULT:      -8.3      1.756      2.607
REMARK  Name = 
REMARK  6 active torsions:
REMARK  status: ('A' for Active; 'I' for Inactive)
REMARK    1  A    between atoms: C_6  and  C_7
REMARK    2  A    between atoms: C_12  and  C_13
REMARK    3  A    between atoms: C_16  and  O_17
REMARK    4  A    between atoms: O_17  and  C_18
REMARK    5  A    between atoms: C_18  and  C_19
REMARK    6  A    between atoms: C_19  and  N_20
REMARK                            x       y       z     vdW  Elec       q    Type
REMARK                         _______ _______ _______ _____ _____    ______ ____
ROOT
ATOM      1  C   UNL     1       3.307   5.717  18.793  0.00  0.00    +0.000 A 
ATOM      2  C   UNL     1       3.057   4.785  19.823  0.00  0.00    +0.000 A 
ATOM      3  N   UNL     1       2.260   5.258  20.778  0.00  0.00    +0.000 NA
ATOM      4  N   UNL     1       1.974   6.518  20.378  0.00  0.00    +0.000 N 
ATOM      5  C   UNL     1       1.185   7.444  21.043  0.00  0.00    +0.000 A 
ATOM      6  C   UNL     1       0.979   8.658  20.514  0.00  0.00    +0.000 A 
ATOM      7  C   UNL     1       1.654   8.907  19.207  0.00  0.00    +0.000 A 
ATOM      8  N   UNL     1       2.409   8.067  18.566  0.00  0.00    +0.000 NA
ATOM      9  C   UNL     1       2.583   6.838  19.157  0.00  0.00    +0.000 A 
ENDROOT
BRANCH   1  15
ATOM     10  F   UNL     1       5.804   3.025  15.637  0.00  0.00    +0.000 F 
ATOM     11  C   UNL     1       5.362   4.227  16.030  0.00  0.00    +0.000 A 
ATOM     12  C   UNL     1       5.650   5.346  15.258  0.00  0.00    +0.000 A 
ATOM     13  C   UNL     1       5.186   6.595  15.661  0.00  0.00    +0.000 A 
ATOM     14  C   UNL     1       4.431   6.712  16.831  0.00  0.00    +0.000 A 
ATOM     15  C   UNL     1       4.136   5.581  17.608  0.00  0.00    +0.000 A 
ATOM     16  C   UNL     1       4.614   4.333  17.198  0.00  0.00    +0.000 A 
ENDBRANCH   1  15
BRANCH   6  17
ATOM     17  C   UNL     1       0.214   9.668  21.214  0.00  0.00    +0.000 A 
ATOM     18  C   UNL     1      -0.139   9.433  22.537  0.00  0.00    +0.000 A 
ATOM     19  C   UNL     1      -0.935  10.350  23.210  0.00  0.00    +0.000 A 
ATOM     20  C   UNL     1      -1.387  11.521  22.584  0.00  0.00    +0.000 A 
ATOM     21  C   UNL     1      -1.026  11.762  21.261  0.00  0.00    +0.000 A 
ATOM     22  C   UNL     1      -0.228  10.839  20.577  0.00  0.00    +0.000 A 
BRANCH  20  23
ATOM     23  O   UNL     1      -2.190  12.444  23.234  0.00  0.00    +0.000 OA
BRANCH  23  24
ATOM     24  C   UNL     1      -3.092  13.110  22.332  0.00  0.00    +0.000 C 
BRANCH  24  25
ATOM     25  C   UNL     1      -4.570  12.952  22.686  0.00  0.00    +0.000 C 
BRANCH  25  26
ATOM     26  N   UNL     1      -5.330  12.216  21.641  0.00  0.00    +0.000 NA
ATOM     27  C   UNL     1      -6.788  12.422  21.731  0.00  0.00    +0.000 C 
ATOM     28  C   UNL     1      -7.544  11.655  20.642  0.00  0.00    +0.000 C 
ATOM     29  C   UNL     1      -7.047  12.035  19.256  0.00  0.00    +0.000 C 
ATOM     30  C   UNL     1      -5.536  11.863  19.182  0.00  0.00    +0.000 C 
ATOM     31  C   UNL     1      -4.828  12.609  20.314  0.00  0.00    +0.000 C 
ENDBRANCH  25  26
ENDBRANCH  24  25
ENDBRANCH  23  24
ENDBRANCH  20  23
ENDBRANCH   6  17
TORSDOF 6
ENDMDL
MODEL 3
REMARK VINA RESULT:      -8.3      4.129      9.932
REMARK  Name = 
REMARK  6 active torsions:
REMARK  status: ('A' for Active; 'I' for Inactive)
REMARK    1  A    between atoms: C_6  and  C_7
REMARK    2  A    between atoms: C_12  and  C_13
REMARK    3  A    between atoms: C_16  and  O_17
REMARK    4  A    between atoms: O_17  and  C_18
REMARK    5  A    between atoms: C_18  and  C_19
REMARK    6  A    between atoms: C_19  and  N_20
REMARK                            x       y       z     vdW  Elec       q    Type
REMARK                         _______ _______ _______ _____ _____    ______ ____
ROOT
ATOM      1  C   UNL     1      -1.443  12.529  20.846  0.00  0.00    +0.000 A 
ATOM      2  C   UNL     1      -1.582  13.050  19.542  0.00  0.00    +0.000 A 
ATOM      3  N   UNL     1      -0.934  12.341  18.620  0.00  0.00    +0.000 NA
ATOM      4  N   UNL     1      -0.359  11.335  19.320  0.00  0.00    +0.000 N 
ATOM      5  C   UNL     1       0.445  10.325  18.816  0.00  0.00    +0.000 A 
ATOM      6  C   UNL     1       0.936   9.383  19.632  0.00  0.00    +0.000 A 
ATOM      7  C   UNL     1       0.558   9.525  21.069  0.00  0.00    +0.000 A 
ATOM      8  N   UNL     1      -0.181  10.465  21.575  0.00  0.00    +0.000 NA
ATOM      9  C   UNL     1      -0.657  11.402  20.688  0.00  0.00    +0.000 A 
ENDROOT
BRANCH   1  15
ATOM     10  F   UNL     1      -4.588  12.318  24.521  0.00  0.00    +0.000 F 
ATOM     11  C   UNL     1      -3.536  12.906  23.937  0.00  0.00    +0.000 A 
ATOM     12  C   UNL     1      -2.909  13.971  24.574  0.00  0.00    +0.000 A 
ATOM     13  C   UNL     1      -1.811  14.579  23.972  0.00  0.00    +0.000 A 
ATOM     14  C   UNL     1      -1.345  14.111  22.742  0.00  0.00    +0.000 A 
ATOM     15  C   UNL     1      -1.975  13.032  22.101  0.00  0.00    +0.000 A 
ATOM     16  C   UNL     1      -3.082  12.435  22.711  0.00  0.00    +0.000 A 
ENDBRANCH   1  15
BRANCH   6  17
ATOM     17  C   UNL     1       1.831   8.353  19.148  0.00  0.00    +0.000 A 
ATOM     18  C   UNL     1       2.038   7.231  19.940  0.00  0.00    +0.000 A 
ATOM     19  C   UNL     1       2.947   6.262  19.536  0.00  0.00    +0.000 A 
ATOM     20  C   UNL     1       3.659   6.386  18.334  0.00  0.00    +0.000 A 
ATOM     21  C   UNL     1       3.445   7.506  17.534  0.00  0.00    +0.000 A 
ATOM     22  C   UNL     1       2.533   8.488  17.940  0.00  0.00    +0.000 A 
BRANCH  20  23
ATOM     23  O   UNL     1       4.577   5.436  17.917  0.00  0.00    +0.000 OA
BRANCH  23  24
ATOM     24  C   UNL     1       4.910   4.507  18.964  0.00  0.00    +0.000 C 
BRANCH  24  25
ATOM     25  C   UNL     1       4.613   3.046  18.632  0.00  0.00    +0.000 C 
BRANCH  25  26
ATOM     26  N   UNL     1       3.320   2.584  19.202  0.00  0.00    +0.000 NA
ATOM     27  C   UNL     1       3.077   3.082  20.569  0.00  0.00    +0.000 C 
ATOM     28  C   UNL     1       1.738   2.594  21.129  0.00  0.00    +0.000 C 
ATOM     29  C   UNL     1       0.586   2.987  20.217  0.00  0.00    +0.000 C 
ATOM     30  C   UNL     1       0.861   2.510  18.798  0.00  0.00    +0.000 C 
ATOM     31  C   UNL     1       2.227   2.984  18.300  0.00  0.00    +0.000 C 
ENDBRANCH  25  26
ENDBRANCH  24  25
ENDBRANCH  23  24
ENDBRANCH  20  23
ENDBRANCH   6  17
TORSDOF 6
ENDMDL
MODEL 4
REMARK VINA RESULT:      -8.0      1.300      2.105
REMARK  Name = 
REMARK  6 active torsions:
REMARK  status: ('A' for Active; 'I' for Inactive)
REMARK    1  A    between atoms: C_6  and  C_7
REMARK    2  A    between atoms: C_12  and  C_13
REMARK    3  A    between atoms: C_16  and  O_17
REMARK    4  A    between atoms: O_17  and  C_18
REMARK    5  A    between atoms: C_18  and  C_19
REMARK    6  A    between atoms: C_19  and  N_20
REMARK                            x       y       z     vdW  Elec       q    Type
REMARK                         _______ _______ _______ _____ _____    ______ ____
ROOT
ATOM      1  C   UNL     1       3.134   5.713  18.510  0.00  0.00    +0.000 A 
ATOM      2  C   UNL     1       3.618   6.633  17.555  0.00  0.00    +0.000 A 
ATOM      3  N   UNL     1       3.196   7.878  17.763  0.00  0.00    +0.000 NA
ATOM      4  N   UNL     1       2.425   7.786  18.872  0.00  0.00    +0.000 N 
ATOM      5  C   UNL     1       1.735   8.815  19.493  0.00  0.00    +0.000 A 
ATOM      6  C   UNL     1       1.018   8.573  20.599  0.00  0.00    +0.000 A 
ATOM      7  C   UNL     1       1.027   7.157  21.070  0.00  0.00    +0.000 A 
ATOM      8  N   UNL     1       1.650   6.169  20.503  0.00  0.00    +0.000 NA
ATOM      9  C   UNL     1       2.371   6.478  19.372  0.00  0.00    +0.000 A 
ENDROOT
BRANCH   1  15
ATOM     10  F   UNL     1       4.928   1.818  20.757  0.00  0.00    +0.000 F 
ATOM     11  C   UNL     1       4.234   2.343  19.739  0.00  0.00    +0.000 A 
ATOM     12  C   UNL     1       3.664   1.499  18.794  0.00  0.00    +0.000 A 
ATOM     13  C   UNL     1       2.936   2.042  17.739  0.00  0.00    +0.000 A 
ATOM     14  C   UNL     1       2.779   3.427  17.643  0.00  0.00    +0.000 A 
ATOM     15  C   UNL     1       3.352   4.280  18.600  0.00  0.00    +0.000 A 
ATOM     16  C   UNL     1       4.087   3.723  19.651  0.00  0.00    +0.000 A 
ENDBRANCH   1  15
BRANCH   6  17
ATOM     17  C   UNL     1       0.235   9.613  21.235  0.00  0.00    +0.000 A 
ATOM     18  C   UNL     1      -0.121   9.451  22.568  0.00  0.00    +0.000 A 
ATOM     19  C   UNL     1      -0.933  10.395  23.182  0.00  0.00    +0.000 A 
ATOM     20  C   UNL     1      -1.399  11.520  22.486  0.00  0.00    +0.000 A 
ATOM     21  C   UNL     1      -1.034  11.688  21.153  0.00  0.00    +0.000 A 
ATOM     22  C   UNL     1      -0.220  10.737  20.528  0.00  0.00    +0.000 A 
BRANCH  20  23
ATOM     23  O   UNL     1      -2.217  12.468  23.078  0.00  0.00    +0.000 OA
BRANCH  23  24
ATOM     24  C   UNL     1      -3.065  13.127  22.119  0.00  0.00    +0.000 C 
BRANCH  24  25
ATOM     25  C   UNL     1      -4.556  12.848  22.296  0.00  0.00    +0.000 C 
BRANCH  25  26
ATOM     26  N   UNL     1      -5.294  12.851  21.005  0.00  0.00    +0.000 NA
ATOM     27  C   UNL     1      -4.495  12.330  19.879  0.00  0.00    +0.000 C 
ATOM     28  C   UNL     1      -5.280  12.341  18.564  0.00  0.00    +0.000 C 
ATOM     29  C   UNL     1      -6.577  11.558  18.692  0.00  0.00    +0.000 C 
ATOM     30  C   UNL     1      -7.378  12.069  19.882  0.00  0.00    +0.000 C 
ATOM     31  C   UNL     1      -6.540  12.081  21.161  0.00  0.00    +0.000 C 
ENDBRANCH  25  26
ENDBRANCH  24  25
ENDBRANCH  23  24
ENDBRANCH  20  23
ENDBRANCH   6  17
TORSDOF 6
ENDMDL
MODEL 5
REMARK VINA RESULT:      -8.0      2.053      2.901
REMARK  Name = 
REMARK  6 active torsions:
REMARK  status: ('A' for Active; 'I' for Inactive)
REMARK    1  A    between atoms: C_6  and  C_7
REMARK    2  A    between atoms: C_12  and  C_13
REMARK    3  A    between atoms: C_16  and  O_17
REMARK    4  A    between atoms: O_17  and  C_18
REMARK    5  A    between atoms: C_18  and  C_19
REMARK    6  A    between atoms: C_19  and  N_20
REMARK                            x       y       z     vdW  Elec       q    Type
REMARK                         _______ _______ _______ _____ _____    ______ ____
ROOT
ATOM      1  C   UNL     1       3.483   5.434  19.009  0.00  0.00    +0.000 A 
ATOM      2  C   UNL     1       3.139   4.493  20.003  0.00  0.00    +0.000 A 
ATOM      3  N   UNL     1       2.266   4.962  20.891  0.00  0.00    +0.000 NA
ATOM      4  N   UNL     1       2.024   6.229  20.481  0.00  0.00    +0.000 N 
ATOM      5  C   UNL     1       1.187   7.154  21.087  0.00  0.00    +0.000 A 
ATOM      6  C   UNL     1       1.036   8.374  20.555  0.00  0.00    +0.000 A 
ATOM      7  C   UNL     1       1.822   8.632  19.313  0.00  0.00    +0.000 A 
ATOM      8  N   UNL     1       2.624   7.793  18.730  0.00  0.00    +0.000 NA
ATOM      9  C   UNL     1       2.738   6.556  19.321  0.00  0.00    +0.000 A 
ENDROOT
BRANCH   1  15
ATOM     10  F   UNL     1       7.594   6.612  16.739  0.00  0.00    +0.000 F 
ATOM     11  C   UNL     1       6.471   5.884  16.785  0.00  0.00    +0.000 A 
ATOM     12  C   UNL     1       6.224   4.947  15.788  0.00  0.00    +0.000 A 
ATOM     13  C   UNL     1       5.061   4.184  15.837  0.00  0.00    +0.000 A 
ATOM     14  C   UNL     1       4.158   4.360  16.888  0.00  0.00    +0.000 A 
ATOM     15  C   UNL     1       4.410   5.303  17.898  0.00  0.00    +0.000 A 
ATOM     16  C   UNL     1       5.577   6.069  17.833  0.00  0.00    +0.000 A 
ENDBRANCH   1  15
BRANCH   6  17
ATOM     17  C   UNL     1       0.220   9.384  21.198  0.00  0.00    +0.000 A 
ATOM     18  C   UNL     1      -0.181  10.484  20.451  0.00  0.00    +0.000 A 
ATOM     19  C   UNL     1      -0.900  11.503  21.061  0.00  0.00    +0.000 A 
ATOM     20  C   UNL     1      -1.242  11.443  22.420  0.00  0.00    +0.000 A 
ATOM     21  C   UNL     1      -0.849  10.336  23.167  0.00  0.00    +0.000 A 
ATOM     22  C   UNL     1      -0.119   9.308  22.558  0.00  0.00    +0.000 A 
BRANCH  20  23
ATOM     23  O   UNL     1      -1.951  12.453  23.049  0.00  0.00    +0.000 OA
BRANCH  23  24
ATOM     24  C   UNL     1      -3.354  12.412  22.729  0.00  0.00    +0.000 C 
BRANCH  24  25
ATOM     25  C   UNL     1      -3.886  13.675  22.056  0.00  0.00    +0.000 C 
BRANCH  25  26
ATOM     26  N   UNL     1      -5.055  13.402  21.177  0.00  0.00    +0.000 NA
ATOM     27  C   UNL     1      -4.733  12.518  20.041  0.00  0.00    +0.000 C 
ATOM     28  C   UNL     1      -5.954  12.252  19.156  0.00  0.00    +0.000 C 
ATOM     29  C   UNL     1      -7.102  11.668  19.965  0.00  0.00    +0.000 C 
ATOM     30  C   UNL     1      -7.402  12.561  21.161  0.00  0.00    +0.000 C 
ATOM     31  C   UNL     1      -6.145  12.834  21.988  0.00  0.00    +0.000 C 
ENDBRANCH  25  26
ENDBRANCH  24  25
ENDBRANCH  23  24
ENDBRANCH  20  23
ENDBRANCH   6  17
TORSDOF 6
ENDMDL
MODEL 6
REMARK VINA RESULT:      -8.0      3.954     10.101
REMARK  Name = 
REMARK  6 active torsions:
REMARK  status: ('A' for Active; 'I' for Inactive)
REMARK    1  A    between atoms: C_6  and  C_7
REMARK    2  A    between atoms: C_12  and  C_13
REMARK    3  A    between atoms: C_16  and  O_17
REMARK    4  A    between atoms: O_17  and  C_18
REMARK    5  A    between atoms: C_18  and  C_19
REMARK    6  A    between atoms: C_19  and  N_20
REMARK                            x       y       z     vdW  Elec       q    Type
REMARK                         _______ _______ _______ _____ _____    ______ ____
ROOT
ATOM      1  C   UNL     1      -1.684  11.967  21.960  0.00  0.00    +0.000 A 
ATOM      2  C   UNL     1      -1.253  11.526  23.230  0.00  0.00    +0.000 A 
ATOM      3  N   UNL     1      -0.294  10.604  23.169  0.00  0.00    +0.000 NA
ATOM      4  N   UNL     1      -0.083  10.432  21.843  0.00  0.00    +0.000 N 
ATOM      5  C   UNL     1       0.814   9.559  21.250  0.00  0.00    +0.000 A 
ATOM      6  C   UNL     1       0.923   9.508  19.915  0.00  0.00    +0.000 A 
ATOM      7  C   UNL     1       0.022  10.432  19.165  0.00  0.00    +0.000 A 
ATOM      8  N   UNL     1      -0.838  11.250  19.690  0.00  0.00    +0.000 NA
ATOM      9  C   UNL     1      -0.904  11.259  21.064  0.00  0.00    +0.000 A 
ENDROOT
BRANCH   1  15
ATOM     10  F   UNL     1      -5.513  13.360  19.345  0.00  0.00    +0.000 F 
ATOM     11  C   UNL     1      -4.635  13.609  20.325  0.00  0.00    +0.000 A 
ATOM     12  C   UNL     1      -4.754  14.778  21.067  0.00  0.00    +0.000 A 
ATOM     13  C   UNL     1      -3.847  15.035  22.092  0.00  0.00    +0.000 A 
ATOM     14  C   UNL     1      -2.832  14.116  22.369  0.00  0.00    +0.000 A 
ATOM     15  C   UNL     1      -2.715  12.932  21.622  0.00  0.00    +0.000 A 
ATOM     16  C   UNL     1      -3.627  12.689  20.591  0.00  0.00    +0.000 A 
ENDBRANCH   1  15
BRANCH   6  17
ATOM     17  C   UNL     1       1.805   8.562  19.263  0.00  0.00    +0.000 A 
ATOM     18  C   UNL     1       2.159   8.791  17.940  0.00  0.00    +0.000 A 
ATOM     19  C   UNL     1       2.942   7.863  17.267  0.00  0.00    +0.000 A 
ATOM     20  C   UNL     1       3.395   6.695  17.899  0.00  0.00    +0.000 A 
ATOM     21  C   UNL     1       3.048   6.469  19.229  0.00  0.00    +0.000 A 
ATOM     22  C   UNL     1       2.254   7.399  19.910  0.00  0.00    +0.000 A 
BRANCH  20  23
ATOM     23  O   UNL     1       4.169   5.752  17.243  0.00  0.00    +0.000 OA
BRANCH  23  24
ATOM     24  C   UNL     1       4.547   4.664  18.107  0.00  0.00    +0.000 C 
BRANCH  24  25
ATOM     25  C   UNL     1       3.964   3.310  17.709  0.00  0.00    +0.000 C 
BRANCH  25  26
ATOM     26  N   UNL     1       3.056   2.754  18.748  0.00  0.00    +0.000 NA
ATOM     27  C   UNL     1       3.434   3.144  20.119  0.00  0.00    +0.000 C 
ATOM     28  C   UNL     1       2.480   2.561  21.166  0.00  0.00    +0.000 C 
ATOM     29  C   UNL     1       1.042   2.966  20.885  0.00  0.00    +0.000 C 
ATOM     30  C   UNL     1       0.669   2.601  19.455  0.00  0.00    +0.000 C 
ATOM     31  C   UNL     1       1.674   3.168  18.450  0.00  0.00    +0.000 C 
ENDBRANCH  25  26
ENDBRANCH  24  25
ENDBRANCH  23  24
ENDBRANCH  20  23
ENDBRANCH   6  17
TORSDOF 6
ENDMDL
MODEL 7
REMARK VINA RESULT:      -8.0      4.248     10.077
REMARK  Name = 
REMARK  6 active torsions:
REMARK  status: ('A' for Active; 'I' for Inactive)
REMARK    1  A    between atoms: C_6  and  C_7
REMARK    2  A    between atoms: C_12  and  C_13
REMARK    3  A    between atoms: C_16  and  O_17
REMARK    4  A    between atoms: O_17  and  C_18
REMARK    5  A    between atoms: C_18  and  C_19
REMARK    6  A    between atoms: C_19  and  N_20
REMARK                            x       y       z     vdW  Elec       q    Type
REMARK                         _______ _______ _______ _____ _____    ______ ____
ROOT
ATOM      1  C   UNL     1      -1.906  12.904  21.182  0.00  0.00    +0.000 A 
ATOM      2  C   UNL     1      -2.823  12.749  20.121  0.00  0.00    +0.000 A 
ATOM      3  N   UNL     1      -2.484  11.783  19.270  0.00  0.00    +0.000 NA
ATOM      4  N   UNL     1      -1.328  11.290  19.772  0.00  0.00    +0.000 N 
ATOM      5  C   UNL     1      -0.556  10.271  19.236  0.00  0.00    +0.000 A 
ATOM      6  C   UNL     1       0.564   9.877  19.856  0.00  0.00    +0.000 A 
ATOM      7  C   UNL     1       0.890  10.611  21.114  0.00  0.00    +0.000 A 
ATOM      8  N   UNL     1       0.196  11.578  21.633  0.00  0.00    +0.000 NA
ATOM      9  C   UNL     1      -0.944  11.938  20.954  0.00  0.00    +0.000 A 
ENDROOT
BRANCH   1  15
ATOM     10  F   UNL     1      -3.247  14.231  25.642  0.00  0.00    +0.000 F 
ATOM     11  C   UNL     1      -2.579  14.498  24.512  0.00  0.00    +0.000 A 
ATOM     12  C   UNL     1      -1.841  15.671  24.417  0.00  0.00    +0.000 A 
ATOM     13  C   UNL     1      -1.140  15.948  23.246  0.00  0.00    +0.000 A 
ATOM     14  C   UNL     1      -1.178  15.043  22.183  0.00  0.00    +0.000 A 
ATOM     15  C   UNL     1      -1.921  13.855  22.280  0.00  0.00    +0.000 A 
ATOM     16  C   UNL     1      -2.627  13.592  23.458  0.00  0.00    +0.000 A 
ENDBRANCH   1  15
BRANCH   6  17
ATOM     17  C   UNL     1       1.425   8.859  19.289  0.00  0.00    +0.000 A 
ATOM     18  C   UNL     1       1.752   7.759  20.070  0.00  0.00    +0.000 A 
ATOM     19  C   UNL     1       2.634   6.805  19.581  0.00  0.00    +0.000 A 
ATOM     20  C   UNL     1       3.200   6.923  18.303  0.00  0.00    +0.000 A 
ATOM     21  C   UNL     1       2.866   8.022  17.515  0.00  0.00    +0.000 A 
ATOM     22  C   UNL     1       1.981   8.988  18.006  0.00  0.00    +0.000 A 
BRANCH  20  23
ATOM     23  O   UNL     1       4.090   5.988  17.799  0.00  0.00    +0.000 OA
BRANCH  23  24
ATOM     24  C   UNL     1       4.635   5.147  18.831  0.00  0.00    +0.000 C 
BRANCH  24  25
ATOM     25  C   UNL     1       4.540   3.650  18.543  0.00  0.00    +0.000 C 
BRANCH  25  26
ATOM     26  N   UNL     1       3.341   3.026  19.163  0.00  0.00    +0.000 NA
ATOM     27  C   UNL     1       3.073   3.515  20.529  0.00  0.00    +0.000 C 
ATOM     28  C   UNL     1       1.831   2.858  21.140  0.00  0.00    +0.000 C 
ATOM     29  C   UNL     1       0.609   3.069  20.260  0.00  0.00    +0.000 C 
ATOM     30  C   UNL     1       0.905   2.604  18.841  0.00  0.00    +0.000 C 
ATOM     31  C   UNL     1       2.176   3.252  18.291  0.00  0.00    +0.000 C 
ENDBRANCH  25  26
ENDBRANCH  24  25
ENDBRANCH  23  24
ENDBRANCH  20  23
ENDBRANCH   6  17
TORSDOF 6
ENDMDL
MODEL 8
REMARK VINA RESULT:      -8.0      0.949      1.337
REMARK  Name = 
REMARK  6 active torsions:
REMARK  status: ('A' for Active; 'I' for Inactive)
REMARK    1  A    between atoms: C_6  and  C_7
REMARK    2  A    between atoms: C_12  and  C_13
REMARK    3  A    between atoms: C_16  and  O_17
REMARK    4  A    between atoms: O_17  and  C_18
REMARK    5  A    between atoms: C_18  and  C_19
REMARK    6  A    between atoms: C_19  and  N_20
REMARK                            x       y       z     vdW  Elec       q    Type
REMARK                         _______ _______ _______ _____ _____    ______ ____
ROOT
ATOM      1  C   UNL     1       2.715   6.717  19.104  0.00  0.00    +0.000 A 
ATOM      2  C   UNL     1       3.043   7.453  17.946  0.00  0.00    +0.000 A 
ATOM      3  N   UNL     1       2.471   8.655  17.908  0.00  0.00    +0.000 NA
ATOM      4  N   UNL     1       1.756   8.719  19.055  0.00  0.00    +0.000 N 
ATOM      5  C   UNL     1       0.960   9.770  19.482  0.00  0.00    +0.000 A 
ATOM      6  C   UNL     1       0.319   9.696  20.656  0.00  0.00    +0.000 A 
ATOM      7  C   UNL     1       0.527   8.430  21.419  0.00  0.00    +0.000 A 
ATOM      8  N   UNL     1       1.254   7.423  21.040  0.00  0.00    +0.000 NA
ATOM      9  C   UNL     1       1.889   7.557  19.828  0.00  0.00    +0.000 A 
ENDROOT
BRANCH   1  15
ATOM     10  F   UNL     1       1.865   2.478  21.285  0.00  0.00    +0.000 F 
ATOM     11  C   UNL     1       2.678   3.260  20.562  0.00  0.00    +0.000 A 
ATOM     12  C   UNL     1       3.896   2.755  20.122  0.00  0.00    +0.000 A 
ATOM     13  C   UNL     1       4.739   3.563  19.364  0.00  0.00    +0.000 A 
ATOM     14  C   UNL     1       4.352   4.867  19.047  0.00  0.00    +0.000 A 
ATOM     15  C   UNL     1       3.120   5.376  19.488  0.00  0.00    +0.000 A 
ATOM     16  C   UNL     1       2.285   4.557  20.255  0.00  0.00    +0.000 A 
ENDBRANCH   1  15
BRANCH   6  17
ATOM     17  C   UNL     1      -0.570  10.749  21.101  0.00  0.00    +0.000 A 
ATOM     18  C   UNL     1      -0.871  10.834  22.454  0.00  0.00    +0.000 A 
ATOM     19  C   UNL     1      -1.778  11.786  22.898  0.00  0.00    +0.000 A 
ATOM     20  C   UNL     1      -2.395  12.678  22.008  0.00  0.00    +0.000 A 
ATOM     21  C   UNL     1      -2.087  12.600  20.652  0.00  0.00    +0.000 A 
ATOM     22  C   UNL     1      -1.177  11.638  20.198  0.00  0.00    +0.000 A 
BRANCH  20  23
ATOM     23  O   UNL     1      -3.310  13.629  22.430  0.00  0.00    +0.000 OA
BRANCH  23  24
ATOM     24  C   UNL     1      -4.548  13.037  22.862  0.00  0.00    +0.000 C 
BRANCH  24  25
ATOM     25  C   UNL     1      -5.731  13.295  21.931  0.00  0.00    +0.000 C 
BRANCH  25  26
ATOM     26  N   UNL     1      -5.727  12.400  20.744  0.00  0.00    +0.000 NA
ATOM     27  C   UNL     1      -6.842  11.434  20.742  0.00  0.00    +0.000 C 
ATOM     28  C   UNL     1      -6.815  10.529  19.507  0.00  0.00    +0.000 C 
ATOM     29  C   UNL     1      -6.830  11.346  18.225  0.00  0.00    +0.000 C 
ATOM     30  C   UNL     1      -5.705  12.372  18.251  0.00  0.00    +0.000 C 
ATOM     31  C   UNL     1      -5.747  13.222  19.522  0.00  0.00    +0.000 C 
ENDBRANCH  25  26
ENDBRANCH  24  25
ENDBRANCH  23  24
ENDBRANCH  20  23
ENDBRANCH   6  17
TORSDOF 6
ENDMDL
MODEL 9
REMARK VINA RESULT:      -7.9      3.365      5.159
REMARK  Name = 
REMARK  6 active torsions:
REMARK  status: ('A' for Active; 'I' for Inactive)
REMARK    1  A    between atoms: C_6  and  C_7
REMARK    2  A    between atoms: C_12  and  C_13
REMARK    3  A    between atoms: C_16  and  O_17
REMARK    4  A    between atoms: O_17  and  C_18
REMARK    5  A    between atoms: C_18  and  C_19
REMARK    6  A    between atoms: C_19  and  N_20
REMARK                            x       y       z     vdW  Elec       q    Type
REMARK                         _______ _______ _______ _____ _____    ______ ____
ROOT
ATOM      1  C   UNL     1       4.200   5.042  18.334  0.00  0.00    +0.000 A 
ATOM      2  C   UNL     1       3.885   4.198  19.420  0.00  0.00    +0.000 A 
ATOM      3  N   UNL     1       3.017   4.739  20.272  0.00  0.00    +0.000 NA
ATOM      4  N   UNL     1       2.750   5.957  19.745  0.00  0.00    +0.000 N 
ATOM      5  C   UNL     1       1.909   6.925  20.271  0.00  0.00    +0.000 A 
ATOM      6  C   UNL     1       1.732   8.086  19.626  0.00  0.00    +0.000 A 
ATOM      7  C   UNL     1       2.497   8.232  18.353  0.00  0.00    +0.000 A 
ATOM      8  N   UNL     1       3.303   7.352  17.842  0.00  0.00    +0.000 NA
ATOM      9  C   UNL     1       3.444   6.179  18.547  0.00  0.00    +0.000 A 
ENDROOT
BRANCH   1  15
ATOM     10  F   UNL     1       5.074   4.130  13.660  0.00  0.00    +0.000 F 
ATOM     11  C   UNL     1       5.537   4.380  14.891  0.00  0.00    +0.000 A 
ATOM     12  C   UNL     1       6.908   4.486  15.096  0.00  0.00    +0.000 A 
ATOM     13  C   UNL     1       7.392   4.753  16.374  0.00  0.00    +0.000 A 
ATOM     14  C   UNL     1       6.498   4.919  17.434  0.00  0.00    +0.000 A 
ATOM     15  C   UNL     1       5.113   4.816  17.227  0.00  0.00    +0.000 A 
ATOM     16  C   UNL     1       4.640   4.539  15.941  0.00  0.00    +0.000 A 
ENDBRANCH   1  15
BRANCH   6  17
ATOM     17  C   UNL     1       0.911   9.142  20.180  0.00  0.00    +0.000 A 
ATOM     18  C   UNL     1       0.719   9.179  21.555  0.00  0.00    +0.000 A 
ATOM     19  C   UNL     1      -0.123  10.135  22.107  0.00  0.00    +0.000 A 
ATOM     20  C   UNL     1      -0.782  11.077  21.304  0.00  0.00    +0.000 A 
ATOM     21  C   UNL     1      -0.583  11.047  19.926  0.00  0.00    +0.000 A 
ATOM     22  C   UNL     1       0.261  10.082  19.364  0.00  0.00    +0.000 A 
BRANCH  20  23
ATOM     23  O   UNL     1      -1.634  12.033  21.833  0.00  0.00    +0.000 OA
BRANCH  23  24
ATOM     24  C   UNL     1      -1.262  13.367  21.442  0.00  0.00    +0.000 C 
BRANCH  24  25
ATOM     25  C   UNL     1       0.032  13.874  22.075  0.00  0.00    +0.000 C 
BRANCH  25  26
ATOM     26  N   UNL     1       0.992  14.398  21.067  0.00  0.00    +0.000 NA
ATOM     27  C   UNL     1       2.104  13.470  20.788  0.00  0.00    +0.000 C 
ATOM     28  C   UNL     1       3.074  14.034  19.744  0.00  0.00    +0.000 C 
ATOM     29  C   UNL     1       2.350  14.385  18.454  0.00  0.00    +0.000 C 
ATOM     30  C   UNL     1       1.176  15.307  18.752  0.00  0.00    +0.000 C 
ATOM     31  C   UNL     1       0.261  14.723  19.830  0.00  0.00    +0.000 C 
ENDBRANCH  25  26
ENDBRANCH  24  25
ENDBRANCH  23  24
ENDBRANCH  20  23
ENDBRANCH   6  17
TORSDOF 6
ENDMDL
