MODEL 1
REMARK VINA RESULT:      -8.4      0.000      0.000
REMARK  Name = 
REMARK  7 active torsions:
REMARK  status: ('A' for Active; 'I' for Inactive)
REMARK    1  A    between atoms: C_1  and  C_2
REMARK    2  A    between atoms: C_6  and  O_7
REMARK    3  A    between atoms: O_7  and  C_8
REMARK    4  A    between atoms: C_8  and  C_9
REMARK    5  A    between atoms: C_9  and  N_10
REMARK    6  A    between atoms: N_13  and  C_14
REMARK    7  A    between atoms: C_14  and  C_15
REMARK                            x       y       z     vdW  Elec       q    Type
REMARK                         _______ _______ _______ _____ _____    ______ ____
ROOT
ATOM      1  N   UNL     1       2.415   5.971  20.480  0.00  0.00    +0.000 NA
ATOM      2  C   UNL     1       2.526   4.517  20.722  0.00  0.00    +0.000 C 
ATOM      3  C   UNL     1       2.047   3.626  19.563  0.00  0.00    +0.000 C 
ATOM      4  N   UNL     1       2.754   3.924  18.303  0.00  0.00    +0.000 NA
ATOM      5  C   UNL     1       2.496   5.350  17.997  0.00  0.00    +0.000 C 
ATOM      6  C   UNL     1       2.861   6.343  19.127  0.00  0.00    +0.000 C 
ENDROOT
BRANCH   1   7
ATOM      7  C   UNL     1       1.121   6.561  20.890  0.00  0.00    +0.000 C 
BRANCH   7   8
ATOM      8  C   UNL     1       1.293   8.076  20.743  0.00  0.00    +0.000 C 
BRANCH   8   9
ATOM      9  O   UNL     1       1.557   8.904  21.846  0.00  0.00    +0.000 OA
BRANCH   9  15
ATOM     10  C   UNL     1      -0.161  14.818  18.843  0.00  0.00    +0.000 C 
ATOM     11  C   UNL     1       0.136  13.564  19.607  0.00  0.00    +0.000 A 
ATOM     12  C   UNL     1       1.196  12.772  19.247  0.00  0.00    +0.000 A 
ATOM     13  C   UNL     1       1.407  11.603  19.968  0.00  0.00    +0.000 A 
ATOM     14  C   UNL     1       0.586  11.183  21.070  0.00  0.00    +0.000 A 
ATOM     15  C   UNL     1       0.672   9.989  21.918  0.00  0.00    +0.000 A 
ATOM     16  C   UNL     1      -0.223   9.808  22.978  0.00  0.00    +0.000 A 
ATOM     17  C   UNL     1      -1.221  10.738  23.213  0.00  0.00    +0.000 A 
ATOM     18  C   UNL     1      -1.321  11.859  22.389  0.00  0.00    +0.000 A 
ATOM     19  C   UNL     1      -0.453  12.105  21.340  0.00  0.00    +0.000 A 
ATOM     20  N   UNL     1      -0.673  13.240  20.638  0.00  0.00    +0.000 NA
ENDBRANCH   9  15
ENDBRANCH   8   9
ENDBRANCH   7   8
ENDBRANCH   1   7
BRANCH   4  21
ATOM     21  C   UNL     1       4.186   3.615  18.493  0.00  0.00    +0.000 C 
BRANCH  21  22
ATOM     22  C   UNL     1       5.100   4.145  17.428  0.00  0.00    +0.000 A 
ATOM     23  C   UNL     1       6.080   5.098  17.751  0.00  0.00    +0.000 A 
ATOM     24  C   UNL     1       6.984   5.532  16.785  0.00  0.00    +0.000 A 
ATOM     25  C   UNL     1       6.912   5.013  15.497  0.00  0.00    +0.000 A 
ATOM     26  C   UNL     1       5.942   4.057  15.177  0.00  0.00    +0.000 A 
ATOM     27  C   UNL     1       5.028   3.629  16.132  0.00  0.00    +0.000 A 
ATOM     28  N   UNL     1       5.921   3.471  13.914  0.00  0.00    +0.000 N 
ATOM     29  C   UNL     1       6.774   3.885  12.930  0.00  0.00    +0.000 C 
ATOM     30  O   UNL     1       6.817   3.320  11.841  0.00  0.00    +0.000 OA
ATOM     31  C   UNL     1       7.569   5.144  13.260  0.00  0.00    +0.000 C 
ATOM     32  O   UNL     1       7.869   5.440  14.616  0.00  0.00    +0.000 OA
ATOM     33  H   UNL     1       5.313   2.690  13.712  0.00  0.00    +0.000 HD
ENDBRANCH  21  22
ENDBRANCH   4  21
TORSDOF 6
ENDMDL
MODEL 2
REMARK VINA RESULT:      -8.3      2.712      9.247
REMARK  Name = 
REMARK  7 active torsions:
REMARK  status: ('A' for Active; 'I' for Inactive)
REMARK    1  A    between atoms: C_1  and  C_2
REMARK    2  A    between atoms: C_6  and  O_7
REMARK    3  A    between atoms: O_7  and  C_8
REMARK    4  A    between atoms: C_8  and  C_9
REMARK    5  A    between atoms: C_9  and  N_10
REMARK    6  A    between atoms: N_13  and  C_14
REMARK    7  A    between atoms: C_14  and  C_15
REMARK                            x       y       z     vdW  Elec       q    Type
REMARK                         _______ _______ _______ _____ _____    ______ ____
ROOT
ATOM      1  N   UNL     1       2.056   5.092  19.249  0.00  0.00    +0.000 NA
ATOM      2  C   UNL     1       1.688   6.296  20.023  0.00  0.00    +0.000 C 
ATOM      3  C   UNL     1       2.665   7.477  19.894  0.00  0.00    +0.000 C 
ATOM      4  N   UNL     1       2.857   7.889  18.491  0.00  0.00    +0.000 NA
ATOM      5  C   UNL     1       3.379   6.708  17.767  0.00  0.00    +0.000 C 
ATOM      6  C   UNL     1       2.521   5.426  17.893  0.00  0.00    +0.000 C 
ENDROOT
BRANCH   1   7
ATOM      7  C   UNL     1       2.918   4.136  19.982  0.00  0.00    +0.000 C 
BRANCH   7   8
ATOM      8  C   UNL     1       3.892   3.577  18.940  0.00  0.00    +0.000 C 
BRANCH   8   9
ATOM      9  O   UNL     1       5.268   3.461  19.197  0.00  0.00    +0.000 OA
BRANCH   9  15
ATOM     10  C   UNL     1       7.239   5.079  12.838  0.00  0.00    +0.000 C 
ATOM     11  C   UNL     1       6.905   4.813  14.274  0.00  0.00    +0.000 A 
ATOM     12  C   UNL     1       6.167   3.709  14.617  0.00  0.00    +0.000 A 
ATOM     13  C   UNL     1       5.858   3.527  15.960  0.00  0.00    +0.000 A 
ATOM     14  C   UNL     1       6.272   4.422  17.005  0.00  0.00    +0.000 A 
ATOM     15  C   UNL     1       6.024   4.375  18.450  0.00  0.00    +0.000 A 
ATOM     16  C   UNL     1       6.574   5.346  19.295  0.00  0.00    +0.000 A 
ATOM     17  C   UNL     1       7.327   6.381  18.768  0.00  0.00    +0.000 A 
ATOM     18  C   UNL     1       7.538   6.443  17.390  0.00  0.00    +0.000 A 
ATOM     19  C   UNL     1       7.041   5.501  16.507  0.00  0.00    +0.000 A 
ATOM     20  N   UNL     1       7.339   5.692  15.202  0.00  0.00    +0.000 NA
ENDBRANCH   9  15
ENDBRANCH   8   9
ENDBRANCH   7   8
ENDBRANCH   1   7
BRANCH   4  21
ATOM     21  C   UNL     1       1.562   8.371  17.970  0.00  0.00    +0.000 C 
BRANCH  21  22
ATOM     22  C   UNL     1       1.248   9.808  18.269  0.00  0.00    +0.000 A 
ATOM     23  C   UNL     1       0.067  10.145  18.951  0.00  0.00    +0.000 A 
ATOM     24  C   UNL     1      -0.189  11.466  19.304  0.00  0.00    +0.000 A 
ATOM     25  C   UNL     1       0.736  12.454  18.979  0.00  0.00    +0.000 A 
ATOM     26  C   UNL     1       1.917  12.118  18.309  0.00  0.00    +0.000 A 
ATOM     27  C   UNL     1       2.172  10.803  17.941  0.00  0.00    +0.000 A 
ATOM     28  N   UNL     1       2.884  13.088  18.058  0.00  0.00    +0.000 N 
ATOM     29  C   UNL     1       2.663  14.400  18.366  0.00  0.00    +0.000 C 
ATOM     30  O   UNL     1       3.540  15.248  18.223  0.00  0.00    +0.000 OA
ATOM     31  C   UNL     1       1.234  14.727  18.789  0.00  0.00    +0.000 C 
ATOM     32  O   UNL     1       0.447  13.721  19.409  0.00  0.00    +0.000 OA
ATOM     33  H   UNL     1       3.792  12.836  17.694  0.00  0.00    +0.000 HD
ENDBRANCH  21  22
ENDBRANCH   4  21
TORSDOF 6
ENDMDL
MODEL 3
REMARK VINA RESULT:      -8.1      3.670      5.732
REMARK  Name = 
REMARK  7 active torsions:
REMARK  status: ('A' for Active; 'I' for Inactive)
REMARK    1  A    between atoms: C_1  and  C_2
REMARK    2  A    between atoms: C_6  and  O_7
REMARK    3  A    between atoms: O_7  and  C_8
REMARK    4  A    between atoms: C_8  and  C_9
REMARK    5  A    between atoms: C_9  and  N_10
REMARK    6  A    between atoms: N_13  and  C_14
REMARK    7  A    between atoms: C_14  and  C_15
REMARK                            x       y       z     vdW  Elec       q    Type
REMARK                         _______ _______ _______ _____ _____    ______ ____
ROOT
ATOM      1  N   UNL     1       0.056  11.095  22.639  0.00  0.00    +0.000 NA
ATOM      2  C   UNL     1      -0.019   9.704  23.132  0.00  0.00    +0.000 C 
ATOM      3  C   UNL     1      -0.650   8.699  22.152  0.00  0.00    +0.000 C 
ATOM      4  N   UNL     1       0.050   8.677  20.853  0.00  0.00    +0.000 NA
ATOM      5  C   UNL     1      -0.028  10.050  20.304  0.00  0.00    +0.000 C 
ATOM      6  C   UNL     1       0.502  11.164  21.238  0.00  0.00    +0.000 C 
ENDROOT
BRANCH   1   7
ATOM      7  C   UNL     1      -1.136  11.918  22.951  0.00  0.00    +0.000 C 
BRANCH   7   8
ATOM      8  C   UNL     1      -2.076  11.753  21.754  0.00  0.00    +0.000 C 
BRANCH   8   9
ATOM      9  O   UNL     1      -2.337  12.807  20.863  0.00  0.00    +0.000 OA
BRANCH   9  15
ATOM     10  C   UNL     1      -3.594  10.151  14.674  0.00  0.00    +0.000 C 
ATOM     11  C   UNL     1      -3.450  10.777  16.027  0.00  0.00    +0.000 A 
ATOM     12  C   UNL     1      -2.203  10.996  16.557  0.00  0.00    +0.000 A 
ATOM     13  C   UNL     1      -2.127  11.550  17.829  0.00  0.00    +0.000 A 
ATOM     14  C   UNL     1      -3.275  11.913  18.614  0.00  0.00    +0.000 A 
ATOM     15  C   UNL     1      -3.361  12.494  19.959  0.00  0.00    +0.000 A 
ATOM     16  C   UNL     1      -4.605  12.811  20.514  0.00  0.00    +0.000 A 
ATOM     17  C   UNL     1      -5.769  12.545  19.813  0.00  0.00    +0.000 A 
ATOM     18  C   UNL     1      -5.689  11.965  18.546  0.00  0.00    +0.000 A 
ATOM     19  C   UNL     1      -4.488  11.650  17.934  0.00  0.00    +0.000 A 
ATOM     20  N   UNL     1      -4.573  11.102  16.701  0.00  0.00    +0.000 NA
ENDBRANCH   9  15
ENDBRANCH   8   9
ENDBRANCH   7   8
ENDBRANCH   1   7
BRANCH   4  21
ATOM     21  C   UNL     1       1.433   8.213  21.081  0.00  0.00    +0.000 C 
BRANCH  21  22
ATOM     22  C   UNL     1       1.974   7.280  20.037  0.00  0.00    +0.000 A 
ATOM     23  C   UNL     1       2.399   7.783  18.796  0.00  0.00    +0.000 A 
ATOM     24  C   UNL     1       2.977   6.936  17.856  0.00  0.00    +0.000 A 
ATOM     25  C   UNL     1       3.135   5.586  18.154  0.00  0.00    +0.000 A 
ATOM     26  C   UNL     1       2.721   5.087  19.393  0.00  0.00    +0.000 A 
ATOM     27  C   UNL     1       2.130   5.924  20.332  0.00  0.00    +0.000 A 
ATOM     28  N   UNL     1       2.955   3.756  19.730  0.00  0.00    +0.000 N 
ATOM     29  C   UNL     1       3.497   2.886  18.828  0.00  0.00    +0.000 C 
ATOM     30  O   UNL     1       3.781   1.733  19.142  0.00  0.00    +0.000 OA
ATOM     31  C   UNL     1       3.616   3.427  17.407  0.00  0.00    +0.000 C 
ATOM     32  O   UNL     1       3.765   4.824  17.207  0.00  0.00    +0.000 OA
ATOM     33  H   UNL     1       2.780   3.417  20.665  0.00  0.00    +0.000 HD
ENDBRANCH  21  22
ENDBRANCH   4  21
TORSDOF 6
ENDMDL
MODEL 4
REMARK VINA RESULT:      -8.1      2.210      9.096
REMARK  Name = 
REMARK  7 active torsions:
REMARK  status: ('A' for Active; 'I' for Inactive)
REMARK    1  A    between atoms: C_1  and  C_2
REMARK    2  A    between atoms: C_6  and  O_7
REMARK    3  A    between atoms: O_7  and  C_8
REMARK    4  A    between atoms: C_8  and  C_9
REMARK    5  A    between atoms: C_9  and  N_10
REMARK    6  A    between atoms: N_13  and  C_14
REMARK    7  A    between atoms: C_14  and  C_15
REMARK                            x       y       z     vdW  Elec       q    Type
REMARK                         _______ _______ _______ _____ _____    ______ ____
ROOT
ATOM      1  N   UNL     1       1.704   3.458  19.056  0.00  0.00    +0.000 NA
ATOM      2  C   UNL     1       1.514   3.751  20.492  0.00  0.00    +0.000 C 
ATOM      3  C   UNL     1       2.450   4.829  21.065  0.00  0.00    +0.000 C 
ATOM      4  N   UNL     1       2.344   6.104  20.331  0.00  0.00    +0.000 NA
ATOM      5  C   UNL     1       2.695   5.814  18.922  0.00  0.00    +0.000 C 
ATOM      6  C   UNL     1       1.874   4.683  18.258  0.00  0.00    +0.000 C 
ENDROOT
BRANCH   1   7
ATOM      7  C   UNL     1       2.694   2.393  18.776  0.00  0.00    +0.000 C 
BRANCH   7   8
ATOM      8  C   UNL     1       3.911   3.107  18.181  0.00  0.00    +0.000 C 
BRANCH   8   9
ATOM      9  O   UNL     1       5.034   3.435  18.957  0.00  0.00    +0.000 OA
BRANCH   9  15
ATOM     10  C   UNL     1       7.494   5.189  12.808  0.00  0.00    +0.000 C 
ATOM     11  C   UNL     1       7.055   4.885  14.208  0.00  0.00    +0.000 A 
ATOM     12  C   UNL     1       6.231   3.817  14.455  0.00  0.00    +0.000 A 
ATOM     13  C   UNL     1       5.828   3.599  15.767  0.00  0.00    +0.000 A 
ATOM     14  C   UNL     1       6.230   4.421  16.875  0.00  0.00    +0.000 A 
ATOM     15  C   UNL     1       5.890   4.329  18.299  0.00  0.00    +0.000 A 
ATOM     16  C   UNL     1       6.443   5.227  19.219  0.00  0.00    +0.000 A 
ATOM     17  C   UNL     1       7.289   6.234  18.786  0.00  0.00    +0.000 A 
ATOM     18  C   UNL     1       7.589   6.340  17.428  0.00  0.00    +0.000 A 
ATOM     19  C   UNL     1       7.093   5.470  16.474  0.00  0.00    +0.000 A 
ATOM     20  N   UNL     1       7.483   5.696  15.199  0.00  0.00    +0.000 NA
ENDBRANCH   9  15
ENDBRANCH   8   9
ENDBRANCH   7   8
ENDBRANCH   1   7
BRANCH   4  21
ATOM     21  C   UNL     1       0.972   6.622  20.500  0.00  0.00    +0.000 C 
BRANCH  21  22
ATOM     22  C   UNL     1       0.869   8.106  20.698  0.00  0.00    +0.000 A 
ATOM     23  C   UNL     1       0.603   8.630  21.974  0.00  0.00    +0.000 A 
ATOM     24  C   UNL     1       0.589  10.006  22.179  0.00  0.00    +0.000 A 
ATOM     25  C   UNL     1       0.843  10.862  21.112  0.00  0.00    +0.000 A 
ATOM     26  C   UNL     1       1.119  10.340  19.843  0.00  0.00    +0.000 A 
ATOM     27  C   UNL     1       1.120   8.968  19.628  0.00  0.00    +0.000 A 
ATOM     28  N   UNL     1       1.459  11.188  18.793  0.00  0.00    +0.000 N 
ATOM     29  C   UNL     1       1.433  12.545  18.945  0.00  0.00    +0.000 C 
ATOM     30  O   UNL     1       1.808  13.297  18.050  0.00  0.00    +0.000 OA
ATOM     31  C   UNL     1       0.812  13.031  20.251  0.00  0.00    +0.000 C 
ATOM     32  O   UNL     1       0.873  12.200  21.400  0.00  0.00    +0.000 OA
ATOM     33  H   UNL     1       1.784  10.820  17.911  0.00  0.00    +0.000 HD
ENDBRANCH  21  22
ENDBRANCH   4  21
TORSDOF 6
ENDMDL
MODEL 5
REMARK VINA RESULT:      -8.1      3.051     10.294
REMARK  Name = 
REMARK  7 active torsions:
REMARK  status: ('A' for Active; 'I' for Inactive)
REMARK    1  A    between atoms: C_1  and  C_2
REMARK    2  A    between atoms: C_6  and  O_7
REMARK    3  A    between atoms: O_7  and  C_8
REMARK    4  A    between atoms: C_8  and  C_9
REMARK    5  A    between atoms: C_9  and  N_10
REMARK    6  A    between atoms: N_13  and  C_14
REMARK    7  A    between atoms: C_14  and  C_15
REMARK                            x       y       z     vdW  Elec       q    Type
REMARK                         _______ _______ _______ _____ _____    ______ ____
ROOT
ATOM      1  N   UNL     1       2.557   7.488  19.106  0.00  0.00    +0.000 NA
ATOM      2  C   UNL     1       2.513   8.356  17.910  0.00  0.00    +0.000 C 
ATOM      3  C   UNL     1       1.179   9.089  17.687  0.00  0.00    +0.000 C 
ATOM      4  N   UNL     1       0.795   9.911  18.850  0.00  0.00    +0.000 NA
ATOM      5  C   UNL     1       0.689   8.991  20.005  0.00  0.00    +0.000 C 
ATOM      6  C   UNL     1       1.947   8.132  20.281  0.00  0.00    +0.000 C 
ENDROOT
BRANCH   1   7
ATOM      7  C   UNL     1       2.117   6.095  18.864  0.00  0.00    +0.000 C 
BRANCH   7   8
ATOM      8  C   UNL     1       3.191   5.208  19.503  0.00  0.00    +0.000 C 
BRANCH   8   9
ATOM      9  O   UNL     1       3.873   4.223  18.769  0.00  0.00    +0.000 OA
BRANCH   9  15
ATOM     10  C   UNL     1       7.568   5.079  13.064  0.00  0.00    +0.000 C 
ATOM     11  C   UNL     1       6.876   4.916  14.382  0.00  0.00    +0.000 A 
ATOM     12  C   UNL     1       5.647   4.310  14.446  0.00  0.00    +0.000 A 
ATOM     13  C   UNL     1       5.035   4.214  15.690  0.00  0.00    +0.000 A 
ATOM     14  C   UNL     1       5.619   4.703  16.909  0.00  0.00    +0.000 A 
ATOM     15  C   UNL     1       5.104   4.684  18.283  0.00  0.00    +0.000 A 
ATOM     16  C   UNL     1       5.878   5.185  19.336  0.00  0.00    +0.000 A 
ATOM     17  C   UNL     1       7.122   5.738  19.083  0.00  0.00    +0.000 A 
ATOM     18  C   UNL     1       7.599   5.783  17.773  0.00  0.00    +0.000 A 
ATOM     19  C   UNL     1       6.892   5.283  16.694  0.00  0.00    +0.000 A 
ATOM     20  N   UNL     1       7.491   5.390  15.487  0.00  0.00    +0.000 NA
ENDBRANCH   9  15
ENDBRANCH   8   9
ENDBRANCH   7   8
ENDBRANCH   1   7
BRANCH   4  21
ATOM     21  C   UNL     1       1.815  10.964  19.029  0.00  0.00    +0.000 C 
BRANCH  21  22
ATOM     22  C   UNL     1       1.311  12.371  18.893  0.00  0.00    +0.000 A 
ATOM     23  C   UNL     1      -0.050  12.610  18.642  0.00  0.00    +0.000 A 
ATOM     24  C   UNL     1      -0.538  13.913  18.597  0.00  0.00    +0.000 A 
ATOM     25  C   UNL     1       0.332  14.978  18.805  0.00  0.00    +0.000 A 
ATOM     26  C   UNL     1       1.685  14.740  19.066  0.00  0.00    +0.000 A 
ATOM     27  C   UNL     1       2.182  13.443  19.098  0.00  0.00    +0.000 A 
ATOM     28  N   UNL     1       2.542  15.797  19.361  0.00  0.00    +0.000 N 
ATOM     29  C   UNL     1       2.110  17.092  19.304  0.00  0.00    +0.000 C 
ATOM     30  O   UNL     1       2.835  18.024  19.640  0.00  0.00    +0.000 OA
ATOM     31  C   UNL     1       0.722  17.278  18.700  0.00  0.00    +0.000 C 
ATOM     32  O   UNL     1      -0.228  16.228  18.807  0.00  0.00    +0.000 OA
ATOM     33  H   UNL     1       3.487  15.630  19.677  0.00  0.00    +0.000 HD
ENDBRANCH  21  22
ENDBRANCH   4  21
TORSDOF 6
ENDMDL
MODEL 6
REMARK VINA RESULT:      -8.0      0.984      2.197
REMARK  Name = 
REMARK  7 active torsions:
REMARK  status: ('A' for Active; 'I' for Inactive)
REMARK    1  A    between atoms: C_1  and  C_2
REMARK    2  A    between atoms: C_6  and  O_7
REMARK    3  A    between atoms: O_7  and  C_8
REMARK    4  A    between atoms: C_8  and  C_9
REMARK    5  A    between atoms: C_9  and  N_10
REMARK    6  A    between atoms: N_13  and  C_14
REMARK    7  A    between atoms: C_14  and  C_15
REMARK                            x       y       z     vdW  Elec       q    Type
REMARK                         _______ _______ _______ _____ _____    ______ ____
ROOT
ATOM      1  N   UNL     1       2.480   6.487  20.327  0.00  0.00    +0.000 NA
ATOM      2  C   UNL     1       2.493   5.034  20.595  0.00  0.00    +0.000 C 
ATOM      3  C   UNL     1       1.949   4.157  19.453  0.00  0.00    +0.000 C 
ATOM      4  N   UNL     1       2.671   4.384  18.187  0.00  0.00    +0.000 NA
ATOM      5  C   UNL     1       2.509   5.819  17.856  0.00  0.00    +0.000 C 
ATOM      6  C   UNL     1       2.945   6.804  18.967  0.00  0.00    +0.000 C 
ENDROOT
BRANCH   1   7
ATOM      7  C   UNL     1       1.230   7.171  20.730  0.00  0.00    +0.000 C 
BRANCH   7   8
ATOM      8  C   UNL     1       1.414   8.638  20.329  0.00  0.00    +0.000 C 
BRANCH   8   9
ATOM      9  O   UNL     1       0.386   9.377  19.723  0.00  0.00    +0.000 OA
BRANCH   9  15
ATOM     10  C   UNL     1      -1.366  14.464  23.965  0.00  0.00    +0.000 C 
ATOM     11  C   UNL     1      -0.942  13.449  22.948  0.00  0.00    +0.000 A 
ATOM     12  C   UNL     1      -1.377  12.152  23.046  0.00  0.00    +0.000 A 
ATOM     13  C   UNL     1      -0.927  11.244  22.095  0.00  0.00    +0.000 A 
ATOM     14  C   UNL     1      -0.043  11.588  21.015  0.00  0.00    +0.000 A 
ATOM     15  C   UNL     1       0.521  10.754  19.947  0.00  0.00    +0.000 A 
ATOM     16  C   UNL     1       1.335  11.322  18.961  0.00  0.00    +0.000 A 
ATOM     17  C   UNL     1       1.645  12.671  19.007  0.00  0.00    +0.000 A 
ATOM     18  C   UNL     1       1.133  13.458  20.039  0.00  0.00    +0.000 A 
ATOM     19  C   UNL     1       0.304  12.960  21.029  0.00  0.00    +0.000 A 
ATOM     20  N   UNL     1      -0.120  13.849  21.955  0.00  0.00    +0.000 NA
ENDBRANCH   9  15
ENDBRANCH   8   9
ENDBRANCH   7   8
ENDBRANCH   1   7
BRANCH   4  21
ATOM     21  C   UNL     1       4.078   3.981  18.378  0.00  0.00    +0.000 C 
BRANCH  21  22
ATOM     22  C   UNL     1       5.019   4.412  17.290  0.00  0.00    +0.000 A 
ATOM     23  C   UNL     1       6.026   5.353  17.561  0.00  0.00    +0.000 A 
ATOM     24  C   UNL     1       6.951   5.694  16.580  0.00  0.00    +0.000 A 
ATOM     25  C   UNL     1       6.875   5.094  15.327  0.00  0.00    +0.000 A 
ATOM     26  C   UNL     1       5.879   4.148  15.060  0.00  0.00    +0.000 A 
ATOM     27  C   UNL     1       4.943   3.814  16.031  0.00  0.00    +0.000 A 
ATOM     28  N   UNL     1       5.851   3.482  13.838  0.00  0.00    +0.000 N 
ATOM     29  C   UNL     1       6.726   3.803  12.839  0.00  0.00    +0.000 C 
ATOM     30  O   UNL     1       6.761   3.166  11.790  0.00  0.00    +0.000 OA
ATOM     31  C   UNL     1       7.557   5.056  13.095  0.00  0.00    +0.000 C 
ATOM     32  O   UNL     1       7.853   5.431  14.431  0.00  0.00    +0.000 OA
ATOM     33  H   UNL     1       5.221   2.708  13.681  0.00  0.00    +0.000 HD
ENDBRANCH  21  22
ENDBRANCH   4  21
TORSDOF 6
ENDMDL
MODEL 7
REMARK VINA RESULT:      -8.0      2.718      9.598
REMARK  Name = 
REMARK  7 active torsions:
REMARK  status: ('A' for Active; 'I' for Inactive)
REMARK    1  A    between atoms: C_1  and  C_2
REMARK    2  A    between atoms: C_6  and  O_7
REMARK    3  A    between atoms: O_7  and  C_8
REMARK    4  A    between atoms: C_8  and  C_9
REMARK    5  A    between atoms: C_9  and  N_10
REMARK    6  A    between atoms: N_13  and  C_14
REMARK    7  A    between atoms: C_14  and  C_15
REMARK                            x       y       z     vdW  Elec       q    Type
REMARK                         _______ _______ _______ _____ _____    ______ ____
ROOT
ATOM      1  N   UNL     1       2.199   5.160  18.952  0.00  0.00    +0.000 NA
ATOM      2  C   UNL     1       1.684   6.334  19.688  0.00  0.00    +0.000 C 
ATOM      3  C   UNL     1       2.620   7.555  19.701  0.00  0.00    +0.000 C 
ATOM      4  N   UNL     1       2.972   8.000  18.339  0.00  0.00    +0.000 NA
ATOM      5  C   UNL     1       3.631   6.854  17.673  0.00  0.00    +0.000 C 
ATOM      6  C   UNL     1       2.818   5.537  17.671  0.00  0.00    +0.000 C 
ENDROOT
BRANCH   1   7
ATOM      7  C   UNL     1       2.999   4.226  19.777  0.00  0.00    +0.000 C 
BRANCH   7   8
ATOM      8  C   UNL     1       4.029   3.612  18.823  0.00  0.00    +0.000 C 
BRANCH   8   9
ATOM      9  O   UNL     1       5.395   3.553  19.143  0.00  0.00    +0.000 OA
BRANCH   9  15
ATOM     10  C   UNL     1       7.294   5.072  12.738  0.00  0.00    +0.000 C 
ATOM     11  C   UNL     1       6.978   4.826  14.181  0.00  0.00    +0.000 A 
ATOM     12  C   UNL     1       6.223   3.741  14.547  0.00  0.00    +0.000 A 
ATOM     13  C   UNL     1       5.932   3.578  15.896  0.00  0.00    +0.000 A 
ATOM     14  C   UNL     1       6.383   4.473  16.926  0.00  0.00    +0.000 A 
ATOM     15  C   UNL     1       6.158   4.444  18.376  0.00  0.00    +0.000 A 
ATOM     16  C   UNL     1       6.741   5.410  19.202  0.00  0.00    +0.000 A 
ATOM     17  C   UNL     1       7.507   6.425  18.653  0.00  0.00    +0.000 A 
ATOM     18  C   UNL     1       7.696   6.471  17.272  0.00  0.00    +0.000 A 
ATOM     19  C   UNL     1       7.165   5.532  16.405  0.00  0.00    +0.000 A 
ATOM     20  N   UNL     1       7.446   5.705  15.094  0.00  0.00    +0.000 NA
ENDBRANCH   9  15
ENDBRANCH   8   9
ENDBRANCH   7   8
ENDBRANCH   1   7
BRANCH   4  21
ATOM     21  C   UNL     1       1.735   8.439  17.663  0.00  0.00    +0.000 C 
BRANCH  21  22
ATOM     22  C   UNL     1       1.129   9.704  18.198  0.00  0.00    +0.000 A 
ATOM     23  C   UNL     1       1.931  10.840  18.396  0.00  0.00    +0.000 A 
ATOM     24  C   UNL     1       1.361  12.039  18.813  0.00  0.00    +0.000 A 
ATOM     25  C   UNL     1      -0.012  12.106  19.032  0.00  0.00    +0.000 A 
ATOM     26  C   UNL     1      -0.812  10.978  18.825  0.00  0.00    +0.000 A 
ATOM     27  C   UNL     1      -0.248   9.774  18.422  0.00  0.00    +0.000 A 
ATOM     28  N   UNL     1      -2.196  11.062  18.958  0.00  0.00    +0.000 N 
ATOM     29  C   UNL     1      -2.794  12.212  19.389  0.00  0.00    +0.000 C 
ATOM     30  O   UNL     1      -4.016  12.321  19.432  0.00  0.00    +0.000 OA
ATOM     31  C   UNL     1      -1.832  13.281  19.900  0.00  0.00    +0.000 C 
ATOM     32  O   UNL     1      -0.512  13.331  19.382  0.00  0.00    +0.000 OA
ATOM     33  H   UNL     1      -2.793  10.294  18.687  0.00  0.00    +0.000 HD
ENDBRANCH  21  22
ENDBRANCH   4  21
TORSDOF 6
ENDMDL
MODEL 8
REMARK VINA RESULT:      -8.0      1.340      2.282
REMARK  Name = 
REMARK  7 active torsions:
REMARK  status: ('A' for Active; 'I' for Inactive)
REMARK    1  A    between atoms: C_1  and  C_2
REMARK    2  A    between atoms: C_6  and  O_7
REMARK    3  A    between atoms: O_7  and  C_8
REMARK    4  A    between atoms: C_8  and  C_9
REMARK    5  A    between atoms: C_9  and  N_10
REMARK    6  A    between atoms: N_13  and  C_14
REMARK    7  A    between atoms: C_14  and  C_15
REMARK                            x       y       z     vdW  Elec       q    Type
REMARK                         _______ _______ _______ _____ _____    ______ ____
ROOT
ATOM      1  N   UNL     1       2.363   6.476  20.398  0.00  0.00    +0.000 NA
ATOM      2  C   UNL     1       2.442   5.039  20.733  0.00  0.00    +0.000 C 
ATOM      3  C   UNL     1       1.973   4.085  19.620  0.00  0.00    +0.000 C 
ATOM      4  N   UNL     1       2.713   4.293  18.361  0.00  0.00    +0.000 NA
ATOM      5  C   UNL     1       2.487   5.701  17.962  0.00  0.00    +0.000 C 
ATOM      6  C   UNL     1       2.845   6.756  19.036  0.00  0.00    +0.000 C 
ENDROOT
BRANCH   1   7
ATOM      7  C   UNL     1       1.070   7.112  20.742  0.00  0.00    +0.000 C 
BRANCH   7   8
ATOM      8  C   UNL     1       1.330   8.621  20.708  0.00  0.00    +0.000 C 
BRANCH   8   9
ATOM      9  O   UNL     1       1.198   9.371  19.528  0.00  0.00    +0.000 OA
BRANCH   9  15
ATOM     10  C   UNL     1      -3.014  12.928  23.595  0.00  0.00    +0.000 C 
ATOM     11  C   UNL     1      -2.189  12.162  22.607  0.00  0.00    +0.000 A 
ATOM     12  C   UNL     1      -1.134  11.397  23.035  0.00  0.00    +0.000 A 
ATOM     13  C   UNL     1      -0.382  10.733  22.073  0.00  0.00    +0.000 A 
ATOM     14  C   UNL     1      -0.650  10.797  20.663  0.00  0.00    +0.000 A 
ATOM     15  C   UNL     1       0.046  10.169  19.534  0.00  0.00    +0.000 A 
ATOM     16  C   UNL     1      -0.428  10.337  18.229  0.00  0.00    +0.000 A 
ATOM     17  C   UNL     1      -1.538  11.129  17.987  0.00  0.00    +0.000 A 
ATOM     18  C   UNL     1      -2.182  11.751  19.057  0.00  0.00    +0.000 A 
ATOM     19  C   UNL     1      -1.776  11.605  20.372  0.00  0.00    +0.000 A 
ATOM     20  N   UNL     1      -2.508  12.262  21.299  0.00  0.00    +0.000 NA
ENDBRANCH   9  15
ENDBRANCH   8   9
ENDBRANCH   7   8
ENDBRANCH   1   7
BRANCH   4  21
ATOM     21  C   UNL     1       4.134   3.972  18.603  0.00  0.00    +0.000 C 
BRANCH  21  22
ATOM     22  C   UNL     1       5.077   4.391  17.513  0.00  0.00    +0.000 A 
ATOM     23  C   UNL     1       6.147   5.255  17.800  0.00  0.00    +0.000 A 
ATOM     24  C   UNL     1       7.072   5.581  16.813  0.00  0.00    +0.000 A 
ATOM     25  C   UNL     1       6.931   5.044  15.537  0.00  0.00    +0.000 A 
ATOM     26  C   UNL     1       5.871   4.176  15.253  0.00  0.00    +0.000 A 
ATOM     27  C   UNL     1       4.936   3.857  16.230  0.00  0.00    +0.000 A 
ATOM     28  N   UNL     1       5.775   3.568  14.004  0.00  0.00    +0.000 N 
ATOM     29  C   UNL     1       6.647   3.878  12.999  0.00  0.00    +0.000 C 
ATOM     30  O   UNL     1       6.619   3.289  11.923  0.00  0.00    +0.000 OA
ATOM     31  C   UNL     1       7.562   5.064  13.290  0.00  0.00    +0.000 C 
ATOM     32  O   UNL     1       7.910   5.359  14.634  0.00  0.00    +0.000 OA
ATOM     33  H   UNL     1       5.093   2.843  13.829  0.00  0.00    +0.000 HD
ENDBRANCH  21  22
ENDBRANCH   4  21
TORSDOF 6
ENDMDL
MODEL 9
REMARK VINA RESULT:      -7.9      3.673     11.851
REMARK  Name = 
REMARK  7 active torsions:
REMARK  status: ('A' for Active; 'I' for Inactive)
REMARK    1  A    between atoms: C_1  and  C_2
REMARK    2  A    between atoms: C_6  and  O_7
REMARK    3  A    between atoms: O_7  and  C_8
REMARK    4  A    between atoms: C_8  and  C_9
REMARK    5  A    between atoms: C_9  and  N_10
REMARK    6  A    between atoms: N_13  and  C_14
REMARK    7  A    between atoms: C_14  and  C_15
REMARK                            x       y       z     vdW  Elec       q    Type
REMARK                         _______ _______ _______ _____ _____    ______ ____
ROOT
ATOM      1  N   UNL     1       1.361  10.578  19.200  0.00  0.00    +0.000 NA
ATOM      2  C   UNL     1       1.180  12.039  19.064  0.00  0.00    +0.000 C 
ATOM      3  C   UNL     1      -0.215  12.480  18.588  0.00  0.00    +0.000 C 
ATOM      4  N   UNL     1      -1.287  11.978  19.468  0.00  0.00    +0.000 NA
ATOM      5  C   UNL     1      -1.185  10.500  19.463  0.00  0.00    +0.000 C 
ATOM      6  C   UNL     1       0.205   9.934  19.844  0.00  0.00    +0.000 C 
ENDROOT
BRANCH   1   7
ATOM      7  C   UNL     1       1.840   9.906  17.971  0.00  0.00    +0.000 C 
BRANCH   7   8
ATOM      8  C   UNL     1       1.695   8.405  18.239  0.00  0.00    +0.000 C 
BRANCH   8   9
ATOM      9  O   UNL     1       2.578   7.712  19.083  0.00  0.00    +0.000 OA
BRANCH   9  15
ATOM     10  C   UNL     1       6.297   4.045  14.648  0.00  0.00    +0.000 C 
ATOM     11  C   UNL     1       5.407   4.733  15.637  0.00  0.00    +0.000 A 
ATOM     12  C   UNL     1       5.397   6.102  15.721  0.00  0.00    +0.000 A 
ATOM     13  C   UNL     1       4.577   6.689  16.677  0.00  0.00    +0.000 A 
ATOM     14  C   UNL     1       3.736   5.945  17.574  0.00  0.00    +0.000 A 
ATOM     15  C   UNL     1       2.829   6.409  18.631  0.00  0.00    +0.000 A 
ATOM     16  C   UNL     1       2.064   5.492  19.359  0.00  0.00    +0.000 A 
ATOM     17  C   UNL     1       2.183   4.135  19.114  0.00  0.00    +0.000 A 
ATOM     18  C   UNL     1       3.067   3.692  18.130  0.00  0.00    +0.000 A 
ATOM     19  C   UNL     1       3.833   4.549  17.360  0.00  0.00    +0.000 A 
ATOM     20  N   UNL     1       4.635   3.969  16.439  0.00  0.00    +0.000 NA
ENDBRANCH   9  15
ENDBRANCH   8   9
ENDBRANCH   7   8
ENDBRANCH   1   7
BRANCH   4  21
ATOM     21  C   UNL     1      -1.103  12.573  20.807  0.00  0.00    +0.000 C 
BRANCH  21  22
ATOM     22  C   UNL     1      -2.311  13.264  21.369  0.00  0.00    +0.000 A 
ATOM     23  C   UNL     1      -2.522  14.630  21.118  0.00  0.00    +0.000 A 
ATOM     24  C   UNL     1      -3.682  15.256  21.567  0.00  0.00    +0.000 A 
ATOM     25  C   UNL     1      -4.633  14.518  22.265  0.00  0.00    +0.000 A 
ATOM     26  C   UNL     1      -4.427  13.156  22.506  0.00  0.00    +0.000 A 
ATOM     27  C   UNL     1      -3.266  12.528  22.074  0.00  0.00    +0.000 A 
ATOM     28  N   UNL     1      -5.414  12.395  23.128  0.00  0.00    +0.000 N 
ATOM     29  C   UNL     1      -6.555  12.974  23.605  0.00  0.00    +0.000 C 
ATOM     30  O   UNL     1      -7.464  12.300  24.082  0.00  0.00    +0.000 OA
ATOM     31  C   UNL     1      -6.553  14.500  23.593  0.00  0.00    +0.000 C 
ATOM     32  O   UNL     1      -5.774  15.184  22.623  0.00  0.00    +0.000 OA
ATOM     33  H   UNL     1      -5.334  11.390  23.192  0.00  0.00    +0.000 HD
ENDBRANCH  21  22
ENDBRANCH   4  21
TORSDOF 6
ENDMDL
