MODEL 1
REMARK VINA RESULT:      -8.6      0.000      0.000
REMARK  Name = 
REMARK  8 active torsions:
REMARK  status: ('A' for Active; 'I' for Inactive)
REMARK    1  A    between atoms: C_1  and  C_2
REMARK    2  A    between atoms: C_5  and  N_6
REMARK    3  A    between atoms: C_7  and  C_9
REMARK    4  A    between atoms: C_12  and  C_13
REMARK    5  A    between atoms: C_13  and  N_14
REMARK    6  A    between atoms: N_18  and  C_19
REMARK    7  A    between atoms: C_19  and  C_20
REMARK    8  A    between atoms: C_31  and  C_32
REMARK                            x       y       z     vdW  Elec       q    Type
REMARK                         _______ _______ _______ _____ _____    ______ ____
ROOT
ATOM      1  C   UNL     1       7.726   7.933  17.993  0.00  0.00    +0.000 A 
ATOM      2  C   UNL     1       8.213   6.902  18.800  0.00  0.00    +0.000 A 
ATOM      3  C   UNL     1       7.734   5.602  18.625  0.00  0.00    +0.000 A 
ATOM      4  C   UNL     1       6.735   5.320  17.676  0.00  0.00    +0.000 A 
ATOM      5  C   UNL     1       6.258   6.365  16.871  0.00  0.00    +0.000 A 
ATOM      6  C   UNL     1       6.742   7.663  17.034  0.00  0.00    +0.000 A 
ENDROOT
BRANCH   1   8
ATOM      7  N   UNL     1       9.178   9.521  19.100  0.00  0.00    +0.000 N 
ATOM      8  C   UNL     1       8.193   9.332  18.144  0.00  0.00    +0.000 C 
ATOM      9  O   UNL     1       7.705  10.173  17.401  0.00  0.00    +0.000 OA
ATOM     10  H   UNL     1       9.542   8.705  19.563  0.00  0.00    +0.000 HD
BRANCH   7  15
ATOM     11  C   UNL     1      11.734  14.548  20.156  0.00  0.00    +0.000 C 
ATOM     12  C   UNL     1      11.111  13.210  19.869  0.00  0.00    +0.000 A 
ATOM     13  C   UNL     1      10.328  12.605  20.860  0.00  0.00    +0.000 A 
ATOM     14  C   UNL     1       9.703  11.380  20.634  0.00  0.00    +0.000 A 
ATOM     15  C   UNL     1       9.825  10.739  19.406  0.00  0.00    +0.000 A 
ATOM     16  C   UNL     1      10.637  11.323  18.424  0.00  0.00    +0.000 A 
ATOM     17  C   UNL     1      11.284  12.553  18.639  0.00  0.00    +0.000 A 
ATOM     18  C   UNL     1      12.147  13.146  17.559  0.00  0.00    +0.000 C 
ENDBRANCH   7  15
ENDBRANCH   1   8
BRANCH   4  19
ATOM     19  C   UNL     1       6.122   3.927  17.586  0.00  0.00    +0.000 C 
BRANCH  19  20
ATOM     20  N   UNL     1       4.782   3.761  18.214  0.00  0.00    +0.000 NA
ATOM     21  C   UNL     1       3.741   3.639  17.186  0.00  0.00    +0.000 C 
ATOM     22  C   UNL     1       2.348   3.138  17.580  0.00  0.00    +0.000 C 
ATOM     23  C   UNL     1       1.555   3.817  18.697  0.00  0.00    +0.000 C 
ATOM     24  N   UNL     1       2.026   5.076  19.258  0.00  0.00    +0.000 NA
ATOM     25  C   UNL     1       3.264   4.836  20.012  0.00  0.00    +0.000 C 
ATOM     26  C   UNL     1       4.569   4.831  19.206  0.00  0.00    +0.000 C 
BRANCH  24  27
ATOM     27  C   UNL     1       2.087   6.228  18.339  0.00  0.00    +0.000 C 
BRANCH  27  28
ATOM     28  C   UNL     1       2.725   7.501  18.944  0.00  0.00    +0.000 C 
ATOM     29  C   UNL     1       2.741   8.662  17.946  0.00  0.00    +0.000 C 
ATOM     30  C   UNL     1       1.332   9.168  17.642  0.00  0.00    +0.000 C 
ATOM     31  C   UNL     1       0.599   9.606  18.905  0.00  0.00    +0.000 C 
ATOM     32  C   UNL     1       0.654   8.585  20.042  0.00  0.00    +0.000 C 
ATOM     33  C   UNL     1       2.031   7.955  20.243  0.00  0.00    +0.000 C 
ENDBRANCH  27  28
ENDBRANCH  24  27
ENDBRANCH  19  20
ENDBRANCH   4  19
TORSDOF 6
ENDMDL
MODEL 2
REMARK VINA RESULT:      -8.2      5.581     10.202
REMARK  Name = 
REMARK  8 active torsions:
REMARK  status: ('A' for Active; 'I' for Inactive)
REMARK    1  A    between atoms: C_1  and  C_2
REMARK    2  A    between atoms: C_5  and  N_6
REMARK    3  A    between atoms: C_7  and  C_9
REMARK    4  A    between atoms: C_12  and  C_13
REMARK    5  A    between atoms: C_13  and  N_14
REMARK    6  A    between atoms: N_18  and  C_19
REMARK    7  A    between atoms: C_19  and  C_20
REMARK    8  A    between atoms: C_31  and  C_32
REMARK                            x       y       z     vdW  Elec       q    Type
REMARK                         _______ _______ _______ _____ _____    ______ ____
ROOT
ATOM      1  C   UNL     1       0.905   9.459  19.894  0.00  0.00    +0.000 A 
ATOM      2  C   UNL     1       0.269   8.724  20.896  0.00  0.00    +0.000 A 
ATOM      3  C   UNL     1      -0.469   9.388  21.877  0.00  0.00    +0.000 A 
ATOM      4  C   UNL     1      -0.547  10.792  21.899  0.00  0.00    +0.000 A 
ATOM      5  C   UNL     1       0.095  11.517  20.883  0.00  0.00    +0.000 A 
ATOM      6  C   UNL     1       0.824  10.856  19.894  0.00  0.00    +0.000 A 
ENDROOT
BRANCH   1   8
ATOM      7  N   UNL     1       2.280   7.594  19.194  0.00  0.00    +0.000 N 
ATOM      8  C   UNL     1       1.710   8.804  18.834  0.00  0.00    +0.000 C 
ATOM      9  O   UNL     1       1.768   9.359  17.745  0.00  0.00    +0.000 OA
ATOM     10  H   UNL     1       2.057   7.226  20.104  0.00  0.00    +0.000 HD
BRANCH   7  15
ATOM     11  C   UNL     1       5.211   4.083  15.732  0.00  0.00    +0.000 C 
ATOM     12  C   UNL     1       4.455   4.971  16.679  0.00  0.00    +0.000 A 
ATOM     13  C   UNL     1       4.816   6.321  16.769  0.00  0.00    +0.000 A 
ATOM     14  C   UNL     1       4.127   7.195  17.609  0.00  0.00    +0.000 A 
ATOM     15  C   UNL     1       3.047   6.748  18.363  0.00  0.00    +0.000 A 
ATOM     16  C   UNL     1       2.706   5.390  18.303  0.00  0.00    +0.000 A 
ATOM     17  C   UNL     1       3.397   4.493  17.470  0.00  0.00    +0.000 A 
ATOM     18  C   UNL     1       2.998   3.042  17.436  0.00  0.00    +0.000 C 
ENDBRANCH   7  15
ENDBRANCH   1   8
BRANCH   4  19
ATOM     19  C   UNL     1      -1.241  11.513  23.048  0.00  0.00    +0.000 C 
BRANCH  19  20
ATOM     20  N   UNL     1      -2.098  12.673  22.671  0.00  0.00    +0.000 NA
ATOM     21  C   UNL     1      -3.126  12.909  23.693  0.00  0.00    +0.000 C 
ATOM     22  C   UNL     1      -3.903  14.228  23.687  0.00  0.00    +0.000 C 
ATOM     23  C   UNL     1      -4.645  14.698  22.435  0.00  0.00    +0.000 C 
ATOM     24  N   UNL     1      -4.793  13.798  21.300  0.00  0.00    +0.000 NA
ATOM     25  C   UNL     1      -3.478  13.580  20.681  0.00  0.00    +0.000 C 
ATOM     26  C   UNL     1      -2.602  12.484  21.299  0.00  0.00    +0.000 C 
BRANCH  24  27
ATOM     27  C   UNL     1      -5.569  12.565  21.530  0.00  0.00    +0.000 C 
BRANCH  27  28
ATOM     28  C   UNL     1      -6.981  12.566  20.899  0.00  0.00    +0.000 C 
ATOM     29  C   UNL     1      -6.960  13.080  19.455  0.00  0.00    +0.000 C 
ATOM     30  C   UNL     1      -6.232  12.115  18.520  0.00  0.00    +0.000 C 
ATOM     31  C   UNL     1      -6.851  10.721  18.545  0.00  0.00    +0.000 C 
ATOM     32  C   UNL     1      -7.072  10.165  19.952  0.00  0.00    +0.000 C 
ATOM     33  C   UNL     1      -7.651  11.179  20.935  0.00  0.00    +0.000 C 
ENDBRANCH  27  28
ENDBRANCH  24  27
ENDBRANCH  19  20
ENDBRANCH   4  19
TORSDOF 6
ENDMDL
MODEL 3
REMARK VINA RESULT:      -8.2      0.414      1.508
REMARK  Name = 
REMARK  8 active torsions:
REMARK  status: ('A' for Active; 'I' for Inactive)
REMARK    1  A    between atoms: C_1  and  C_2
REMARK    2  A    between atoms: C_5  and  N_6
REMARK    3  A    between atoms: C_7  and  C_9
REMARK    4  A    between atoms: C_12  and  C_13
REMARK    5  A    between atoms: C_13  and  N_14
REMARK    6  A    between atoms: N_18  and  C_19
REMARK    7  A    between atoms: C_19  and  C_20
REMARK    8  A    between atoms: C_31  and  C_32
REMARK                            x       y       z     vdW  Elec       q    Type
REMARK                         _______ _______ _______ _____ _____    ______ ____
ROOT
ATOM      1  C   UNL     1       7.603   7.996  17.993  0.00  0.00    +0.000 A 
ATOM      2  C   UNL     1       6.535   7.681  17.150  0.00  0.00    +0.000 A 
ATOM      3  C   UNL     1       6.021   6.382  17.141  0.00  0.00    +0.000 A 
ATOM      4  C   UNL     1       6.591   5.372  17.936  0.00  0.00    +0.000 A 
ATOM      5  C   UNL     1       7.662   5.704  18.780  0.00  0.00    +0.000 A 
ATOM      6  C   UNL     1       8.170   7.004  18.801  0.00  0.00    +0.000 A 
ENDROOT
BRANCH   1   8
ATOM      7  N   UNL     1       9.091   9.575  19.064  0.00  0.00    +0.000 N 
ATOM      8  C   UNL     1       8.192   9.356  18.034  0.00  0.00    +0.000 C 
ATOM      9  O   UNL     1       7.867  10.138  17.150  0.00  0.00    +0.000 OA
ATOM     10  H   UNL     1       9.322   8.794  19.655  0.00  0.00    +0.000 HD
BRANCH   7  15
ATOM     11  C   UNL     1      12.084  14.328  20.229  0.00  0.00    +0.000 C 
ATOM     12  C   UNL     1      11.257  13.112  19.919  0.00  0.00    +0.000 A 
ATOM     13  C   UNL     1      11.630  12.302  18.840  0.00  0.00    +0.000 A 
ATOM     14  C   UNL     1      10.915  11.146  18.528  0.00  0.00    +0.000 A 
ATOM     15  C   UNL     1       9.825  10.759  19.299  0.00  0.00    +0.000 A 
ATOM     16  C   UNL     1       9.426  11.586  20.359  0.00  0.00    +0.000 A 
ATOM     17  C   UNL     1      10.129  12.761  20.679  0.00  0.00    +0.000 A 
ATOM     18  C   UNL     1       9.668  13.622  21.824  0.00  0.00    +0.000 C 
ENDBRANCH   7  15
ENDBRANCH   1   8
BRANCH   4  19
ATOM     19  C   UNL     1       6.114   3.930  17.818  0.00  0.00    +0.000 C 
BRANCH  19  20
ATOM     20  N   UNL     1       4.752   3.647  18.353  0.00  0.00    +0.000 NA
ATOM     21  C   UNL     1       3.782   3.526  17.257  0.00  0.00    +0.000 C 
ATOM     22  C   UNL     1       2.403   2.921  17.535  0.00  0.00    +0.000 C 
ATOM     23  C   UNL     1       1.506   3.483  18.638  0.00  0.00    +0.000 C 
ATOM     24  N   UNL     1       1.864   4.731  19.298  0.00  0.00    +0.000 NA
ATOM     25  C   UNL     1       3.068   4.520  20.112  0.00  0.00    +0.000 C 
ATOM     26  C   UNL     1       4.415   4.640  19.389  0.00  0.00    +0.000 C 
BRANCH  24  27
ATOM     27  C   UNL     1       1.906   5.939  18.451  0.00  0.00    +0.000 C 
BRANCH  27  28
ATOM     28  C   UNL     1       2.692   7.123  19.059  0.00  0.00    +0.000 C 
ATOM     29  C   UNL     1       2.949   8.227  18.029  0.00  0.00    +0.000 C 
ATOM     30  C   UNL     1       1.657   8.928  17.613  0.00  0.00    +0.000 C 
ATOM     31  C   UNL     1       0.922   9.524  18.810  0.00  0.00    +0.000 C 
ATOM     32  C   UNL     1       0.748   8.553  19.978  0.00  0.00    +0.000 C 
ATOM     33  C   UNL     1       1.995   7.731  20.292  0.00  0.00    +0.000 C 
ENDBRANCH  27  28
ENDBRANCH  24  27
ENDBRANCH  19  20
ENDBRANCH   4  19
TORSDOF 6
ENDMDL
MODEL 4
REMARK VINA RESULT:      -8.1      5.642     10.158
REMARK  Name = 
REMARK  8 active torsions:
REMARK  status: ('A' for Active; 'I' for Inactive)
REMARK    1  A    between atoms: C_1  and  C_2
REMARK    2  A    between atoms: C_5  and  N_6
REMARK    3  A    between atoms: C_7  and  C_9
REMARK    4  A    between atoms: C_12  and  C_13
REMARK    5  A    between atoms: C_13  and  N_14
REMARK    6  A    between atoms: N_18  and  C_19
REMARK    7  A    between atoms: C_19  and  C_20
REMARK    8  A    between atoms: C_31  and  C_32
REMARK                            x       y       z     vdW  Elec       q    Type
REMARK                         _______ _______ _______ _____ _____    ______ ____
ROOT
ATOM      1  C   UNL     1      -0.966  11.279  21.867  0.00  0.00    +0.000 A 
ATOM      2  C   UNL     1      -0.469  10.905  20.617  0.00  0.00    +0.000 A 
ATOM      3  C   UNL     1       0.341   9.773  20.506  0.00  0.00    +0.000 A 
ATOM      4  C   UNL     1       0.701   9.025  21.642  0.00  0.00    +0.000 A 
ATOM      5  C   UNL     1       0.191   9.412  22.891  0.00  0.00    +0.000 A 
ATOM      6  C   UNL     1      -0.628  10.536  23.004  0.00  0.00    +0.000 A 
ENDROOT
BRANCH   1   8
ATOM      7  N   UNL     1      -2.162  12.770  23.353  0.00  0.00    +0.000 N 
ATOM      8  C   UNL     1      -1.821  12.478  22.042  0.00  0.00    +0.000 C 
ATOM      9  O   UNL     1      -2.113  13.114  21.038  0.00  0.00    +0.000 OA
ATOM     10  H   UNL     1      -1.760  12.199  24.077  0.00  0.00    +0.000 HD
BRANCH   7  15
ATOM     11  C   UNL     1      -5.099  17.393  25.057  0.00  0.00    +0.000 C 
ATOM     12  C   UNL     1      -4.314  16.175  24.660  0.00  0.00    +0.000 A 
ATOM     13  C   UNL     1      -4.983  15.119  24.028  0.00  0.00    +0.000 A 
ATOM     14  C   UNL     1      -4.296  13.980  23.612  0.00  0.00    +0.000 A 
ATOM     15  C   UNL     1      -2.921  13.876  23.795  0.00  0.00    +0.000 A 
ATOM     16  C   UNL     1      -2.254  14.914  24.459  0.00  0.00    +0.000 A 
ATOM     17  C   UNL     1      -2.933  16.065  24.896  0.00  0.00    +0.000 A 
ATOM     18  C   UNL     1      -2.179  17.157  25.606  0.00  0.00    +0.000 C 
ENDBRANCH   7  15
ENDBRANCH   1   8
BRANCH   4  19
ATOM     19  C   UNL     1       1.692   7.874  21.530  0.00  0.00    +0.000 C 
BRANCH  19  20
ATOM     20  N   UNL     1       1.569   7.020  20.315  0.00  0.00    +0.000 NA
ATOM     21  C   UNL     1       1.960   5.637  20.614  0.00  0.00    +0.000 C 
ATOM     22  C   UNL     1       1.607   4.524  19.623  0.00  0.00    +0.000 C 
ATOM     23  C   UNL     1       2.023   4.617  18.155  0.00  0.00    +0.000 C 
ATOM     24  N   UNL     1       2.940   5.666  17.727  0.00  0.00    +0.000 NA
ATOM     25  C   UNL     1       2.265   6.967  17.824  0.00  0.00    +0.000 C 
ATOM     26  C   UNL     1       2.290   7.653  19.196  0.00  0.00    +0.000 C 
BRANCH  24  27
ATOM     27  C   UNL     1       4.295   5.638  18.309  0.00  0.00    +0.000 C 
BRANCH  27  28
ATOM     28  C   UNL     1       5.349   6.454  17.524  0.00  0.00    +0.000 C 
ATOM     29  C   UNL     1       6.778   6.103  17.953  0.00  0.00    +0.000 C 
ATOM     30  C   UNL     1       7.159   4.681  17.546  0.00  0.00    +0.000 C 
ATOM     31  C   UNL     1       7.020   4.461  16.043  0.00  0.00    +0.000 C 
ATOM     32  C   UNL     1       5.683   4.929  15.467  0.00  0.00    +0.000 C 
ATOM     33  C   UNL     1       5.219   6.283  15.998  0.00  0.00    +0.000 C 
ENDBRANCH  27  28
ENDBRANCH  24  27
ENDBRANCH  19  20
ENDBRANCH   4  19
TORSDOF 6
ENDMDL
MODEL 5
REMARK VINA RESULT:      -8.0      4.504      6.975
REMARK  Name = 
REMARK  8 active torsions:
REMARK  status: ('A' for Active; 'I' for Inactive)
REMARK    1  A    between atoms: C_1  and  C_2
REMARK    2  A    between atoms: C_5  and  N_6
REMARK    3  A    between atoms: C_7  and  C_9
REMARK    4  A    between atoms: C_12  and  C_13
REMARK    5  A    between atoms: C_13  and  N_14
REMARK    6  A    between atoms: N_18  and  C_19
REMARK    7  A    between atoms: C_19  and  C_20
REMARK    8  A    between atoms: C_31  and  C_32
REMARK                            x       y       z     vdW  Elec       q    Type
REMARK                         _______ _______ _______ _____ _____    ______ ____
ROOT
ATOM      1  C   UNL     1       0.989   9.654  19.554  0.00  0.00    +0.000 A 
ATOM      2  C   UNL     1       1.886   8.871  18.824  0.00  0.00    +0.000 A 
ATOM      3  C   UNL     1       2.174   7.572  19.249  0.00  0.00    +0.000 A 
ATOM      4  C   UNL     1       1.609   7.053  20.428  0.00  0.00    +0.000 A 
ATOM      5  C   UNL     1       0.708   7.851  21.149  0.00  0.00    +0.000 A 
ATOM      6  C   UNL     1       0.408   9.145  20.721  0.00  0.00    +0.000 A 
ENDROOT
BRANCH   1   8
ATOM      7  N   UNL     1       1.555  12.007  19.577  0.00  0.00    +0.000 N 
ATOM      8  C   UNL     1       0.656  11.042  19.153  0.00  0.00    +0.000 C 
ATOM      9  O   UNL     1      -0.343  11.205  18.464  0.00  0.00    +0.000 OA
ATOM     10  H   UNL     1       2.382  11.695  20.057  0.00  0.00    +0.000 HD
BRANCH   7  15
ATOM     11  C   UNL     1       1.357  17.573  18.203  0.00  0.00    +0.000 C 
ATOM     12  C   UNL     1       1.456  16.123  18.584  0.00  0.00    +0.000 A 
ATOM     13  C   UNL     1       0.456  15.569  19.394  0.00  0.00    +0.000 A 
ATOM     14  C   UNL     1       0.484  14.223  19.750  0.00  0.00    +0.000 A 
ATOM     15  C   UNL     1       1.498  13.389  19.290  0.00  0.00    +0.000 A 
ATOM     16  C   UNL     1       2.520  13.947  18.510  0.00  0.00    +0.000 A 
ATOM     17  C   UNL     1       2.514  15.306  18.150  0.00  0.00    +0.000 A 
ATOM     18  C   UNL     1       3.631  15.865  17.311  0.00  0.00    +0.000 C 
ENDBRANCH   7  15
ENDBRANCH   1   8
BRANCH   4  19
ATOM     19  C   UNL     1       2.034   5.688  20.956  0.00  0.00    +0.000 C 
BRANCH  19  20
ATOM     20  N   UNL     1       1.971   4.562  19.982  0.00  0.00    +0.000 NA
ATOM     21  C   UNL     1       2.941   3.519  20.336  0.00  0.00    +0.000 C 
ATOM     22  C   UNL     1       2.833   2.137  19.683  0.00  0.00    +0.000 C 
ATOM     23  C   UNL     1       2.808   1.987  18.162  0.00  0.00    +0.000 C 
ATOM     24  N   UNL     1       3.095   3.137  17.315  0.00  0.00    +0.000 NA
ATOM     25  C   UNL     1       2.003   4.111  17.435  0.00  0.00    +0.000 C 
ATOM     26  C   UNL     1       2.084   5.092  18.611  0.00  0.00    +0.000 C 
BRANCH  24  27
ATOM     27  C   UNL     1       4.446   3.720  17.427  0.00  0.00    +0.000 C 
BRANCH  27  28
ATOM     28  C   UNL     1       4.920   4.491  16.173  0.00  0.00    +0.000 C 
ATOM     29  C   UNL     1       4.832   6.008  16.368  0.00  0.00    +0.000 C 
ATOM     30  C   UNL     1       5.839   6.506  17.405  0.00  0.00    +0.000 C 
ATOM     31  C   UNL     1       7.270   6.132  17.033  0.00  0.00    +0.000 C 
ATOM     32  C   UNL     1       7.451   4.661  16.657  0.00  0.00    +0.000 C 
ATOM     33  C   UNL     1       6.352   4.115  15.748  0.00  0.00    +0.000 C 
ENDBRANCH  27  28
ENDBRANCH  24  27
ENDBRANCH  19  20
ENDBRANCH   4  19
TORSDOF 6
ENDMDL
MODEL 6
REMARK VINA RESULT:      -8.0      6.480     11.280
REMARK  Name = 
REMARK  8 active torsions:
REMARK  status: ('A' for Active; 'I' for Inactive)
REMARK    1  A    between atoms: C_1  and  C_2
REMARK    2  A    between atoms: C_5  and  N_6
REMARK    3  A    between atoms: C_7  and  C_9
REMARK    4  A    between atoms: C_12  and  C_13
REMARK    5  A    between atoms: C_13  and  N_14
REMARK    6  A    between atoms: N_18  and  C_19
REMARK    7  A    between atoms: C_19  and  C_20
REMARK    8  A    between atoms: C_31  and  C_32
REMARK                            x       y       z     vdW  Elec       q    Type
REMARK                         _______ _______ _______ _____ _____    ______ ____
ROOT
ATOM      1  C   UNL     1       0.945   9.073  20.799  0.00  0.00    +0.000 A 
ATOM      2  C   UNL     1       0.685  10.311  20.208  0.00  0.00    +0.000 A 
ATOM      3  C   UNL     1       0.038  11.306  20.944  0.00  0.00    +0.000 A 
ATOM      4  C   UNL     1      -0.398  11.066  22.259  0.00  0.00    +0.000 A 
ATOM      5  C   UNL     1      -0.128   9.818  22.840  0.00  0.00    +0.000 A 
ATOM      6  C   UNL     1       0.530   8.825  22.112  0.00  0.00    +0.000 A 
ENDROOT
BRANCH   1   8
ATOM      7  N   UNL     1       1.596   6.744  20.686  0.00  0.00    +0.000 N 
ATOM      8  C   UNL     1       1.620   7.979  20.059  0.00  0.00    +0.000 C 
ATOM      9  O   UNL     1       2.097   8.249  18.964  0.00  0.00    +0.000 OA
ATOM     10  H   UNL     1       1.077   6.668  21.545  0.00  0.00    +0.000 HD
BRANCH   7  15
ATOM     11  C   UNL     1       3.577   1.843  18.458  0.00  0.00    +0.000 C 
ATOM     12  C   UNL     1       3.036   3.100  19.080  0.00  0.00    +0.000 A 
ATOM     13  C   UNL     1       3.931   4.118  19.429  0.00  0.00    +0.000 A 
ATOM     14  C   UNL     1       3.479   5.315  19.980  0.00  0.00    +0.000 A 
ATOM     15  C   UNL     1       2.120   5.535  20.177  0.00  0.00    +0.000 A 
ATOM     16  C   UNL     1       1.223   4.504  19.863  0.00  0.00    +0.000 A 
ATOM     17  C   UNL     1       1.663   3.286  19.317  0.00  0.00    +0.000 A 
ATOM     18  C   UNL     1       0.668   2.205  18.994  0.00  0.00    +0.000 C 
ENDBRANCH   7  15
ENDBRANCH   1   8
BRANCH   4  19
ATOM     19  C   UNL     1      -1.223  12.108  23.005  0.00  0.00    +0.000 C 
BRANCH  19  20
ATOM     20  N   UNL     1      -2.680  12.134  22.694  0.00  0.00    +0.000 NA
ATOM     21  C   UNL     1      -2.926  12.840  21.431  0.00  0.00    +0.000 C 
ATOM     22  C   UNL     1      -4.291  12.711  20.749  0.00  0.00    +0.000 C 
ATOM     23  C   UNL     1      -5.580  13.037  21.504  0.00  0.00    +0.000 C 
ATOM     24  N   UNL     1      -5.513  13.674  22.812  0.00  0.00    +0.000 NA
ATOM     25  C   UNL     1      -4.950  12.725  23.783  0.00  0.00    +0.000 C 
ATOM     26  C   UNL     1      -3.421  12.648  23.861  0.00  0.00    +0.000 C 
BRANCH  24  27
ATOM     27  C   UNL     1      -4.915  15.022  22.862  0.00  0.00    +0.000 C 
BRANCH  27  28
ATOM     28  C   UNL     1      -5.334  15.866  24.089  0.00  0.00    +0.000 C 
ATOM     29  C   UNL     1      -4.121  16.378  24.871  0.00  0.00    +0.000 C 
ATOM     30  C   UNL     1      -3.326  17.411  24.074  0.00  0.00    +0.000 C 
ATOM     31  C   UNL     1      -4.189  18.598  23.659  0.00  0.00    +0.000 C 
ATOM     32  C   UNL     1      -5.515  18.204  23.007  0.00  0.00    +0.000 C 
ATOM     33  C   UNL     1      -6.236  17.057  23.711  0.00  0.00    +0.000 C 
ENDBRANCH  27  28
ENDBRANCH  24  27
ENDBRANCH  19  20
ENDBRANCH   4  19
TORSDOF 6
ENDMDL
MODEL 7
REMARK VINA RESULT:      -7.9      6.589     11.171
REMARK  Name = 
REMARK  8 active torsions:
REMARK  status: ('A' for Active; 'I' for Inactive)
REMARK    1  A    between atoms: C_1  and  C_2
REMARK    2  A    between atoms: C_5  and  N_6
REMARK    3  A    between atoms: C_7  and  C_9
REMARK    4  A    between atoms: C_12  and  C_13
REMARK    5  A    between atoms: C_13  and  N_14
REMARK    6  A    between atoms: N_18  and  C_19
REMARK    7  A    between atoms: C_19  and  C_20
REMARK    8  A    between atoms: C_31  and  C_32
REMARK                            x       y       z     vdW  Elec       q    Type
REMARK                         _______ _______ _______ _____ _____    ______ ____
ROOT
ATOM      1  C   UNL     1       0.830   9.136  20.945  0.00  0.00    +0.000 A 
ATOM      2  C   UNL     1       0.756  10.420  20.401  0.00  0.00    +0.000 A 
ATOM      3  C   UNL     1       0.113  11.436  21.112  0.00  0.00    +0.000 A 
ATOM      4  C   UNL     1      -0.501  11.176  22.350  0.00  0.00    +0.000 A 
ATOM      5  C   UNL     1      -0.416   9.882  22.885  0.00  0.00    +0.000 A 
ATOM      6  C   UNL     1       0.236   8.867  22.184  0.00  0.00    +0.000 A 
ENDROOT
BRANCH   1   8
ATOM      7  N   UNL     1       1.477   6.805  20.892  0.00  0.00    +0.000 N 
ATOM      8  C   UNL     1       1.493   8.020  20.228  0.00  0.00    +0.000 C 
ATOM      9  O   UNL     1       1.952   8.257  19.118  0.00  0.00    +0.000 OA
ATOM     10  H   UNL     1       0.973   6.755  21.761  0.00  0.00    +0.000 HD
BRANCH   7  15
ATOM     11  C   UNL     1       3.746   1.864  19.061  0.00  0.00    +0.000 C 
ATOM     12  C   UNL     1       3.162   3.180  19.493  0.00  0.00    +0.000 A 
ATOM     13  C   UNL     1       1.844   3.207  19.967  0.00  0.00    +0.000 A 
ATOM     14  C   UNL     1       1.264   4.395  20.410  0.00  0.00    +0.000 A 
ATOM     15  C   UNL     1       1.992   5.580  20.411  0.00  0.00    +0.000 A 
ATOM     16  C   UNL     1       3.299   5.564  19.905  0.00  0.00    +0.000 A 
ATOM     17  C   UNL     1       3.895   4.377  19.444  0.00  0.00    +0.000 A 
ATOM     18  C   UNL     1       5.301   4.403  18.907  0.00  0.00    +0.000 C 
ENDBRANCH   7  15
ENDBRANCH   1   8
BRANCH   4  19
ATOM     19  C   UNL     1      -1.316  12.255  23.053  0.00  0.00    +0.000 C 
BRANCH  19  20
ATOM     20  N   UNL     1      -2.783  12.241  22.791  0.00  0.00    +0.000 NA
ATOM     21  C   UNL     1      -3.085  12.888  21.508  0.00  0.00    +0.000 C 
ATOM     22  C   UNL     1      -4.470  12.705  20.880  0.00  0.00    +0.000 C 
ATOM     23  C   UNL     1      -5.739  13.040  21.663  0.00  0.00    +0.000 C 
ATOM     24  N   UNL     1      -5.641  13.733  22.940  0.00  0.00    +0.000 NA
ATOM     25  C   UNL     1      -5.028  12.837  23.931  0.00  0.00    +0.000 C 
ATOM     26  C   UNL     1      -3.495  12.791  23.960  0.00  0.00    +0.000 C 
BRANCH  24  27
ATOM     27  C   UNL     1      -5.068  15.092  22.913  0.00  0.00    +0.000 C 
BRANCH  27  28
ATOM     28  C   UNL     1      -5.463  15.980  24.117  0.00  0.00    +0.000 C 
ATOM     29  C   UNL     1      -4.238  16.431  24.919  0.00  0.00    +0.000 C 
ATOM     30  C   UNL     1      -3.365  17.401  24.125  0.00  0.00    +0.000 C 
ATOM     31  C   UNL     1      -4.145  18.631  23.672  0.00  0.00    +0.000 C 
ATOM     32  C   UNL     1      -5.478  18.307  22.996  0.00  0.00    +0.000 C 
ATOM     33  C   UNL     1      -6.282  17.217  23.701  0.00  0.00    +0.000 C 
ENDBRANCH  27  28
ENDBRANCH  24  27
ENDBRANCH  19  20
ENDBRANCH   4  19
TORSDOF 6
ENDMDL
MODEL 8
REMARK VINA RESULT:      -7.9      6.656     11.422
REMARK  Name = 
REMARK  8 active torsions:
REMARK  status: ('A' for Active; 'I' for Inactive)
REMARK    1  A    between atoms: C_1  and  C_2
REMARK    2  A    between atoms: C_5  and  N_6
REMARK    3  A    between atoms: C_7  and  C_9
REMARK    4  A    between atoms: C_12  and  C_13
REMARK    5  A    between atoms: C_13  and  N_14
REMARK    6  A    between atoms: N_18  and  C_19
REMARK    7  A    between atoms: C_19  and  C_20
REMARK    8  A    between atoms: C_31  and  C_32
REMARK                            x       y       z     vdW  Elec       q    Type
REMARK                         _______ _______ _______ _____ _____    ______ ____
ROOT
ATOM      1  C   UNL     1       0.641   9.310  21.048  0.00  0.00    +0.000 A 
ATOM      2  C   UNL     1       0.611  10.650  20.656  0.00  0.00    +0.000 A 
ATOM      3  C   UNL     1      -0.078  11.583  21.434  0.00  0.00    +0.000 A 
ATOM      4  C   UNL     1      -0.781  11.187  22.587  0.00  0.00    +0.000 A 
ATOM      5  C   UNL     1      -0.739   9.838  22.969  0.00  0.00    +0.000 A 
ATOM      6  C   UNL     1      -0.042   8.905  22.201  0.00  0.00    +0.000 A 
ENDROOT
BRANCH   1   8
ATOM      7  N   UNL     1       1.454   7.038  20.861  0.00  0.00    +0.000 N 
ATOM      8  C   UNL     1       1.349   8.278  20.253  0.00  0.00    +0.000 C 
ATOM      9  O   UNL     1       1.737   8.595  19.136  0.00  0.00    +0.000 OA
ATOM     10  H   UNL     1       0.996   6.914  21.749  0.00  0.00    +0.000 HD
BRANCH   7  15
ATOM     11  C   UNL     1       3.648   2.318  18.450  0.00  0.00    +0.000 C 
ATOM     12  C   UNL     1       3.057   3.525  19.123  0.00  0.00    +0.000 A 
ATOM     13  C   UNL     1       3.887   4.622  19.387  0.00  0.00    +0.000 A 
ATOM     14  C   UNL     1       3.383   5.778  19.980  0.00  0.00    +0.000 A 
ATOM     15  C   UNL     1       2.034   5.877  20.304  0.00  0.00    +0.000 A 
ATOM     16  C   UNL     1       1.207   4.769  20.074  0.00  0.00    +0.000 A 
ATOM     17  C   UNL     1       1.702   3.591  19.487  0.00  0.00    +0.000 A 
ATOM     18  C   UNL     1       0.781   2.423  19.258  0.00  0.00    +0.000 C 
ENDBRANCH   7  15
ENDBRANCH   1   8
BRANCH   4  19
ATOM     19  C   UNL     1      -1.640  12.186  23.352  0.00  0.00    +0.000 C 
BRANCH  19  20
ATOM     20  N   UNL     1      -3.107  12.118  23.096  0.00  0.00    +0.000 NA
ATOM     21  C   UNL     1      -3.454  12.868  21.882  0.00  0.00    +0.000 C 
ATOM     22  C   UNL     1      -4.832  12.671  21.244  0.00  0.00    +0.000 C 
ATOM     23  C   UNL     1      -6.110  12.861  22.061  0.00  0.00    +0.000 C 
ATOM     24  N   UNL     1      -6.037  13.433  23.399  0.00  0.00    +0.000 NA
ATOM     25  C   UNL     1      -5.369  12.481  24.296  0.00  0.00    +0.000 C 
ATOM     26  C   UNL     1      -3.836  12.515  24.314  0.00  0.00    +0.000 C 
BRANCH  24  27
ATOM     27  C   UNL     1      -5.538  14.818  23.500  0.00  0.00    +0.000 C 
BRANCH  27  28
ATOM     28  C   UNL     1      -6.302  15.842  22.629  0.00  0.00    +0.000 C 
ATOM     29  C   UNL     1      -6.882  16.985  23.469  0.00  0.00    +0.000 C 
ATOM     30  C   UNL     1      -5.784  17.873  24.054  0.00  0.00    +0.000 C 
ATOM     31  C   UNL     1      -4.885  18.457  22.969  0.00  0.00    +0.000 C 
ATOM     32  C   UNL     1      -4.372  17.424  21.965  0.00  0.00    +0.000 C 
ATOM     33  C   UNL     1      -5.434  16.430  21.500  0.00  0.00    +0.000 C 
ENDBRANCH  27  28
ENDBRANCH  24  27
ENDBRANCH  19  20
ENDBRANCH   4  19
TORSDOF 6
ENDMDL
MODEL 9
REMARK VINA RESULT:      -7.9      6.067     10.501
REMARK  Name = 
REMARK  8 active torsions:
REMARK  status: ('A' for Active; 'I' for Inactive)
REMARK    1  A    between atoms: C_1  and  C_2
REMARK    2  A    between atoms: C_5  and  N_6
REMARK    3  A    between atoms: C_7  and  C_9
REMARK    4  A    between atoms: C_12  and  C_13
REMARK    5  A    between atoms: C_13  and  N_14
REMARK    6  A    between atoms: N_18  and  C_19
REMARK    7  A    between atoms: C_19  and  C_20
REMARK    8  A    between atoms: C_31  and  C_32
REMARK                            x       y       z     vdW  Elec       q    Type
REMARK                         _______ _______ _______ _____ _____    ______ ____
ROOT
ATOM      1  C   UNL     1       1.233   9.387  19.359  0.00  0.00    +0.000 A 
ATOM      2  C   UNL     1       0.620  10.606  19.065  0.00  0.00    +0.000 A 
ATOM      3  C   UNL     1      -0.126  11.260  20.048  0.00  0.00    +0.000 A 
ATOM      4  C   UNL     1      -0.307  10.688  21.320  0.00  0.00    +0.000 A 
ATOM      5  C   UNL     1       0.317   9.464  21.602  0.00  0.00    +0.000 A 
ATOM      6  C   UNL     1       1.073   8.813  20.626  0.00  0.00    +0.000 A 
ENDROOT
BRANCH   1   8
ATOM      7  N   UNL     1       2.635   7.491  18.812  0.00  0.00    +0.000 N 
ATOM      8  C   UNL     1       2.027   8.646  18.349  0.00  0.00    +0.000 C 
ATOM      9  O   UNL     1       2.044   9.091  17.209  0.00  0.00    +0.000 OA
ATOM     10  H   UNL     1       2.443   7.211  19.760  0.00  0.00    +0.000 HD
BRANCH   7  15
ATOM     11  C   UNL     1       5.564   3.717  15.637  0.00  0.00    +0.000 C 
ATOM     12  C   UNL     1       4.810   4.679  16.512  0.00  0.00    +0.000 A 
ATOM     13  C   UNL     1       5.150   6.036  16.470  0.00  0.00    +0.000 A 
ATOM     14  C   UNL     1       4.461   6.974  17.237  0.00  0.00    +0.000 A 
ATOM     15  C   UNL     1       3.402   6.583  18.049  0.00  0.00    +0.000 A 
ATOM     16  C   UNL     1       3.081   5.220  18.121  0.00  0.00    +0.000 A 
ATOM     17  C   UNL     1       3.773   4.260  17.363  0.00  0.00    +0.000 A 
ATOM     18  C   UNL     1       3.397   2.807  17.469  0.00  0.00    +0.000 C 
ENDBRANCH   7  15
ENDBRANCH   1   8
BRANCH   4  19
ATOM     19  C   UNL     1      -1.233  11.342  22.339  0.00  0.00    +0.000 C 
BRANCH  19  20
ATOM     20  N   UNL     1      -1.429  12.812  22.196  0.00  0.00    +0.000 NA
ATOM     21  C   UNL     1      -1.474  13.457  23.514  0.00  0.00    +0.000 C 
ATOM     22  C   UNL     1      -1.339  14.980  23.612  0.00  0.00    +0.000 C 
ATOM     23  C   UNL     1      -2.266  15.903  22.820  0.00  0.00    +0.000 C 
ATOM     24  N   UNL     1      -3.421  15.349  22.126  0.00  0.00    +0.000 NA
ATOM     25  C   UNL     1      -2.960  14.522  21.003  0.00  0.00    +0.000 C 
ATOM     26  C   UNL     1      -2.591  13.069  21.326  0.00  0.00    +0.000 C 
BRANCH  24  27
ATOM     27  C   UNL     1      -4.455  14.713  22.965  0.00  0.00    +0.000 C 
BRANCH  27  28
ATOM     28  C   UNL     1      -5.733  14.293  22.202  0.00  0.00    +0.000 C 
ATOM     29  C   UNL     1      -6.165  12.866  22.555  0.00  0.00    +0.000 C 
ATOM     30  C   UNL     1      -6.649  12.760  24.000  0.00  0.00    +0.000 C 
ATOM     31  C   UNL     1      -7.803  13.716  24.286  0.00  0.00    +0.000 C 
ATOM     32  C   UNL     1      -7.549  15.152  23.825  0.00  0.00    +0.000 C 
ATOM     33  C   UNL     1      -6.913  15.255  22.441  0.00  0.00    +0.000 C 
ENDBRANCH  27  28
ENDBRANCH  24  27
ENDBRANCH  19  20
ENDBRANCH   4  19
TORSDOF 6
ENDMDL
