MODEL 1
REMARK VINA RESULT:      -8.1      0.000      0.000
REMARK  Name = 
REMARK  5 active torsions:
REMARK  status: ('A' for Active; 'I' for Inactive)
REMARK    1  A    between atoms: C_2  and  C_22
REMARK    2  A    between atoms: N_3  and  C_4
REMARK    3  A    between atoms: C_4  and  C_5
REMARK    4  A    between atoms: C_5  and  N_6
REMARK    5  A    between atoms: C_11  and  C_12
REMARK                            x       y       z     vdW  Elec       q    Type
REMARK                         _______ _______ _______ _____ _____    ______ ____
ROOT
ATOM      1  C   UNL     1       3.809   2.601  19.857  0.00  0.00    +0.000 C 
ENDROOT
BRANCH   1   2
ATOM      2  N   UNL     1       2.951   3.772  19.990  0.00  0.00    +0.000 N 
ATOM      3  C   UNL     1       1.657   3.656  20.415  0.00  0.00    +0.000 C 
ATOM      4  O   UNL     1       1.082   2.636  20.761  0.00  0.00    +0.000 OA
ATOM      5  S   UNL     1       0.893   5.234  20.450  0.00  0.00    +0.000 S 
ATOM      6  C   UNL     1       2.356   6.038  20.040  0.00  0.00    +0.000 C 
ATOM      7  C   UNL     1       2.575   7.358  19.963  0.00  0.00    +0.000 C 
ATOM      8  C   UNL     1       3.437   5.043  19.805  0.00  0.00    +0.000 C 
ATOM      9  O   UNL     1       4.587   5.352  19.528  0.00  0.00    +0.000 OA
BRANCH   7  10
ATOM     10  C   UNL     1       1.572   8.388  20.238  0.00  0.00    +0.000 A 
ATOM     11  C   UNL     1       1.083   9.194  19.207  0.00  0.00    +0.000 A 
ATOM     12  C   UNL     1       0.121  10.171  19.477  0.00  0.00    +0.000 A 
ATOM     13  C   UNL     1      -0.360  10.346  20.777  0.00  0.00    +0.000 A 
ATOM     14 CL   UNL     1      -1.546  11.575  21.039  0.00  0.00    +0.000 Cl
ATOM     15  C   UNL     1       0.125   9.538  21.812  0.00  0.00    +0.000 A 
ATOM     16 CL   UNL     1      -0.423   9.691  23.443  0.00  0.00    +0.000 Cl
ATOM     17  C   UNL     1       1.090   8.562  21.540  0.00  0.00    +0.000 A 
ENDBRANCH   7  10
ENDBRANCH   1   2
BRANCH   1  18
ATOM     18  C   UNL     1       3.826   2.046  18.425  0.00  0.00    +0.000 C 
BRANCH  18  21
ATOM     19  O   UNL     1       2.982   4.040  16.665  0.00  0.00    +0.000 OA
ATOM     20  C   UNL     1       4.178   3.751  16.674  0.00  0.00    +0.000 C 
ATOM     21  N   UNL     1       4.689   2.795  17.525  0.00  0.00    +0.000 N 
ATOM     22  H   UNL     1       5.676   2.568  17.457  0.00  0.00    +0.000 HD
BRANCH  20  23
ATOM     23  C   UNL     1       5.208   4.495  15.807  0.00  0.00    +0.000 C 
ATOM     24  C   UNL     1       6.574   3.834  15.969  0.00  0.00    +0.000 C 
ATOM     25  O   UNL     1       7.104   4.104  17.276  0.00  0.00    +0.000 OA
ATOM     26  C   UNL     1       7.119   5.457  17.492  0.00  0.00    +0.000 A 
ATOM     27  C   UNL     1       8.053   5.941  18.404  0.00  0.00    +0.000 A 
ATOM     28  C   UNL     1       8.208   7.317  18.566  0.00  0.00    +0.000 A 
ATOM     29  C   UNL     1       7.419   8.200  17.825  0.00  0.00    +0.000 A 
ATOM     30  C   UNL     1       6.436   7.709  16.962  0.00  0.00    +0.000 A 
ATOM     31  C   UNL     1       6.269   6.332  16.813  0.00  0.00    +0.000 A 
ATOM     32  O   UNL     1       5.264   5.914  15.981  0.00  0.00    +0.000 OA
ENDBRANCH  20  23
ENDBRANCH  18  21
ENDBRANCH   1  18
TORSDOF 5
ENDMDL
MODEL 2
REMARK VINA RESULT:      -8.1      3.726      6.061
REMARK  Name = 
REMARK  5 active torsions:
REMARK  status: ('A' for Active; 'I' for Inactive)
REMARK    1  A    between atoms: C_2  and  C_22
REMARK    2  A    between atoms: N_3  and  C_4
REMARK    3  A    between atoms: C_4  and  C_5
REMARK    4  A    between atoms: C_5  and  N_6
REMARK    5  A    between atoms: C_11  and  C_12
REMARK                            x       y       z     vdW  Elec       q    Type
REMARK                         _______ _______ _______ _____ _____    ______ ____
ROOT
ATOM      1  C   UNL     1       0.602   8.948  17.823  0.00  0.00    +0.000 C 
ENDROOT
BRANCH   1   2
ATOM      2  N   UNL     1      -0.012   9.931  18.706  0.00  0.00    +0.000 N 
ATOM      3  C   UNL     1      -1.003  10.761  18.259  0.00  0.00    +0.000 C 
ATOM      4  O   UNL     1      -1.512  10.773  17.149  0.00  0.00    +0.000 OA
ATOM      5  S   UNL     1      -1.516  11.833  19.549  0.00  0.00    +0.000 S 
ATOM      6  C   UNL     1      -0.504  11.055  20.701  0.00  0.00    +0.000 C 
ATOM      7  C   UNL     1      -0.424  11.294  22.018  0.00  0.00    +0.000 C 
ATOM      8  C   UNL     1       0.295   9.988  20.043  0.00  0.00    +0.000 C 
ATOM      9  O   UNL     1       1.074   9.262  20.644  0.00  0.00    +0.000 OA
BRANCH   7  10
ATOM     10  C   UNL     1      -1.222  12.288  22.737  0.00  0.00    +0.000 A 
ATOM     11  C   UNL     1      -0.780  13.609  22.845  0.00  0.00    +0.000 A 
ATOM     12  C   UNL     1      -1.552  14.553  23.527  0.00  0.00    +0.000 A 
ATOM     13  C   UNL     1      -2.771  14.184  24.103  0.00  0.00    +0.000 A 
ATOM     14 CL   UNL     1      -3.671  15.401  24.935  0.00  0.00    +0.000 Cl
ATOM     15  C   UNL     1      -3.219  12.863  23.993  0.00  0.00    +0.000 A 
ATOM     16 CL   UNL     1      -4.715  12.331  24.674  0.00  0.00    +0.000 Cl
ATOM     17  C   UNL     1      -2.443  11.918  23.311  0.00  0.00    +0.000 A 
ENDBRANCH   7  10
ENDBRANCH   1   2
BRANCH   1  18
ATOM     18  C   UNL     1       2.137   8.997  17.868  0.00  0.00    +0.000 C 
BRANCH  18  21
ATOM     19  O   UNL     1       4.142   7.486  16.651  0.00  0.00    +0.000 OA
ATOM     20  C   UNL     1       3.712   7.101  17.738  0.00  0.00    +0.000 C 
ATOM     21  N   UNL     1       2.738   7.795  18.422  0.00  0.00    +0.000 N 
ATOM     22  H   UNL     1       2.392   7.406  19.294  0.00  0.00    +0.000 HD
BRANCH  20  23
ATOM     23  C   UNL     1       4.290   5.872  18.460  0.00  0.00    +0.000 C 
ATOM     24  C   UNL     1       4.263   4.674  17.515  0.00  0.00    +0.000 C 
ATOM     25  O   UNL     1       2.911   4.233  17.312  0.00  0.00    +0.000 OA
ATOM     26  C   UNL     1       2.324   3.990  18.525  0.00  0.00    +0.000 A 
ATOM     27  C   UNL     1       1.274   3.076  18.547  0.00  0.00    +0.000 A 
ATOM     28  C   UNL     1       0.724   2.686  19.768  0.00  0.00    +0.000 A 
ATOM     29  C   UNL     1       1.220   3.223  20.958  0.00  0.00    +0.000 A 
ATOM     30  C   UNL     1       2.227   4.191  20.927  0.00  0.00    +0.000 A 
ATOM     31  C   UNL     1       2.764   4.594  19.705  0.00  0.00    +0.000 A 
ATOM     32  O   UNL     1       3.722   5.573  19.738  0.00  0.00    +0.000 OA
ENDBRANCH  20  23
ENDBRANCH  18  21
ENDBRANCH   1  18
TORSDOF 5
ENDMDL
MODEL 3
REMARK VINA RESULT:      -7.9      4.228      5.688
REMARK  Name = 
REMARK  5 active torsions:
REMARK  status: ('A' for Active; 'I' for Inactive)
REMARK    1  A    between atoms: C_2  and  C_22
REMARK    2  A    between atoms: N_3  and  C_4
REMARK    3  A    between atoms: C_4  and  C_5
REMARK    4  A    between atoms: C_5  and  N_6
REMARK    5  A    between atoms: C_11  and  C_12
REMARK                            x       y       z     vdW  Elec       q    Type
REMARK                         _______ _______ _______ _____ _____    ______ ____
ROOT
ATOM      1  C   UNL     1       0.163   8.388  21.198  0.00  0.00    +0.000 C 
ENDROOT
BRANCH   1   2
ATOM      2  N   UNL     1       0.189   9.824  20.953  0.00  0.00    +0.000 N 
ATOM      3  C   UNL     1       0.027  10.719  21.974  0.00  0.00    +0.000 C 
ATOM      4  O   UNL     1      -0.111  10.468  23.161  0.00  0.00    +0.000 OA
ATOM      5  S   UNL     1       0.091  12.358  21.352  0.00  0.00    +0.000 S 
ATOM      6  C   UNL     1       0.480  11.823  19.766  0.00  0.00    +0.000 C 
ATOM      7  C   UNL     1       0.782  12.573  18.696  0.00  0.00    +0.000 C 
ATOM      8  C   UNL     1       0.489  10.337  19.715  0.00  0.00    +0.000 C 
ATOM      9  O   UNL     1       0.767   9.699  18.709  0.00  0.00    +0.000 OA
BRANCH   7  10
ATOM     10  C   UNL     1       0.846  14.036  18.693  0.00  0.00    +0.000 A 
ATOM     11  C   UNL     1      -0.325  14.797  18.686  0.00  0.00    +0.000 A 
ATOM     12  C   UNL     1      -0.253  16.193  18.691  0.00  0.00    +0.000 A 
ATOM     13  C   UNL     1       0.988  16.835  18.705  0.00  0.00    +0.000 A 
ATOM     14 CL   UNL     1       1.001  18.563  18.705  0.00  0.00    +0.000 Cl
ATOM     15  C   UNL     1       2.163  16.075  18.716  0.00  0.00    +0.000 A 
ATOM     16 CL   UNL     1       3.733  16.796  18.738  0.00  0.00    +0.000 Cl
ATOM     17  C   UNL     1       2.090  14.678  18.710  0.00  0.00    +0.000 A 
ENDBRANCH   7  10
ENDBRANCH   1   2
BRANCH   1  18
ATOM     18  C   UNL     1       1.569   7.797  21.374  0.00  0.00    +0.000 C 
BRANCH  18  21
ATOM     19  O   UNL     1       1.820   5.056  20.920  0.00  0.00    +0.000 OA
ATOM     20  C   UNL     1       2.202   5.822  20.036  0.00  0.00    +0.000 C 
ATOM     21  N   UNL     1       2.097   7.190  20.164  0.00  0.00    +0.000 N 
ATOM     22  H   UNL     1       2.469   7.772  19.420  0.00  0.00    +0.000 HD
BRANCH  20  23
ATOM     23  C   UNL     1       2.739   5.314  18.687  0.00  0.00    +0.000 C 
ATOM     24  C   UNL     1       3.531   4.030  18.911  0.00  0.00    +0.000 C 
ATOM     25  O   UNL     1       4.768   4.320  19.580  0.00  0.00    +0.000 OA
ATOM     26  C   UNL     1       5.455   5.274  18.876  0.00  0.00    +0.000 A 
ATOM     27  C   UNL     1       6.839   5.295  19.024  0.00  0.00    +0.000 A 
ATOM     28  C   UNL     1       7.604   6.152  18.233  0.00  0.00    +0.000 A 
ATOM     29  C   UNL     1       6.978   6.991  17.309  0.00  0.00    +0.000 A 
ATOM     30  C   UNL     1       5.585   7.016  17.212  0.00  0.00    +0.000 A 
ATOM     31  C   UNL     1       4.819   6.172  18.015  0.00  0.00    +0.000 A 
ATOM     32  O   UNL     1       3.457   6.269  17.900  0.00  0.00    +0.000 OA
ENDBRANCH  20  23
ENDBRANCH  18  21
ENDBRANCH   1  18
TORSDOF 5
ENDMDL
MODEL 4
REMARK VINA RESULT:      -7.8      0.569      1.297
REMARK  Name = 
REMARK  5 active torsions:
REMARK  status: ('A' for Active; 'I' for Inactive)
REMARK    1  A    between atoms: C_2  and  C_22
REMARK    2  A    between atoms: N_3  and  C_4
REMARK    3  A    between atoms: C_4  and  C_5
REMARK    4  A    between atoms: C_5  and  N_6
REMARK    5  A    between atoms: C_11  and  C_12
REMARK                            x       y       z     vdW  Elec       q    Type
REMARK                         _______ _______ _______ _____ _____    ______ ____
ROOT
ATOM      1  C   UNL     1       3.670   2.575  19.867  0.00  0.00    +0.000 C 
ENDROOT
BRANCH   1   2
ATOM      2  N   UNL     1       2.826   3.751  20.031  0.00  0.00    +0.000 N 
ATOM      3  C   UNL     1       1.527   3.637  20.444  0.00  0.00    +0.000 C 
ATOM      4  O   UNL     1       0.937   2.614  20.754  0.00  0.00    +0.000 OA
ATOM      5  S   UNL     1       0.782   5.223  20.524  0.00  0.00    +0.000 S 
ATOM      6  C   UNL     1       2.258   6.021  20.149  0.00  0.00    +0.000 C 
ATOM      7  C   UNL     1       2.493   7.340  20.117  0.00  0.00    +0.000 C 
ATOM      8  C   UNL     1       3.328   5.021  19.890  0.00  0.00    +0.000 C 
ATOM      9  O   UNL     1       4.483   5.324  19.630  0.00  0.00    +0.000 OA
BRANCH   7  10
ATOM     10  C   UNL     1       1.501   8.374  20.417  0.00  0.00    +0.000 A 
ATOM     11  C   UNL     1       1.154   8.661  21.739  0.00  0.00    +0.000 A 
ATOM     12  C   UNL     1       0.211   9.655  22.017  0.00  0.00    +0.000 A 
ATOM     13  C   UNL     1      -0.388  10.368  20.975  0.00  0.00    +0.000 A 
ATOM     14 CL   UNL     1      -1.549  11.578  21.391  0.00  0.00    +0.000 Cl
ATOM     15  C   UNL     1      -0.040  10.085  19.650  0.00  0.00    +0.000 A 
ATOM     16 CL   UNL     1      -0.735  10.925  18.309  0.00  0.00    +0.000 Cl
ATOM     17  C   UNL     1       0.903   9.089  19.373  0.00  0.00    +0.000 A 
ENDBRANCH   7  10
ENDBRANCH   1   2
BRANCH   1  18
ATOM     18  C   UNL     1       3.635   2.023  18.434  0.00  0.00    +0.000 C 
BRANCH  18  21
ATOM     19  O   UNL     1       2.832   4.090  16.741  0.00  0.00    +0.000 OA
ATOM     20  C   UNL     1       4.011   3.740  16.701  0.00  0.00    +0.000 C 
ATOM     21  N   UNL     1       4.502   2.743  17.516  0.00  0.00    +0.000 N 
ATOM     22  H   UNL     1       5.473   2.468  17.407  0.00  0.00    +0.000 HD
BRANCH  20  23
ATOM     23  C   UNL     1       5.046   4.446  15.809  0.00  0.00    +0.000 C 
ATOM     24  C   UNL     1       6.400   3.761  15.968  0.00  0.00    +0.000 C 
ATOM     25  O   UNL     1       6.950   4.045  17.264  0.00  0.00    +0.000 OA
ATOM     26  C   UNL     1       6.995   5.400  17.454  0.00  0.00    +0.000 A 
ATOM     27  C   UNL     1       7.948   5.883  18.346  0.00  0.00    +0.000 A 
ATOM     28  C   UNL     1       8.133   7.258  18.481  0.00  0.00    +0.000 A 
ATOM     29  C   UNL     1       7.353   8.143  17.732  0.00  0.00    +0.000 A 
ATOM     30  C   UNL     1       6.351   7.656  16.890  0.00  0.00    +0.000 A 
ATOM     31  C   UNL     1       6.154   6.281  16.768  0.00  0.00    +0.000 A 
ATOM     32  O   UNL     1       5.132   5.867  15.955  0.00  0.00    +0.000 OA
ENDBRANCH  20  23
ENDBRANCH  18  21
ENDBRANCH   1  18
TORSDOF 5
ENDMDL
MODEL 5
REMARK VINA RESULT:      -7.6      3.623      5.206
REMARK  Name = 
REMARK  5 active torsions:
REMARK  status: ('A' for Active; 'I' for Inactive)
REMARK    1  A    between atoms: C_2  and  C_22
REMARK    2  A    between atoms: N_3  and  C_4
REMARK    3  A    between atoms: C_4  and  C_5
REMARK    4  A    between atoms: C_5  and  N_6
REMARK    5  A    between atoms: C_11  and  C_12
REMARK                            x       y       z     vdW  Elec       q    Type
REMARK                         _______ _______ _______ _____ _____    ______ ____
ROOT
ATOM      1  C   UNL     1       1.879   8.293  21.403  0.00  0.00    +0.000 C 
ENDROOT
BRANCH   1   2
ATOM      2  N   UNL     1       0.942   9.406  21.307  0.00  0.00    +0.000 N 
ATOM      3  C   UNL     1       0.544   9.893  20.093  0.00  0.00    +0.000 C 
ATOM      4  O   UNL     1       0.857   9.472  18.990  0.00  0.00    +0.000 OA
ATOM      5  S   UNL     1      -0.565  11.233  20.318  0.00  0.00    +0.000 S 
ATOM      6  C   UNL     1      -0.592  11.025  22.024  0.00  0.00    +0.000 C 
ATOM      7  C   UNL     1      -1.341  11.682  22.920  0.00  0.00    +0.000 C 
ATOM      8  C   UNL     1       0.337   9.933  22.421  0.00  0.00    +0.000 C 
ATOM      9  O   UNL     1       0.485   9.562  23.576  0.00  0.00    +0.000 OA
BRANCH   7  10
ATOM     10  C   UNL     1      -2.315  12.725  22.591  0.00  0.00    +0.000 A 
ATOM     11  C   UNL     1      -3.683  12.493  22.750  0.00  0.00    +0.000 A 
ATOM     12  C   UNL     1      -4.605  13.497  22.441  0.00  0.00    +0.000 A 
ATOM     13  C   UNL     1      -4.164  14.738  21.972  0.00  0.00    +0.000 A 
ATOM     14 CL   UNL     1      -5.358  15.931  21.604  0.00  0.00    +0.000 Cl
ATOM     15  C   UNL     1      -2.794  14.975  21.815  0.00  0.00    +0.000 A 
ATOM     16 CL   UNL     1      -2.172  16.482  21.245  0.00  0.00    +0.000 Cl
ATOM     17  C   UNL     1      -1.872  13.968  22.124  0.00  0.00    +0.000 A 
ENDBRANCH   7  10
ENDBRANCH   1   2
BRANCH   1  18
ATOM     18  C   UNL     1       1.315   6.998  20.801  0.00  0.00    +0.000 C 
BRANCH  18  21
ATOM     19  O   UNL     1       2.348   4.412  20.627  0.00  0.00    +0.000 OA
ATOM     20  C   UNL     1       2.593   5.191  19.707  0.00  0.00    +0.000 C 
ATOM     21  N   UNL     1       2.107   6.481  19.697  0.00  0.00    +0.000 N 
ATOM     22  H   UNL     1       2.378   7.091  18.932  0.00  0.00    +0.000 HD
BRANCH  20  23
ATOM     23  C   UNL     1       3.379   4.762  18.457  0.00  0.00    +0.000 C 
ATOM     24  C   UNL     1       4.395   3.691  18.843  0.00  0.00    +0.000 C 
ATOM     25  O   UNL     1       5.455   4.270  19.620  0.00  0.00    +0.000 OA
ATOM     26  C   UNL     1       6.001   5.322  18.935  0.00  0.00    +0.000 A 
ATOM     27  C   UNL     1       7.321   5.651  19.228  0.00  0.00    +0.000 A 
ATOM     28  C   UNL     1       7.974   6.623  18.471  0.00  0.00    +0.000 A 
ATOM     29  C   UNL     1       7.298   7.270  17.435  0.00  0.00    +0.000 A 
ATOM     30  C   UNL     1       5.952   6.987  17.189  0.00  0.00    +0.000 A 
ATOM     31  C   UNL     1       5.294   6.027  17.957  0.00  0.00    +0.000 A 
ATOM     32  O   UNL     1       3.965   5.821  17.693  0.00  0.00    +0.000 OA
ENDBRANCH  20  23
ENDBRANCH  18  21
ENDBRANCH   1  18
TORSDOF 5
ENDMDL
MODEL 6
REMARK VINA RESULT:      -7.5      6.348     11.045
REMARK  Name = 
REMARK  5 active torsions:
REMARK  status: ('A' for Active; 'I' for Inactive)
REMARK    1  A    between atoms: C_2  and  C_22
REMARK    2  A    between atoms: N_3  and  C_4
REMARK    3  A    between atoms: C_4  and  C_5
REMARK    4  A    between atoms: C_5  and  N_6
REMARK    5  A    between atoms: C_11  and  C_12
REMARK                            x       y       z     vdW  Elec       q    Type
REMARK                         _______ _______ _______ _____ _____    ______ ____
ROOT
ATOM      1  C   UNL     1       0.387  11.551  19.502  0.00  0.00    +0.000 C 
ENDROOT
BRANCH   1   2
ATOM      2  N   UNL     1       0.935  10.208  19.645  0.00  0.00    +0.000 N 
ATOM      3  C   UNL     1       0.773   9.498  20.803  0.00  0.00    +0.000 C 
ATOM      4  O   UNL     1       0.155   9.840  21.800  0.00  0.00    +0.000 OA
ATOM      5  S   UNL     1       1.560   7.936  20.664  0.00  0.00    +0.000 S 
ATOM      6  C   UNL     1       1.963   8.200  19.014  0.00  0.00    +0.000 C 
ATOM      7  C   UNL     1       2.540   7.341  18.162  0.00  0.00    +0.000 C 
ATOM      8  C   UNL     1       1.533   9.560  18.593  0.00  0.00    +0.000 C 
ATOM      9  O   UNL     1       1.675   9.990  17.458  0.00  0.00    +0.000 OA
BRANCH   7  10
ATOM     10  C   UNL     1       2.934   5.971  18.495  0.00  0.00    +0.000 A 
ATOM     11  C   UNL     1       4.237   5.689  18.913  0.00  0.00    +0.000 A 
ATOM     12  C   UNL     1       4.602   4.380  19.237  0.00  0.00    +0.000 A 
ATOM     13  C   UNL     1       3.667   3.345  19.146  0.00  0.00    +0.000 A 
ATOM     14 CL   UNL     1       4.189   1.750  19.556  0.00  0.00    +0.000 Cl
ATOM     15  C   UNL     1       2.360   3.624  18.732  0.00  0.00    +0.000 A 
ATOM     16 CL   UNL     1       1.148   2.400  18.599  0.00  0.00    +0.000 Cl
ATOM     17  C   UNL     1       1.996   4.936  18.407  0.00  0.00    +0.000 A 
ENDBRANCH   7  10
ENDBRANCH   1   2
BRANCH   1  18
ATOM     18  C   UNL     1      -1.109  11.613  19.847  0.00  0.00    +0.000 C 
BRANCH  18  21
ATOM     19  O   UNL     1      -3.591  12.719  20.479  0.00  0.00    +0.000 OA
ATOM     20  C   UNL     1      -2.654  12.937  21.245  0.00  0.00    +0.000 C 
ATOM     21  N   UNL     1      -1.397  12.414  21.025  0.00  0.00    +0.000 N 
ATOM     22  H   UNL     1      -0.653  12.664  21.669  0.00  0.00    +0.000 HD
BRANCH  20  23
ATOM     23  C   UNL     1      -2.830  13.729  22.552  0.00  0.00    +0.000 C 
ATOM     24  C   UNL     1      -2.964  12.754  23.718  0.00  0.00    +0.000 C 
ATOM     25  O   UNL     1      -4.232  12.083  23.659  0.00  0.00    +0.000 OA
ATOM     26  C   UNL     1      -5.238  13.011  23.600  0.00  0.00    +0.000 A 
ATOM     27  C   UNL     1      -6.487  12.621  24.075  0.00  0.00    +0.000 A 
ATOM     28  C   UNL     1      -7.514  13.559  24.166  0.00  0.00    +0.000 A 
ATOM     29  C   UNL     1      -7.289  14.879  23.767  0.00  0.00    +0.000 A 
ATOM     30  C   UNL     1      -6.055  15.249  23.227  0.00  0.00    +0.000 A 
ATOM     31  C   UNL     1      -5.033  14.307  23.120  0.00  0.00    +0.000 A 
ATOM     32  O   UNL     1      -3.860  14.722  22.547  0.00  0.00    +0.000 OA
ENDBRANCH  20  23
ENDBRANCH  18  21
ENDBRANCH   1  18
TORSDOF 5
ENDMDL
MODEL 7
REMARK VINA RESULT:      -7.5      4.159      5.549
REMARK  Name = 
REMARK  5 active torsions:
REMARK  status: ('A' for Active; 'I' for Inactive)
REMARK    1  A    between atoms: C_2  and  C_22
REMARK    2  A    between atoms: N_3  and  C_4
REMARK    3  A    between atoms: C_4  and  C_5
REMARK    4  A    between atoms: C_5  and  N_6
REMARK    5  A    between atoms: C_11  and  C_12
REMARK                            x       y       z     vdW  Elec       q    Type
REMARK                         _______ _______ _______ _____ _____    ______ ____
ROOT
ATOM      1  C   UNL     1       0.628   8.262  20.835  0.00  0.00    +0.000 C 
ENDROOT
BRANCH   1   2
ATOM      2  N   UNL     1       0.824   9.605  20.305  0.00  0.00    +0.000 N 
ATOM      3  C   UNL     1       1.104   9.809  18.982  0.00  0.00    +0.000 C 
ATOM      4  O   UNL     1       1.184   8.963  18.104  0.00  0.00    +0.000 OA
ATOM      5  S   UNL     1       1.299  11.523  18.667  0.00  0.00    +0.000 S 
ATOM      6  C   UNL     1       0.858  11.947  20.273  0.00  0.00    +0.000 C 
ATOM      7  C   UNL     1       0.690  13.176  20.782  0.00  0.00    +0.000 C 
ATOM      8  C   UNL     1       0.624  10.720  21.080  0.00  0.00    +0.000 C 
ATOM      9  O   UNL     1       0.269  10.741  22.250  0.00  0.00    +0.000 OA
BRANCH   7  10
ATOM     10  C   UNL     1       0.848  14.421  20.029  0.00  0.00    +0.000 A 
ATOM     11  C   UNL     1      -0.238  14.985  19.354  0.00  0.00    +0.000 A 
ATOM     12  C   UNL     1      -0.080  16.177  18.643  0.00  0.00    +0.000 A 
ATOM     13  C   UNL     1       1.163  16.815  18.604  0.00  0.00    +0.000 A 
ATOM     14 CL   UNL     1       1.288  18.283  17.702  0.00  0.00    +0.000 Cl
ATOM     15  C   UNL     1       2.252  16.255  19.282  0.00  0.00    +0.000 A 
ATOM     16 CL   UNL     1       3.818  16.985  19.283  0.00  0.00    +0.000 Cl
ATOM     17  C   UNL     1       2.092  15.060  19.992  0.00  0.00    +0.000 A 
ENDBRANCH   7  10
ENDBRANCH   1   2
BRANCH   1  18
ATOM     18  C   UNL     1       1.954   7.576  21.199  0.00  0.00    +0.000 C 
BRANCH  18  21
ATOM     19  O   UNL     1       1.677   4.882  20.528  0.00  0.00    +0.000 OA
ATOM     20  C   UNL     1       2.413   5.576  19.828  0.00  0.00    +0.000 C 
ATOM     21  N   UNL     1       2.594   6.920  20.070  0.00  0.00    +0.000 N 
ATOM     22  H   UNL     1       3.247   7.431  19.484  0.00  0.00    +0.000 HD
BRANCH  20  23
ATOM     23  C   UNL     1       3.115   5.021  18.577  0.00  0.00    +0.000 C 
ATOM     24  C   UNL     1       4.032   3.870  18.982  0.00  0.00    +0.000 C 
ATOM     25  O   UNL     1       5.167   4.371  19.705  0.00  0.00    +0.000 OA
ATOM     26  C   UNL     1       5.792   5.336  18.961  0.00  0.00    +0.000 A 
ATOM     27  C   UNL     1       7.147   5.543  19.204  0.00  0.00    +0.000 A 
ATOM     28  C   UNL     1       7.869   6.414  18.389  0.00  0.00    +0.000 A 
ATOM     29  C   UNL     1       7.228   7.083  17.344  0.00  0.00    +0.000 A 
ATOM     30  C   UNL     1       5.854   6.925  17.147  0.00  0.00    +0.000 A 
ATOM     31  C   UNL     1       5.128   6.067  17.973  0.00  0.00    +0.000 A 
ATOM     32  O   UNL     1       3.778   5.984  17.753  0.00  0.00    +0.000 OA
ENDBRANCH  20  23
ENDBRANCH  18  21
ENDBRANCH   1  18
TORSDOF 5
ENDMDL
MODEL 8
REMARK VINA RESULT:      -7.5      3.610      5.105
REMARK  Name = 
REMARK  5 active torsions:
REMARK  status: ('A' for Active; 'I' for Inactive)
REMARK    1  A    between atoms: C_2  and  C_22
REMARK    2  A    between atoms: N_3  and  C_4
REMARK    3  A    between atoms: C_4  and  C_5
REMARK    4  A    between atoms: C_5  and  N_6
REMARK    5  A    between atoms: C_11  and  C_12
REMARK                            x       y       z     vdW  Elec       q    Type
REMARK                         _______ _______ _______ _____ _____    ______ ____
ROOT
ATOM      1  C   UNL     1       1.880   8.431  21.293  0.00  0.00    +0.000 C 
ENDROOT
BRANCH   1   2
ATOM      2  N   UNL     1       0.802   9.406  21.404  0.00  0.00    +0.000 N 
ATOM      3  C   UNL     1       0.321   9.792  22.625  0.00  0.00    +0.000 C 
ATOM      4  O   UNL     1       0.721   9.437  23.723  0.00  0.00    +0.000 OA
ATOM      5  S   UNL     1      -0.975  10.956  22.418  0.00  0.00    +0.000 S 
ATOM      6  C   UNL     1      -0.753  11.017  20.714  0.00  0.00    +0.000 C 
ATOM      7  C   UNL     1      -1.374  11.812  19.832  0.00  0.00    +0.000 C 
ATOM      8  C   UNL     1       0.307  10.058  20.302  0.00  0.00    +0.000 C 
ATOM      9  O   UNL     1       0.682   9.925  19.146  0.00  0.00    +0.000 OA
BRANCH   7  10
ATOM     10  C   UNL     1      -2.383  12.816  20.178  0.00  0.00    +0.000 A 
ATOM     11  C   UNL     1      -1.999  14.082  20.626  0.00  0.00    +0.000 A 
ATOM     12  C   UNL     1      -2.968  15.036  20.947  0.00  0.00    +0.000 A 
ATOM     13  C   UNL     1      -4.327  14.731  20.821  0.00  0.00    +0.000 A 
ATOM     14 CL   UNL     1      -5.470  15.956  21.240  0.00  0.00    +0.000 Cl
ATOM     15  C   UNL     1      -4.714  13.465  20.369  0.00  0.00    +0.000 A 
ATOM     16 CL   UNL     1      -6.372  13.014  20.183  0.00  0.00    +0.000 Cl
ATOM     17  C   UNL     1      -3.742  12.510  20.049  0.00  0.00    +0.000 A 
ENDBRANCH   7  10
ENDBRANCH   1   2
BRANCH   1  18
ATOM     18  C   UNL     1       1.393   7.078  20.752  0.00  0.00    +0.000 C 
BRANCH  18  21
ATOM     19  O   UNL     1       2.262   4.443  20.464  0.00  0.00    +0.000 OA
ATOM     20  C   UNL     1       2.597   5.255  19.603  0.00  0.00    +0.000 C 
ATOM     21  N   UNL     1       2.197   6.573  19.651  0.00  0.00    +0.000 N 
ATOM     22  H   UNL     1       2.540   7.206  18.936  0.00  0.00    +0.000 HD
BRANCH  20  23
ATOM     23  C   UNL     1       3.408   4.846  18.361  0.00  0.00    +0.000 C 
ATOM     24  C   UNL     1       4.394   3.747  18.743  0.00  0.00    +0.000 C 
ATOM     25  O   UNL     1       5.444   4.285  19.563  0.00  0.00    +0.000 OA
ATOM     26  C   UNL     1       6.025   5.346  18.921  0.00  0.00    +0.000 A 
ATOM     27  C   UNL     1       7.343   5.642  19.256  0.00  0.00    +0.000 A 
ATOM     28  C   UNL     1       8.033   6.622  18.543  0.00  0.00    +0.000 A 
ATOM     29  C   UNL     1       7.394   7.310  17.509  0.00  0.00    +0.000 A 
ATOM     30  C   UNL     1       6.050   7.058  17.222  0.00  0.00    +0.000 A 
ATOM     31  C   UNL     1       5.356   6.089  17.946  0.00  0.00    +0.000 A 
ATOM     32  O   UNL     1       4.031   5.915  17.642  0.00  0.00    +0.000 OA
ENDBRANCH  20  23
ENDBRANCH  18  21
ENDBRANCH   1  18
TORSDOF 5
ENDMDL
MODEL 9
REMARK VINA RESULT:      -7.5      3.524      6.008
REMARK  Name = 
REMARK  5 active torsions:
REMARK  status: ('A' for Active; 'I' for Inactive)
REMARK    1  A    between atoms: C_2  and  C_22
REMARK    2  A    between atoms: N_3  and  C_4
REMARK    3  A    between atoms: C_4  and  C_5
REMARK    4  A    between atoms: C_5  and  N_6
REMARK    5  A    between atoms: C_11  and  C_12
REMARK                            x       y       z     vdW  Elec       q    Type
REMARK                         _______ _______ _______ _____ _____    ______ ____
ROOT
ATOM      1  C   UNL     1       2.388   9.858  18.447  0.00  0.00    +0.000 C 
ENDROOT
BRANCH   1   2
ATOM      2  N   UNL     1       1.218  10.146  19.268  0.00  0.00    +0.000 N 
ATOM      3  C   UNL     1       0.844   9.310  20.284  0.00  0.00    +0.000 C 
ATOM      4  O   UNL     1       1.415   8.297  20.655  0.00  0.00    +0.000 OA
ATOM      5  S   UNL     1      -0.603   9.924  21.063  0.00  0.00    +0.000 S 
ATOM      6  C   UNL     1      -0.597  11.359  20.116  0.00  0.00    +0.000 C 
ATOM      7  C   UNL     1      -1.416  12.415  20.221  0.00  0.00    +0.000 C 
ATOM      8  C   UNL     1       0.516  11.318  19.131  0.00  0.00    +0.000 C 
ATOM      9  O   UNL     1       0.761  12.229  18.354  0.00  0.00    +0.000 OA
BRANCH   7  10
ATOM     10  C   UNL     1      -2.492  12.544  21.205  0.00  0.00    +0.000 A 
ATOM     11  C   UNL     1      -2.205  12.560  22.573  0.00  0.00    +0.000 A 
ATOM     12  C   UNL     1      -3.238  12.691  23.504  0.00  0.00    +0.000 A 
ATOM     13  C   UNL     1      -4.564  12.808  23.076  0.00  0.00    +0.000 A 
ATOM     14 CL   UNL     1      -5.790  12.960  24.282  0.00  0.00    +0.000 Cl
ATOM     15  C   UNL     1      -4.854  12.796  21.707  0.00  0.00    +0.000 A 
ATOM     16 CL   UNL     1      -6.465  12.939  21.100  0.00  0.00    +0.000 Cl
ATOM     17  C   UNL     1      -3.819  12.663  20.775  0.00  0.00    +0.000 A 
ENDBRANCH   7  10
ENDBRANCH   1   2
BRANCH   1  18
ATOM     18  C   UNL     1       2.207   8.594  17.593  0.00  0.00    +0.000 C 
BRANCH  18  21
ATOM     19  O   UNL     1       4.513   7.297  16.706  0.00  0.00    +0.000 OA
ATOM     20  C   UNL     1       3.920   6.819  17.673  0.00  0.00    +0.000 C 
ATOM     21  N   UNL     1       2.786   7.403  18.193  0.00  0.00    +0.000 N 
ATOM     22  H   UNL     1       2.316   6.939  18.964  0.00  0.00    +0.000 HD
BRANCH  20  23
ATOM     23  C   UNL     1       4.448   5.589  18.431  0.00  0.00    +0.000 C 
ATOM     24  C   UNL     1       4.358   4.363  17.527  0.00  0.00    +0.000 C 
ATOM     25  O   UNL     1       2.986   3.978  17.348  0.00  0.00    +0.000 OA
ATOM     26  C   UNL     1       2.398   3.802  18.572  0.00  0.00    +0.000 A 
ATOM     27  C   UNL     1       1.308   2.939  18.631  0.00  0.00    +0.000 A 
ATOM     28  C   UNL     1       0.751   2.614  19.868  0.00  0.00    +0.000 A 
ATOM     29  C   UNL     1       1.281   3.167  21.037  0.00  0.00    +0.000 A 
ATOM     30  C   UNL     1       2.330   4.086  20.966  0.00  0.00    +0.000 A 
ATOM     31  C   UNL     1       2.876   4.424  19.728  0.00  0.00    +0.000 A 
ATOM     32  O   UNL     1       3.878   5.358  19.723  0.00  0.00    +0.000 OA
ENDBRANCH  20  23
ENDBRANCH  18  21
ENDBRANCH   1  18
TORSDOF 5
ENDMDL
