MODEL 1
REMARK VINA RESULT:      -8.5      0.000      0.000
REMARK  Name = 
REMARK  14 active torsions:
REMARK  status: ('A' for Active; 'I' for Inactive)
REMARK    1  A    between atoms: C_1  and  C_2
REMARK    2  A    between atoms: C_2  and  C_3
REMARK    3  A    between atoms: C_2  and  C_4
REMARK    4  A    between atoms: C_2  and  O_5
REMARK    5  A    between atoms: O_5  and  C_6
REMARK    6  A    between atoms: C_8  and  C_9
REMARK    7  A    between atoms: C_11  and  C_12
REMARK    8  A    between atoms: C_18  and  C_19
REMARK    9  A    between atoms: C_26  and  O_27
REMARK   10  A    between atoms: O_27  and  C_28
REMARK   11  A    between atoms: C_28  and  C_29
REMARK   12  A    between atoms: C_28  and  C_30
REMARK   13  A    between atoms: C_28  and  C_31
REMARK   14  A    between atoms: C_32  and  O_33
REMARK                            x       y       z     vdW  Elec       q    Type
REMARK                         _______ _______ _______ _____ _____    ______ ____
ROOT
ATOM      1  C   UNL     1       4.647   6.192  17.305  0.00  0.00    +0.000 A 
ATOM      2  C   UNL     1       4.041   7.436  17.589  0.00  0.00    +0.000 A 
ATOM      3  C   UNL     1       2.695   7.502  17.989  0.00  0.00    +0.000 A 
ATOM      4  C   UNL     1       1.991   6.307  18.187  0.00  0.00    +0.000 A 
ATOM      5  C   UNL     1       2.527   5.083  17.838  0.00  0.00    +0.000 A 
ATOM      6  C   UNL     1       3.838   5.047  17.349  0.00  0.00    +0.000 A 
ENDROOT
BRANCH   3   7
ATOM      7  C   UNL     1       1.904   8.733  18.141  0.00  0.00    +0.000 A 
ATOM      8  N   UNL     1       0.585   8.781  18.012  0.00  0.00    +0.000 NA
ATOM      9  C   UNL     1       0.214  10.092  18.196  0.00  0.00    +0.000 A 
ATOM     10  C   UNL     1       1.318  10.849  18.552  0.00  0.00    +0.000 A 
ATOM     11  N   UNL     1       2.386   9.979  18.449  0.00  0.00    +0.000 N 
ATOM     12  H   UNL     1       3.356  10.205  18.643  0.00  0.00    +0.000 HD
BRANCH   9  13
ATOM     13  C   UNL     1      -1.165  10.550  18.038  0.00  0.00    +0.000 A 
ATOM     14  C   UNL     1      -1.952  10.083  16.979  0.00  0.00    +0.000 A 
ATOM     15  C   UNL     1      -3.293  10.471  16.861  0.00  0.00    +0.000 A 
ATOM     16  C   UNL     1      -3.859  11.332  17.799  0.00  0.00    +0.000 A 
ATOM     17  C   UNL     1      -3.074  11.832  18.833  0.00  0.00    +0.000 A 
ATOM     18  C   UNL     1      -1.734  11.463  18.942  0.00  0.00    +0.000 A 
ENDBRANCH   9  13
BRANCH  10  19
ATOM     19  C   UNL     1       1.436  12.221  18.951  0.00  0.00    +0.000 A 
ATOM     20  C   UNL     1       1.610  13.311  18.116  0.00  0.00    +0.000 A 
ATOM     21  C   UNL     1       1.874  14.511  18.833  0.00  0.00    +0.000 A 
ATOM     22  C   UNL     1       1.810  14.313  20.192  0.00  0.00    +0.000 A 
ATOM     23  S   UNL     1       1.441  12.693  20.595  0.00  0.00    +0.000 S 
ENDBRANCH  10  19
ENDBRANCH   3   7
BRANCH   6  24
ATOM     24  O   UNL     1       4.281   3.845  16.868  0.00  0.00    +0.000 OA
ATOM     25  H   UNL     1       3.483   3.360  16.581  0.00  0.00    +0.000 HD
ENDBRANCH   6  24
BRANCH   1  26
ATOM     26  O   UNL     1       5.982   6.248  16.972  0.00  0.00    +0.000 OA
BRANCH  26  28
ATOM     27  C   UNL     1       7.951   7.026  18.250  0.00  0.00    +0.000 C 
ATOM     28  C   UNL     1       7.031   5.842  17.895  0.00  0.00    +0.000 C 
ATOM     29  C   UNL     1       7.758   4.547  17.483  0.00  0.00    +0.000 C 
ATOM     30  C   UNL     1       6.329   5.498  19.237  0.00  0.00    +0.000 C 
ENDBRANCH  26  28
ENDBRANCH   1  26
BRANCH   5  31
ATOM     31  O   UNL     1       1.883   3.877  17.949  0.00  0.00    +0.000 OA
BRANCH  31  32
ATOM     32  C   UNL     1       1.673   3.239  19.232  0.00  0.00    +0.000 C 
ATOM     33  C   UNL     1       1.070   4.185  20.289  0.00  0.00    +0.000 C 
ATOM     34  C   UNL     1       0.624   2.140  18.948  0.00  0.00    +0.000 C 
ATOM     35  C   UNL     1       2.929   2.509  19.737  0.00  0.00    +0.000 C 
ENDBRANCH  31  32
ENDBRANCH   5  31
TORSDOF 8
ENDMDL
MODEL 2
REMARK VINA RESULT:      -8.2      3.292      8.174
REMARK  Name = 
REMARK  14 active torsions:
REMARK  status: ('A' for Active; 'I' for Inactive)
REMARK    1  A    between atoms: C_1  and  C_2
REMARK    2  A    between atoms: C_2  and  C_3
REMARK    3  A    between atoms: C_2  and  C_4
REMARK    4  A    between atoms: C_2  and  O_5
REMARK    5  A    between atoms: O_5  and  C_6
REMARK    6  A    between atoms: C_8  and  C_9
REMARK    7  A    between atoms: C_11  and  C_12
REMARK    8  A    between atoms: C_18  and  C_19
REMARK    9  A    between atoms: C_26  and  O_27
REMARK   10  A    between atoms: O_27  and  C_28
REMARK   11  A    between atoms: C_28  and  C_29
REMARK   12  A    between atoms: C_28  and  C_30
REMARK   13  A    between atoms: C_28  and  C_31
REMARK   14  A    between atoms: C_32  and  O_33
REMARK                            x       y       z     vdW  Elec       q    Type
REMARK                         _______ _______ _______ _____ _____    ______ ____
ROOT
ATOM      1  C   UNL     1       1.444  12.366  18.318  0.00  0.00    +0.000 A 
ATOM      2  C   UNL     1       2.154  11.162  18.116  0.00  0.00    +0.000 A 
ATOM      3  C   UNL     1       1.489   9.924  18.156  0.00  0.00    +0.000 A 
ATOM      4  C   UNL     1       0.097   9.911  18.311  0.00  0.00    +0.000 A 
ATOM      5  C   UNL     1      -0.612  11.061  18.596  0.00  0.00    +0.000 A 
ATOM      6  C   UNL     1       0.084  12.275  18.648  0.00  0.00    +0.000 A 
ENDROOT
BRANCH   3   7
ATOM      7  C   UNL     1       2.134   8.602  18.137  0.00  0.00    +0.000 A 
ATOM      8  N   UNL     1       1.560   7.496  18.590  0.00  0.00    +0.000 NA
ATOM      9  C   UNL     1       2.471   6.479  18.430  0.00  0.00    +0.000 A 
ATOM     10  C   UNL     1       3.592   6.951  17.765  0.00  0.00    +0.000 A 
ATOM     11  N   UNL     1       3.381   8.310  17.647  0.00  0.00    +0.000 N 
ATOM     12  H   UNL     1       4.011   8.971  17.204  0.00  0.00    +0.000 HD
BRANCH   9  13
ATOM     13  C   UNL     1       2.224   5.119  18.902  0.00  0.00    +0.000 A 
ATOM     14  C   UNL     1       2.333   4.808  20.263  0.00  0.00    +0.000 A 
ATOM     15  C   UNL     1       2.035   3.520  20.727  0.00  0.00    +0.000 A 
ATOM     16  C   UNL     1       1.630   2.529  19.834  0.00  0.00    +0.000 A 
ATOM     17  C   UNL     1       1.556   2.818  18.476  0.00  0.00    +0.000 A 
ATOM     18  C   UNL     1       1.871   4.093  18.008  0.00  0.00    +0.000 A 
ENDBRANCH   9  13
BRANCH  10  19
ATOM     19  C   UNL     1       4.755   6.273  17.272  0.00  0.00    +0.000 A 
ATOM     20  C   UNL     1       5.142   6.154  15.949  0.00  0.00    +0.000 A 
ATOM     21  C   UNL     1       6.242   5.267  15.780  0.00  0.00    +0.000 A 
ATOM     22  C   UNL     1       6.709   4.804  16.988  0.00  0.00    +0.000 A 
ATOM     23  S   UNL     1       5.824   5.431  18.309  0.00  0.00    +0.000 S 
ENDBRANCH  10  19
ENDBRANCH   3   7
BRANCH   6  24
ATOM     24  O   UNL     1      -0.617  13.366  19.084  0.00  0.00    +0.000 OA
ATOM     25  H   UNL     1      -0.741  13.937  18.301  0.00  0.00    +0.000 HD
ENDBRANCH   6  24
BRANCH   1  26
ATOM     26  O   UNL     1       2.191  13.518  18.206  0.00  0.00    +0.000 OA
BRANCH  26  28
ATOM     27  C   UNL     1       2.581  13.460  20.647  0.00  0.00    +0.000 C 
ATOM     28  C   UNL     1       2.573  14.312  19.363  0.00  0.00    +0.000 C 
ATOM     29  C   UNL     1       1.824  15.655  19.473  0.00  0.00    +0.000 C 
ATOM     30  C   UNL     1       4.063  14.699  19.161  0.00  0.00    +0.000 C 
ENDBRANCH  26  28
ENDBRANCH   1  26
BRANCH   5  31
ATOM     31  O   UNL     1      -1.964  11.123  18.817  0.00  0.00    +0.000 OA
BRANCH  31  32
ATOM     32  C   UNL     1      -2.923  10.853  17.765  0.00  0.00    +0.000 C 
ATOM     33  C   UNL     1      -3.421   9.395  17.757  0.00  0.00    +0.000 C 
ATOM     34  C   UNL     1      -4.134  11.750  18.108  0.00  0.00    +0.000 C 
ATOM     35  C   UNL     1      -2.426  11.317  16.386  0.00  0.00    +0.000 C 
ENDBRANCH  31  32
ENDBRANCH   5  31
TORSDOF 8
ENDMDL
MODEL 3
REMARK VINA RESULT:      -8.2      3.266      8.110
REMARK  Name = 
REMARK  14 active torsions:
REMARK  status: ('A' for Active; 'I' for Inactive)
REMARK    1  A    between atoms: C_1  and  C_2
REMARK    2  A    between atoms: C_2  and  C_3
REMARK    3  A    between atoms: C_2  and  C_4
REMARK    4  A    between atoms: C_2  and  O_5
REMARK    5  A    between atoms: O_5  and  C_6
REMARK    6  A    between atoms: C_8  and  C_9
REMARK    7  A    between atoms: C_11  and  C_12
REMARK    8  A    between atoms: C_18  and  C_19
REMARK    9  A    between atoms: C_26  and  O_27
REMARK   10  A    between atoms: O_27  and  C_28
REMARK   11  A    between atoms: C_28  and  C_29
REMARK   12  A    between atoms: C_28  and  C_30
REMARK   13  A    between atoms: C_28  and  C_31
REMARK   14  A    between atoms: C_32  and  O_33
REMARK                            x       y       z     vdW  Elec       q    Type
REMARK                         _______ _______ _______ _____ _____    ______ ____
ROOT
ATOM      1  C   UNL     1       1.487  12.235  18.303  0.00  0.00    +0.000 A 
ATOM      2  C   UNL     1       2.197  11.032  18.088  0.00  0.00    +0.000 A 
ATOM      3  C   UNL     1       1.538   9.792  18.161  0.00  0.00    +0.000 A 
ATOM      4  C   UNL     1       0.153   9.774  18.361  0.00  0.00    +0.000 A 
ATOM      5  C   UNL     1      -0.553  10.923  18.658  0.00  0.00    +0.000 A 
ATOM      6  C   UNL     1       0.139  12.141  18.677  0.00  0.00    +0.000 A 
ENDROOT
BRANCH   3   7
ATOM      7  C   UNL     1       2.189   8.473  18.133  0.00  0.00    +0.000 A 
ATOM      8  N   UNL     1       1.608   7.356  18.550  0.00  0.00    +0.000 NA
ATOM      9  C   UNL     1       2.526   6.346  18.394  0.00  0.00    +0.000 A 
ATOM     10  C   UNL     1       3.662   6.833  17.767  0.00  0.00    +0.000 A 
ATOM     11  N   UNL     1       3.449   8.194  17.669  0.00  0.00    +0.000 N 
ATOM     12  H   UNL     1       4.087   8.865  17.254  0.00  0.00    +0.000 HD
BRANCH   9  13
ATOM     13  C   UNL     1       2.273   4.975  18.835  0.00  0.00    +0.000 A 
ATOM     14  C   UNL     1       1.948   3.979  17.906  0.00  0.00    +0.000 A 
ATOM     15  C   UNL     1       1.766   2.652  18.317  0.00  0.00    +0.000 A 
ATOM     16  C   UNL     1       1.905   2.309  19.661  0.00  0.00    +0.000 A 
ATOM     17  C   UNL     1       2.190   3.299  20.596  0.00  0.00    +0.000 A 
ATOM     18  C   UNL     1       2.352   4.624  20.193  0.00  0.00    +0.000 A 
ENDBRANCH   9  13
BRANCH  10  19
ATOM     19  C   UNL     1       4.839   6.168  17.291  0.00  0.00    +0.000 A 
ATOM     20  C   UNL     1       5.173   5.927  15.970  0.00  0.00    +0.000 A 
ATOM     21  C   UNL     1       6.314   5.087  15.840  0.00  0.00    +0.000 A 
ATOM     22  C   UNL     1       6.861   4.783  17.065  0.00  0.00    +0.000 A 
ATOM     23  S   UNL     1       6.000   5.502  18.355  0.00  0.00    +0.000 S 
ENDBRANCH  10  19
ENDBRANCH   3   7
BRANCH   6  24
ATOM     24  O   UNL     1      -0.552  13.232  19.125  0.00  0.00    +0.000 OA
ATOM     25  H   UNL     1      -1.484  13.086  18.869  0.00  0.00    +0.000 HD
ENDBRANCH   6  24
BRANCH   1  26
ATOM     26  O   UNL     1       2.225  13.389  18.156  0.00  0.00    +0.000 OA
BRANCH  26  28
ATOM     27  C   UNL     1       4.204  14.589  19.028  0.00  0.00    +0.000 C 
ATOM     28  C   UNL     1       2.762  14.118  19.295  0.00  0.00    +0.000 C 
ATOM     29  C   UNL     1       2.543  13.410  20.647  0.00  0.00    +0.000 C 
ATOM     30  C   UNL     1       1.949  15.437  19.398  0.00  0.00    +0.000 C 
ENDBRANCH  26  28
ENDBRANCH   1  26
BRANCH   5  31
ATOM     31  O   UNL     1      -1.897  10.982  18.921  0.00  0.00    +0.000 OA
BRANCH  31  32
ATOM     32  C   UNL     1      -2.887  10.817  17.877  0.00  0.00    +0.000 C 
ATOM     33  C   UNL     1      -3.472   9.393  17.814  0.00  0.00    +0.000 C 
ATOM     34  C   UNL     1      -4.036  11.768  18.283  0.00  0.00    +0.000 C 
ATOM     35  C   UNL     1      -2.386  11.313  16.510  0.00  0.00    +0.000 C 
ENDBRANCH  31  32
ENDBRANCH   5  31
TORSDOF 8
ENDMDL
MODEL 4
REMARK VINA RESULT:      -8.2      0.404      1.194
REMARK  Name = 
REMARK  14 active torsions:
REMARK  status: ('A' for Active; 'I' for Inactive)
REMARK    1  A    between atoms: C_1  and  C_2
REMARK    2  A    between atoms: C_2  and  C_3
REMARK    3  A    between atoms: C_2  and  C_4
REMARK    4  A    between atoms: C_2  and  O_5
REMARK    5  A    between atoms: O_5  and  C_6
REMARK    6  A    between atoms: C_8  and  C_9
REMARK    7  A    between atoms: C_11  and  C_12
REMARK    8  A    between atoms: C_18  and  C_19
REMARK    9  A    between atoms: C_26  and  O_27
REMARK   10  A    between atoms: O_27  and  C_28
REMARK   11  A    between atoms: C_28  and  C_29
REMARK   12  A    between atoms: C_28  and  C_30
REMARK   13  A    between atoms: C_28  and  C_31
REMARK   14  A    between atoms: C_32  and  O_33
REMARK                            x       y       z     vdW  Elec       q    Type
REMARK                         _______ _______ _______ _____ _____    ______ ____
ROOT
ATOM      1  C   UNL     1       4.544   6.184  17.321  0.00  0.00    +0.000 A 
ATOM      2  C   UNL     1       3.938   7.427  17.608  0.00  0.00    +0.000 A 
ATOM      3  C   UNL     1       2.589   7.491  18.003  0.00  0.00    +0.000 A 
ATOM      4  C   UNL     1       1.886   6.296  18.193  0.00  0.00    +0.000 A 
ATOM      5  C   UNL     1       2.422   5.073  17.841  0.00  0.00    +0.000 A 
ATOM      6  C   UNL     1       3.736   5.039  17.356  0.00  0.00    +0.000 A 
ENDROOT
BRANCH   3   7
ATOM      7  C   UNL     1       1.798   8.721  18.158  0.00  0.00    +0.000 A 
ATOM      8  N   UNL     1       0.481   8.772  18.014  0.00  0.00    +0.000 NA
ATOM      9  C   UNL     1       0.109  10.081  18.207  0.00  0.00    +0.000 A 
ATOM     10  C   UNL     1       1.209  10.834  18.584  0.00  0.00    +0.000 A 
ATOM     11  N   UNL     1       2.277   9.964  18.485  0.00  0.00    +0.000 N 
ATOM     12  H   UNL     1       3.245  10.187  18.692  0.00  0.00    +0.000 HD
BRANCH   9  13
ATOM     13  C   UNL     1      -1.268  10.542  18.037  0.00  0.00    +0.000 A 
ATOM     14  C   UNL     1      -1.879  11.333  19.018  0.00  0.00    +0.000 A 
ATOM     15  C   UNL     1      -3.176  11.829  18.829  0.00  0.00    +0.000 A 
ATOM     16  C   UNL     1      -3.875  11.536  17.660  0.00  0.00    +0.000 A 
ATOM     17  C   UNL     1      -3.291  10.720  16.697  0.00  0.00    +0.000 A 
ATOM     18  C   UNL     1      -2.008  10.208  16.890  0.00  0.00    +0.000 A 
ENDBRANCH   9  13
BRANCH  10  19
ATOM     19  C   UNL     1       1.324  12.202  18.997  0.00  0.00    +0.000 A 
ATOM     20  C   UNL     1       1.590  13.290  18.185  0.00  0.00    +0.000 A 
ATOM     21  C   UNL     1       1.819  14.482  18.927  0.00  0.00    +0.000 A 
ATOM     22  C   UNL     1       1.639  14.281  20.275  0.00  0.00    +0.000 A 
ATOM     23  S   UNL     1       1.202  12.668  20.638  0.00  0.00    +0.000 S 
ENDBRANCH  10  19
ENDBRANCH   3   7
BRANCH   6  24
ATOM     24  O   UNL     1       4.180   3.840  16.872  0.00  0.00    +0.000 OA
ATOM     25  H   UNL     1       4.997   3.635  17.366  0.00  0.00    +0.000 HD
ENDBRANCH   6  24
BRANCH   1  26
ATOM     26  O   UNL     1       5.881   6.242  16.993  0.00  0.00    +0.000 OA
BRANCH  26  28
ATOM     27  C   UNL     1       7.745   4.636  17.239  0.00  0.00    +0.000 C 
ATOM     28  C   UNL     1       6.922   5.764  17.890  0.00  0.00    +0.000 C 
ATOM     29  C   UNL     1       6.427   5.473  19.321  0.00  0.00    +0.000 C 
ATOM     30  C   UNL     1       7.938   6.927  18.047  0.00  0.00    +0.000 C 
ENDBRANCH  26  28
ENDBRANCH   1  26
BRANCH   5  31
ATOM     31  O   UNL     1       1.779   3.866  17.943  0.00  0.00    +0.000 OA
BRANCH  31  32
ATOM     32  C   UNL     1       1.907   3.030  19.119  0.00  0.00    +0.000 C 
ATOM     33  C   UNL     1       2.536   3.763  20.320  0.00  0.00    +0.000 C 
ATOM     34  C   UNL     1       0.452   2.680  19.504  0.00  0.00    +0.000 C 
ATOM     35  C   UNL     1       2.600   1.692  18.812  0.00  0.00    +0.000 C 
ENDBRANCH  31  32
ENDBRANCH   5  31
TORSDOF 8
ENDMDL
MODEL 5
REMARK VINA RESULT:      -8.1      3.255      8.164
REMARK  Name = 
REMARK  14 active torsions:
REMARK  status: ('A' for Active; 'I' for Inactive)
REMARK    1  A    between atoms: C_1  and  C_2
REMARK    2  A    between atoms: C_2  and  C_3
REMARK    3  A    between atoms: C_2  and  C_4
REMARK    4  A    between atoms: C_2  and  O_5
REMARK    5  A    between atoms: O_5  and  C_6
REMARK    6  A    between atoms: C_8  and  C_9
REMARK    7  A    between atoms: C_11  and  C_12
REMARK    8  A    between atoms: C_18  and  C_19
REMARK    9  A    between atoms: C_26  and  O_27
REMARK   10  A    between atoms: O_27  and  C_28
REMARK   11  A    between atoms: C_28  and  C_29
REMARK   12  A    between atoms: C_28  and  C_30
REMARK   13  A    between atoms: C_28  and  C_31
REMARK   14  A    between atoms: C_32  and  O_33
REMARK                            x       y       z     vdW  Elec       q    Type
REMARK                         _______ _______ _______ _____ _____    ______ ____
ROOT
ATOM      1  C   UNL     1       1.467  12.292  18.275  0.00  0.00    +0.000 A 
ATOM      2  C   UNL     1       2.160  11.075  18.090  0.00  0.00    +0.000 A 
ATOM      3  C   UNL     1       1.483   9.846  18.178  0.00  0.00    +0.000 A 
ATOM      4  C   UNL     1       0.095   9.852  18.363  0.00  0.00    +0.000 A 
ATOM      5  C   UNL     1      -0.596  11.017  18.631  0.00  0.00    +0.000 A 
ATOM      6  C   UNL     1       0.113  12.224  18.636  0.00  0.00    +0.000 A 
ENDROOT
BRANCH   3   7
ATOM      7  C   UNL     1       2.114   8.517  18.181  0.00  0.00    +0.000 A 
ATOM      8  N   UNL     1       1.574   7.447  18.747  0.00  0.00    +0.000 NA
ATOM      9  C   UNL     1       2.460   6.411  18.569  0.00  0.00    +0.000 A 
ATOM     10  C   UNL     1       3.521   6.828  17.782  0.00  0.00    +0.000 A 
ATOM     11  N   UNL     1       3.311   8.181  17.602  0.00  0.00    +0.000 N 
ATOM     12  H   UNL     1       3.904   8.807  17.067  0.00  0.00    +0.000 HD
BRANCH   9  13
ATOM     13  C   UNL     1       2.245   5.083  19.142  0.00  0.00    +0.000 A 
ATOM     14  C   UNL     1       2.683   4.789  20.439  0.00  0.00    +0.000 A 
ATOM     15  C   UNL     1       2.423   3.538  21.013  0.00  0.00    +0.000 A 
ATOM     16  C   UNL     1       1.725   2.568  20.295  0.00  0.00    +0.000 A 
ATOM     17  C   UNL     1       1.320   2.838  18.992  0.00  0.00    +0.000 A 
ATOM     18  C   UNL     1       1.595   4.075  18.410  0.00  0.00    +0.000 A 
ENDBRANCH   9  13
BRANCH  10  19
ATOM     19  C   UNL     1       4.631   6.107  17.231  0.00  0.00    +0.000 A 
ATOM     20  C   UNL     1       4.584   4.880  16.593  0.00  0.00    +0.000 A 
ATOM     21  C   UNL     1       5.878   4.354  16.325  0.00  0.00    +0.000 A 
ATOM     22  C   UNL     1       6.868   5.235  16.692  0.00  0.00    +0.000 A 
ATOM     23  S   UNL     1       6.239   6.678  17.358  0.00  0.00    +0.000 S 
ENDBRANCH  10  19
ENDBRANCH   3   7
BRANCH   6  24
ATOM     24  O   UNL     1      -0.567  13.334  19.056  0.00  0.00    +0.000 OA
ATOM     25  H   UNL     1       0.069  13.856  19.583  0.00  0.00    +0.000 HD
ENDBRANCH   6  24
BRANCH   1  26
ATOM     26  O   UNL     1       2.223  13.432  18.116  0.00  0.00    +0.000 OA
BRANCH  26  28
ATOM     27  C   UNL     1       4.229  14.611  18.953  0.00  0.00    +0.000 C 
ATOM     28  C   UNL     1       2.787  14.154  19.246  0.00  0.00    +0.000 C 
ATOM     29  C   UNL     1       2.586  13.446  20.600  0.00  0.00    +0.000 C 
ATOM     30  C   UNL     1       1.990  15.481  19.365  0.00  0.00    +0.000 C 
ENDBRANCH  26  28
ENDBRANCH   1  26
BRANCH   5  31
ATOM     31  O   UNL     1      -1.943  11.100  18.878  0.00  0.00    +0.000 OA
BRANCH  31  32
ATOM     32  C   UNL     1      -2.922  10.994  17.816  0.00  0.00    +0.000 C 
ATOM     33  C   UNL     1      -2.349  11.337  16.427  0.00  0.00    +0.000 C 
ATOM     34  C   UNL     1      -3.310   9.498  17.797  0.00  0.00    +0.000 C 
ATOM     35  C   UNL     1      -4.214  11.766  18.132  0.00  0.00    +0.000 C 
ENDBRANCH  31  32
ENDBRANCH   5  31
TORSDOF 8
ENDMDL
MODEL 6
REMARK VINA RESULT:      -8.1      0.697      1.141
REMARK  Name = 
REMARK  14 active torsions:
REMARK  status: ('A' for Active; 'I' for Inactive)
REMARK    1  A    between atoms: C_1  and  C_2
REMARK    2  A    between atoms: C_2  and  C_3
REMARK    3  A    between atoms: C_2  and  C_4
REMARK    4  A    between atoms: C_2  and  O_5
REMARK    5  A    between atoms: O_5  and  C_6
REMARK    6  A    between atoms: C_8  and  C_9
REMARK    7  A    between atoms: C_11  and  C_12
REMARK    8  A    between atoms: C_18  and  C_19
REMARK    9  A    between atoms: C_26  and  O_27
REMARK   10  A    between atoms: O_27  and  C_28
REMARK   11  A    between atoms: C_28  and  C_29
REMARK   12  A    between atoms: C_28  and  C_30
REMARK   13  A    between atoms: C_28  and  C_31
REMARK   14  A    between atoms: C_32  and  O_33
REMARK                            x       y       z     vdW  Elec       q    Type
REMARK                         _______ _______ _______ _____ _____    ______ ____
ROOT
ATOM      1  C   UNL     1       4.446   6.277  17.254  0.00  0.00    +0.000 A 
ATOM      2  C   UNL     1       3.831   7.511  17.562  0.00  0.00    +0.000 A 
ATOM      3  C   UNL     1       2.517   7.551  18.063  0.00  0.00    +0.000 A 
ATOM      4  C   UNL     1       1.863   6.343  18.334  0.00  0.00    +0.000 A 
ATOM      5  C   UNL     1       2.402   5.126  17.966  0.00  0.00    +0.000 A 
ATOM      6  C   UNL     1       3.674   5.113  17.378  0.00  0.00    +0.000 A 
ENDROOT
BRANCH   3   7
ATOM      7  C   UNL     1       1.708   8.764  18.254  0.00  0.00    +0.000 A 
ATOM      8  N   UNL     1       0.410   8.831  17.995  0.00  0.00    +0.000 NA
ATOM      9  C   UNL     1       0.014  10.119  18.270  0.00  0.00    +0.000 A 
ATOM     10  C   UNL     1       1.071  10.831  18.812  0.00  0.00    +0.000 A 
ATOM     11  N   UNL     1       2.149   9.971  18.734  0.00  0.00    +0.000 N 
ATOM     12  H   UNL     1       3.092  10.172  19.048  0.00  0.00    +0.000 HD
BRANCH   9  13
ATOM     13  C   UNL     1      -1.344  10.597  18.017  0.00  0.00    +0.000 A 
ATOM     14  C   UNL     1      -2.023  10.224  16.851  0.00  0.00    +0.000 A 
ATOM     15  C   UNL     1      -3.347  10.629  16.636  0.00  0.00    +0.000 A 
ATOM     16  C   UNL     1      -4.003  11.413  17.583  0.00  0.00    +0.000 A 
ATOM     17  C   UNL     1      -3.324  11.820  18.726  0.00  0.00    +0.000 A 
ATOM     18  C   UNL     1      -2.000  11.436  18.934  0.00  0.00    +0.000 A 
ENDBRANCH   9  13
BRANCH  10  19
ATOM     19  C   UNL     1       1.140  12.156  19.355  0.00  0.00    +0.000 A 
ATOM     20  C   UNL     1       0.895  12.524  20.666  0.00  0.00    +0.000 A 
ATOM     21  C   UNL     1       0.869  13.936  20.841  0.00  0.00    +0.000 A 
ATOM     22  C   UNL     1       1.177  14.596  19.675  0.00  0.00    +0.000 A 
ATOM     23  S   UNL     1       1.489  13.520  18.384  0.00  0.00    +0.000 S 
ENDBRANCH  10  19
ENDBRANCH   3   7
BRANCH   6  24
ATOM     24  O   UNL     1       4.110   3.915  16.885  0.00  0.00    +0.000 OA
ATOM     25  H   UNL     1       4.789   4.130  16.216  0.00  0.00    +0.000 HD
ENDBRANCH   6  24
BRANCH   1  26
ATOM     26  O   UNL     1       5.750   6.361  16.819  0.00  0.00    +0.000 OA
BRANCH  26  28
ATOM     27  C   UNL     1       7.650   4.781  16.906  0.00  0.00    +0.000 C 
ATOM     28  C   UNL     1       6.869   5.897  17.624  0.00  0.00    +0.000 C 
ATOM     29  C   UNL     1       6.500   5.600  19.091  0.00  0.00    +0.000 C 
ATOM     30  C   UNL     1       7.879   7.074  17.696  0.00  0.00    +0.000 C 
ENDBRANCH  26  28
ENDBRANCH   1  26
BRANCH   5  31
ATOM     31  O   UNL     1       1.802   3.907  18.145  0.00  0.00    +0.000 OA
BRANCH  31  32
ATOM     32  C   UNL     1       1.843   3.215  19.417  0.00  0.00    +0.000 C 
ATOM     33  C   UNL     1       0.691   3.611  20.361  0.00  0.00    +0.000 C 
ATOM     34  C   UNL     1       1.646   1.726  19.052  0.00  0.00    +0.000 C 
ATOM     35  C   UNL     1       3.222   3.310  20.091  0.00  0.00    +0.000 C 
ENDBRANCH  31  32
ENDBRANCH   5  31
TORSDOF 8
ENDMDL
MODEL 7
REMARK VINA RESULT:      -8.1      1.125      3.259
REMARK  Name = 
REMARK  14 active torsions:
REMARK  status: ('A' for Active; 'I' for Inactive)
REMARK    1  A    between atoms: C_1  and  C_2
REMARK    2  A    between atoms: C_2  and  C_3
REMARK    3  A    between atoms: C_2  and  C_4
REMARK    4  A    between atoms: C_2  and  O_5
REMARK    5  A    between atoms: O_5  and  C_6
REMARK    6  A    between atoms: C_8  and  C_9
REMARK    7  A    between atoms: C_11  and  C_12
REMARK    8  A    between atoms: C_18  and  C_19
REMARK    9  A    between atoms: C_26  and  O_27
REMARK   10  A    between atoms: O_27  and  C_28
REMARK   11  A    between atoms: C_28  and  C_29
REMARK   12  A    between atoms: C_28  and  C_30
REMARK   13  A    between atoms: C_28  and  C_31
REMARK   14  A    between atoms: C_32  and  O_33
REMARK                            x       y       z     vdW  Elec       q    Type
REMARK                         _______ _______ _______ _____ _____    ______ ____
ROOT
ATOM      1  C   UNL     1       4.547   6.219  17.246  0.00  0.00    +0.000 A 
ATOM      2  C   UNL     1       3.957   7.466  17.549  0.00  0.00    +0.000 A 
ATOM      3  C   UNL     1       2.641   7.535  18.040  0.00  0.00    +0.000 A 
ATOM      4  C   UNL     1       1.958   6.342  18.307  0.00  0.00    +0.000 A 
ATOM      5  C   UNL     1       2.473   5.113  17.943  0.00  0.00    +0.000 A 
ATOM      6  C   UNL     1       3.748   5.072  17.365  0.00  0.00    +0.000 A 
ENDROOT
BRANCH   3   7
ATOM      7  C   UNL     1       1.857   8.765  18.225  0.00  0.00    +0.000 A 
ATOM      8  N   UNL     1       2.393   9.941  18.528  0.00  0.00    +0.000 NA
ATOM      9  C   UNL     1       1.355  10.834  18.644  0.00  0.00    +0.000 A 
ATOM     10  C   UNL     1       0.162  10.219  18.300  0.00  0.00    +0.000 A 
ATOM     11  N   UNL     1       0.498   8.894  18.100  0.00  0.00    +0.000 N 
ATOM     12  H   UNL     1      -0.143   8.154  17.832  0.00  0.00    +0.000 HD
BRANCH   9  13
ATOM     13  C   UNL     1       1.552  12.221  19.060  0.00  0.00    +0.000 A 
ATOM     14  C   UNL     1       1.523  12.568  20.416  0.00  0.00    +0.000 A 
ATOM     15  C   UNL     1       1.775  13.885  20.821  0.00  0.00    +0.000 A 
ATOM     16  C   UNL     1       2.054  14.869  19.874  0.00  0.00    +0.000 A 
ATOM     17  C   UNL     1       2.047  14.542  18.522  0.00  0.00    +0.000 A 
ATOM     18  C   UNL     1       1.778  13.237  18.114  0.00  0.00    +0.000 A 
ENDBRANCH   9  13
BRANCH  10  19
ATOM     19  C   UNL     1      -1.166  10.741  18.157  0.00  0.00    +0.000 A 
ATOM     20  C   UNL     1      -1.813  11.599  19.028  0.00  0.00    +0.000 A 
ATOM     21  C   UNL     1      -3.184  11.783  18.694  0.00  0.00    +0.000 A 
ATOM     22  C   UNL     1      -3.515  11.125  17.534  0.00  0.00    +0.000 A 
ATOM     23  S   UNL     1      -2.184  10.291  16.859  0.00  0.00    +0.000 S 
ENDBRANCH  10  19
ENDBRANCH   3   7
BRANCH   6  24
ATOM     24  O   UNL     1       4.162   3.865  16.876  0.00  0.00    +0.000 OA
ATOM     25  H   UNL     1       3.603   3.684  16.095  0.00  0.00    +0.000 HD
ENDBRANCH   6  24
BRANCH   1  26
ATOM     26  O   UNL     1       5.856   6.274  16.821  0.00  0.00    +0.000 OA
BRANCH  26  28
ATOM     27  C   UNL     1       7.889   7.113  17.950  0.00  0.00    +0.000 C 
ATOM     28  C   UNL     1       6.969   5.907  17.683  0.00  0.00    +0.000 C 
ATOM     29  C   UNL     1       7.690   4.614  17.253  0.00  0.00    +0.000 C 
ATOM     30  C   UNL     1       6.361   5.583  19.075  0.00  0.00    +0.000 C 
ENDBRANCH  26  28
ENDBRANCH   1  26
BRANCH   5  31
ATOM     31  O   UNL     1       1.845   3.907  18.119  0.00  0.00    +0.000 OA
BRANCH  31  32
ATOM     32  C   UNL     1       1.884   3.203  19.383  0.00  0.00    +0.000 C 
ATOM     33  C   UNL     1       0.612   3.404  20.230  0.00  0.00    +0.000 C 
ATOM     34  C   UNL     1       1.942   1.709  18.990  0.00  0.00    +0.000 C 
ATOM     35  C   UNL     1       3.172   3.486  20.173  0.00  0.00    +0.000 C 
ENDBRANCH  31  32
ENDBRANCH   5  31
TORSDOF 8
ENDMDL
MODEL 8
REMARK VINA RESULT:      -8.1      3.290      8.157
REMARK  Name = 
REMARK  14 active torsions:
REMARK  status: ('A' for Active; 'I' for Inactive)
REMARK    1  A    between atoms: C_1  and  C_2
REMARK    2  A    between atoms: C_2  and  C_3
REMARK    3  A    between atoms: C_2  and  C_4
REMARK    4  A    between atoms: C_2  and  O_5
REMARK    5  A    between atoms: O_5  and  C_6
REMARK    6  A    between atoms: C_8  and  C_9
REMARK    7  A    between atoms: C_11  and  C_12
REMARK    8  A    between atoms: C_18  and  C_19
REMARK    9  A    between atoms: C_26  and  O_27
REMARK   10  A    between atoms: O_27  and  C_28
REMARK   11  A    between atoms: C_28  and  C_29
REMARK   12  A    between atoms: C_28  and  C_30
REMARK   13  A    between atoms: C_28  and  C_31
REMARK   14  A    between atoms: C_32  and  O_33
REMARK                            x       y       z     vdW  Elec       q    Type
REMARK                         _______ _______ _______ _____ _____    ______ ____
ROOT
ATOM      1  C   UNL     1       1.421  12.364  18.307  0.00  0.00    +0.000 A 
ATOM      2  C   UNL     1       2.115  11.139  18.193  0.00  0.00    +0.000 A 
ATOM      3  C   UNL     1       1.426   9.916  18.289  0.00  0.00    +0.000 A 
ATOM      4  C   UNL     1       0.031   9.935  18.410  0.00  0.00    +0.000 A 
ATOM      5  C   UNL     1      -0.664  11.112  18.609  0.00  0.00    +0.000 A 
ATOM      6  C   UNL     1       0.052  12.315  18.608  0.00  0.00    +0.000 A 
ENDROOT
BRANCH   3   7
ATOM      7  C   UNL     1       2.048   8.585  18.363  0.00  0.00    +0.000 A 
ATOM      8  N   UNL     1       1.462   7.528  18.909  0.00  0.00    +0.000 NA
ATOM      9  C   UNL     1       2.352   6.485  18.815  0.00  0.00    +0.000 A 
ATOM     10  C   UNL     1       3.470   6.882  18.100  0.00  0.00    +0.000 A 
ATOM     11  N   UNL     1       3.281   8.232  17.879  0.00  0.00    +0.000 N 
ATOM     12  H   UNL     1       3.915   8.845  17.376  0.00  0.00    +0.000 HD
BRANCH   9  13
ATOM     13  C   UNL     1       2.089   5.170  19.396  0.00  0.00    +0.000 A 
ATOM     14  C   UNL     1       1.620   4.121  18.595  0.00  0.00    +0.000 A 
ATOM     15  C   UNL     1       1.428   2.842  19.136  0.00  0.00    +0.000 A 
ATOM     16  C   UNL     1       1.698   2.602  20.482  0.00  0.00    +0.000 A 
ATOM     17  C   UNL     1       2.127   3.647  21.293  0.00  0.00    +0.000 A 
ATOM     18  C   UNL     1       2.301   4.925  20.763  0.00  0.00    +0.000 A 
ENDBRANCH   9  13
BRANCH  10  19
ATOM     19  C   UNL     1       4.613   6.146  17.644  0.00  0.00    +0.000 A 
ATOM     20  C   UNL     1       5.411   5.309  18.402  0.00  0.00    +0.000 A 
ATOM     21  C   UNL     1       6.569   4.874  17.699  0.00  0.00    +0.000 A 
ATOM     22  C   UNL     1       6.572   5.327  16.401  0.00  0.00    +0.000 A 
ATOM     23  S   UNL     1       5.194   6.271  16.040  0.00  0.00    +0.000 S 
ENDBRANCH  10  19
ENDBRANCH   3   7
BRANCH   6  24
ATOM     24  O   UNL     1      -0.638  13.441  18.961  0.00  0.00    +0.000 OA
ATOM     25  H   UNL     1      -1.451  13.440  18.419  0.00  0.00    +0.000 HD
ENDBRANCH   6  24
BRANCH   1  26
ATOM     26  O   UNL     1       2.192  13.494  18.147  0.00  0.00    +0.000 OA
BRANCH  26  28
ATOM     27  C   UNL     1       2.598  13.521  20.586  0.00  0.00    +0.000 C 
ATOM     28  C   UNL     1       2.598  14.324  19.271  0.00  0.00    +0.000 C 
ATOM     29  C   UNL     1       1.876  15.685  19.334  0.00  0.00    +0.000 C 
ATOM     30  C   UNL     1       4.093  14.674  19.045  0.00  0.00    +0.000 C 
ENDBRANCH  26  28
ENDBRANCH   1  26
BRANCH   5  31
ATOM     31  O   UNL     1      -2.020  11.209  18.791  0.00  0.00    +0.000 OA
BRANCH  31  32
ATOM     32  C   UNL     1      -2.957  10.878  17.738  0.00  0.00    +0.000 C 
ATOM     33  C   UNL     1      -3.419   9.408  17.777  0.00  0.00    +0.000 C 
ATOM     34  C   UNL     1      -4.195  11.756  18.035  0.00  0.00    +0.000 C 
ATOM     35  C   UNL     1      -2.454  11.305  16.349  0.00  0.00    +0.000 C 
ENDBRANCH  31  32
ENDBRANCH   5  31
TORSDOF 8
ENDMDL
MODEL 9
REMARK VINA RESULT:      -8.0      1.125      3.251
REMARK  Name = 
REMARK  14 active torsions:
REMARK  status: ('A' for Active; 'I' for Inactive)
REMARK    1  A    between atoms: C_1  and  C_2
REMARK    2  A    between atoms: C_2  and  C_3
REMARK    3  A    between atoms: C_2  and  C_4
REMARK    4  A    between atoms: C_2  and  O_5
REMARK    5  A    between atoms: O_5  and  C_6
REMARK    6  A    between atoms: C_8  and  C_9
REMARK    7  A    between atoms: C_11  and  C_12
REMARK    8  A    between atoms: C_18  and  C_19
REMARK    9  A    between atoms: C_26  and  O_27
REMARK   10  A    between atoms: O_27  and  C_28
REMARK   11  A    between atoms: C_28  and  C_29
REMARK   12  A    between atoms: C_28  and  C_30
REMARK   13  A    between atoms: C_28  and  C_31
REMARK   14  A    between atoms: C_32  and  O_33
REMARK                            x       y       z     vdW  Elec       q    Type
REMARK                         _______ _______ _______ _____ _____    ______ ____
ROOT
ATOM      1  C   UNL     1       4.448   6.288  17.253  0.00  0.00    +0.000 A 
ATOM      2  C   UNL     1       3.852   7.531  17.563  0.00  0.00    +0.000 A 
ATOM      3  C   UNL     1       2.539   7.591  18.062  0.00  0.00    +0.000 A 
ATOM      4  C   UNL     1       1.865   6.393  18.330  0.00  0.00    +0.000 A 
ATOM      5  C   UNL     1       2.385   5.169  17.960  0.00  0.00    +0.000 A 
ATOM      6  C   UNL     1       3.657   5.137  17.374  0.00  0.00    +0.000 A 
ENDROOT
BRANCH   3   7
ATOM      7  C   UNL     1       1.749   8.816  18.255  0.00  0.00    +0.000 A 
ATOM      8  N   UNL     1       2.276   9.986  18.592  0.00  0.00    +0.000 NA
ATOM      9  C   UNL     1       1.234  10.875  18.704  0.00  0.00    +0.000 A 
ATOM     10  C   UNL     1       0.050  10.265  18.323  0.00  0.00    +0.000 A 
ATOM     11  N   UNL     1       0.393   8.945  18.104  0.00  0.00    +0.000 N 
ATOM     12  H   UNL     1      -0.241   8.210  17.807  0.00  0.00    +0.000 HD
BRANCH   9  13
ATOM     13  C   UNL     1       1.420  12.254  19.151  0.00  0.00    +0.000 A 
ATOM     14  C   UNL     1       1.662  13.276  18.225  0.00  0.00    +0.000 A 
ATOM     15  C   UNL     1       1.778  14.608  18.645  0.00  0.00    +0.000 A 
ATOM     16  C   UNL     1       1.655  14.930  19.995  0.00  0.00    +0.000 A 
ATOM     17  C   UNL     1       1.452  13.917  20.927  0.00  0.00    +0.000 A 
ATOM     18  C   UNL     1       1.357  12.589  20.515  0.00  0.00    +0.000 A 
ENDBRANCH   9  13
BRANCH  10  19
ATOM     19  C   UNL     1      -1.275  10.788  18.162  0.00  0.00    +0.000 A 
ATOM     20  C   UNL     1      -1.946  11.620  19.041  0.00  0.00    +0.000 A 
ATOM     21  C   UNL     1      -3.309  11.811  18.679  0.00  0.00    +0.000 A 
ATOM     22  C   UNL     1      -3.610  11.185  17.493  0.00  0.00    +0.000 A 
ATOM     23  S   UNL     1      -2.261  10.372  16.828  0.00  0.00    +0.000 S 
ENDBRANCH  10  19
ENDBRANCH   3   7
BRANCH   6  24
ATOM     24  O   UNL     1       4.074   3.932  16.879  0.00  0.00    +0.000 OA
ATOM     25  H   UNL     1       4.041   3.306  17.629  0.00  0.00    +0.000 HD
ENDBRANCH   6  24
BRANCH   1  26
ATOM     26  O   UNL     1       5.753   6.351  16.820  0.00  0.00    +0.000 OA
BRANCH  26  28
ATOM     27  C   UNL     1       7.651   4.769  16.904  0.00  0.00    +0.000 C 
ATOM     28  C   UNL     1       6.865   5.877  17.630  0.00  0.00    +0.000 C 
ATOM     29  C   UNL     1       6.482   5.561  19.089  0.00  0.00    +0.000 C 
ATOM     30  C   UNL     1       7.875   7.052  17.726  0.00  0.00    +0.000 C 
ENDBRANCH  26  28
ENDBRANCH   1  26
BRANCH   5  31
ATOM     31  O   UNL     1       1.765   3.958  18.137  0.00  0.00    +0.000 OA
BRANCH  31  32
ATOM     32  C   UNL     1       1.809   3.255  19.402  0.00  0.00    +0.000 C 
ATOM     33  C   UNL     1       0.652   3.632  20.347  0.00  0.00    +0.000 C 
ATOM     34  C   UNL     1       1.626   1.768  19.022  0.00  0.00    +0.000 C 
ATOM     35  C   UNL     1       3.185   3.355  20.080  0.00  0.00    +0.000 C 
ENDBRANCH  31  32
ENDBRANCH   5  31
TORSDOF 8
ENDMDL
