MODEL 1
REMARK VINA RESULT:      -7.2      0.000      0.000
REMARK  Name = 
REMARK  7 active torsions:
REMARK  status: ('A' for Active; 'I' for Inactive)
REMARK    1  A    between atoms: S_2  and  N_4
REMARK    2  A    between atoms: S_2  and  C_18
REMARK    3  A    between atoms: N_4  and  C_5
REMARK    4  A    between atoms: C_5  and  C_6
REMARK    5  A    between atoms: C_6  and  O_7
REMARK    6  A    between atoms: C_6  and  C_8
REMARK    7  A    between atoms: C_11  and  C_12
REMARK                            x       y       z     vdW  Elec       q    Type
REMARK                         _______ _______ _______ _____ _____    ______ ____
ROOT
ATOM      1  C   UNL     1       6.259   5.714  18.107  0.00  0.00    +0.000 C 
ENDROOT
BRANCH   1   2
ATOM      2  C   UNL     1       4.956   5.022  18.468  0.00  0.00    +0.000 A 
ATOM      3  C   UNL     1       3.737   5.511  17.974  0.00  0.00    +0.000 A 
ATOM      4  C   UNL     1       2.523   4.919  18.344  0.00  0.00    +0.000 A 
ATOM      5  C   UNL     1       2.502   3.818  19.211  0.00  0.00    +0.000 A 
ATOM      6  C   UNL     1       3.720   3.318  19.693  0.00  0.00    +0.000 A 
ATOM      7  C   UNL     1       4.930   3.913  19.329  0.00  0.00    +0.000 A 
BRANCH   5   8
ATOM      8  C   UNL     1       1.203   3.175  19.634  0.00  0.00    +0.000 C 
ATOM      9  F   UNL     1       1.362   2.145  20.509  0.00  0.00    +0.000 F 
ATOM     10  F   UNL     1       0.363   4.057  20.244  0.00  0.00    +0.000 F 
ATOM     11  F   UNL     1       0.510   2.667  18.580  0.00  0.00    +0.000 F 
ENDBRANCH   5   8
ENDBRANCH   1   2
BRANCH   1  12
ATOM     12  O   UNL     1       6.025   6.871  17.290  0.00  0.00    +0.000 OA
ATOM     13  H   UNL     1       5.090   6.870  17.021  0.00  0.00    +0.000 HD
ENDBRANCH   1  12
BRANCH   1  14
ATOM     14  C   UNL     1       7.209   4.772  17.348  0.00  0.00    +0.000 C 
BRANCH  14  15
ATOM     15  N   UNL     1       6.456   3.995  16.315  0.00  0.00    +0.000 NA
ATOM     16  H   UNL     1       6.855   3.055  16.245  0.00  0.00    +0.000 HD
BRANCH  15  18
ATOM     17  O   UNL     1       5.250   5.560  14.733  0.00  0.00    +0.000 OA
ATOM     18  S   UNL     1       6.453   4.763  14.806  0.00  0.00    +0.000 S 
ATOM     19  O   UNL     1       7.763   5.359  14.663  0.00  0.00    +0.000 OA
BRANCH  18  20
ATOM     20  C   UNL     1       6.371   3.459  13.548  0.00  0.00    +0.000 C 
ATOM     21  C   UNL     1       5.291   3.645  12.515  0.00  0.00    +0.000 C 
ATOM     22  C   UNL     1       6.728   3.890  12.149  0.00  0.00    +0.000 C 
ENDBRANCH  18  20
ENDBRANCH  15  18
ENDBRANCH  14  15
ENDBRANCH   1  14
TORSDOF 7
ENDMDL
MODEL 2
REMARK VINA RESULT:      -7.0      4.519      6.902
REMARK  Name = 
REMARK  7 active torsions:
REMARK  status: ('A' for Active; 'I' for Inactive)
REMARK    1  A    between atoms: S_2  and  N_4
REMARK    2  A    between atoms: S_2  and  C_18
REMARK    3  A    between atoms: N_4  and  C_5
REMARK    4  A    between atoms: C_5  and  C_6
REMARK    5  A    between atoms: C_6  and  O_7
REMARK    6  A    between atoms: C_6  and  C_8
REMARK    7  A    between atoms: C_11  and  C_12
REMARK                            x       y       z     vdW  Elec       q    Type
REMARK                         _______ _______ _______ _____ _____    ______ ____
ROOT
ATOM      1  C   UNL     1       5.965   5.055  17.825  0.00  0.00    +0.000 C 
ENDROOT
BRANCH   1   2
ATOM      2  C   UNL     1       6.102   4.659  16.365  0.00  0.00    +0.000 A 
ATOM      3  C   UNL     1       7.244   5.028  15.638  0.00  0.00    +0.000 A 
ATOM      4  C   UNL     1       7.359   4.720  14.277  0.00  0.00    +0.000 A 
ATOM      5  C   UNL     1       6.336   4.029  13.614  0.00  0.00    +0.000 A 
ATOM      6  C   UNL     1       5.201   3.646  14.342  0.00  0.00    +0.000 A 
ATOM      7  C   UNL     1       5.084   3.958  15.698  0.00  0.00    +0.000 A 
BRANCH   5   8
ATOM      8  C   UNL     1       6.434   3.702  12.143  0.00  0.00    +0.000 C 
ATOM      9  F   UNL     1       7.227   4.558  11.444  0.00  0.00    +0.000 F 
ATOM     10  F   UNL     1       6.942   2.457  11.921  0.00  0.00    +0.000 F 
ATOM     11  F   UNL     1       5.222   3.726  11.526  0.00  0.00    +0.000 F 
ENDBRANCH   5   8
ENDBRANCH   1   2
BRANCH   1  12
ATOM     12  O   UNL     1       6.882   4.321  18.651  0.00  0.00    +0.000 OA
ATOM     13  H   UNL     1       6.725   3.372  18.511  0.00  0.00    +0.000 HD
ENDBRANCH   1  12
BRANCH   1  14
ATOM     14  C   UNL     1       4.540   4.807  18.348  0.00  0.00    +0.000 C 
BRANCH  14  15
ATOM     15  N   UNL     1       4.586   4.222  19.725  0.00  0.00    +0.000 NA
ATOM     16  H   UNL     1       5.553   4.234  20.062  0.00  0.00    +0.000 HD
BRANCH  15  18
ATOM     17  O   UNL     1       3.475   2.336  18.451  0.00  0.00    +0.000 OA
ATOM     18  S   UNL     1       3.948   2.654  19.780  0.00  0.00    +0.000 S 
ATOM     19  O   UNL     1       4.947   1.843  20.439  0.00  0.00    +0.000 OA
BRANCH  18  20
ATOM     20  C   UNL     1       2.531   2.698  20.912  0.00  0.00    +0.000 C 
ATOM     21  C   UNL     1       2.096   4.078  21.327  0.00  0.00    +0.000 C 
ATOM     22  C   UNL     1       1.270   3.295  20.344  0.00  0.00    +0.000 C 
ENDBRANCH  18  20
ENDBRANCH  15  18
ENDBRANCH  14  15
ENDBRANCH   1  14
TORSDOF 7
ENDMDL
MODEL 3
REMARK VINA RESULT:      -7.0      0.239      1.396
REMARK  Name = 
REMARK  7 active torsions:
REMARK  status: ('A' for Active; 'I' for Inactive)
REMARK    1  A    between atoms: S_2  and  N_4
REMARK    2  A    between atoms: S_2  and  C_18
REMARK    3  A    between atoms: N_4  and  C_5
REMARK    4  A    between atoms: C_5  and  C_6
REMARK    5  A    between atoms: C_6  and  O_7
REMARK    6  A    between atoms: C_6  and  C_8
REMARK    7  A    between atoms: C_11  and  C_12
REMARK                            x       y       z     vdW  Elec       q    Type
REMARK                         _______ _______ _______ _____ _____    ______ ____
ROOT
ATOM      1  C   UNL     1       6.375   5.829  17.878  0.00  0.00    +0.000 C 
ENDROOT
BRANCH   1   2
ATOM      2  C   UNL     1       5.053   5.238  18.338  0.00  0.00    +0.000 A 
ATOM      3  C   UNL     1       5.038   4.115  19.179  0.00  0.00    +0.000 A 
ATOM      4  C   UNL     1       3.828   3.524  19.565  0.00  0.00    +0.000 A 
ATOM      5  C   UNL     1       2.606   4.049  19.124  0.00  0.00    +0.000 A 
ATOM      6  C   UNL     1       2.618   5.181  18.296  0.00  0.00    +0.000 A 
ATOM      7  C   UNL     1       3.825   5.766  17.907  0.00  0.00    +0.000 A 
BRANCH   5   8
ATOM      8  C   UNL     1       1.291   3.418  19.516  0.00  0.00    +0.000 C 
ATOM      9  F   UNL     1       0.564   2.966  18.458  0.00  0.00    +0.000 F 
ATOM     10  F   UNL     1       1.456   2.345  20.340  0.00  0.00    +0.000 F 
ATOM     11  F   UNL     1       0.481   4.282  20.184  0.00  0.00    +0.000 F 
ENDBRANCH   5   8
ENDBRANCH   1   2
BRANCH   1  12
ATOM     12  O   UNL     1       6.170   6.889  16.932  0.00  0.00    +0.000 OA
ATOM     13  H   UNL     1       6.739   7.636  17.184  0.00  0.00    +0.000 HD
ENDBRANCH   1  12
BRANCH   1  14
ATOM     14  C   UNL     1       7.274   4.767  17.224  0.00  0.00    +0.000 C 
BRANCH  14  15
ATOM     15  N   UNL     1       6.497   3.973  16.222  0.00  0.00    +0.000 NA
ATOM     16  H   UNL     1       6.909   3.039  16.142  0.00  0.00    +0.000 HD
BRANCH  15  18
ATOM     17  O   UNL     1       5.175   5.450  14.647  0.00  0.00    +0.000 OA
ATOM     18  S   UNL     1       6.429   4.734  14.711  0.00  0.00    +0.000 S 
ATOM     19  O   UNL     1       7.695   5.414  14.553  0.00  0.00    +0.000 OA
BRANCH  18  20
ATOM     20  C   UNL     1       6.420   3.423  13.457  0.00  0.00    +0.000 C 
ATOM     21  C   UNL     1       5.355   3.565  12.402  0.00  0.00    +0.000 C 
ATOM     22  C   UNL     1       6.790   3.861  12.064  0.00  0.00    +0.000 C 
ENDBRANCH  18  20
ENDBRANCH  15  18
ENDBRANCH  14  15
ENDBRANCH   1  14
TORSDOF 7
ENDMDL
MODEL 4
REMARK VINA RESULT:      -7.0      4.311      6.485
REMARK  Name = 
REMARK  7 active torsions:
REMARK  status: ('A' for Active; 'I' for Inactive)
REMARK    1  A    between atoms: S_2  and  N_4
REMARK    2  A    between atoms: S_2  and  C_18
REMARK    3  A    between atoms: N_4  and  C_5
REMARK    4  A    between atoms: C_5  and  C_6
REMARK    5  A    between atoms: C_6  and  O_7
REMARK    6  A    between atoms: C_6  and  C_8
REMARK    7  A    between atoms: C_11  and  C_12
REMARK                            x       y       z     vdW  Elec       q    Type
REMARK                         _______ _______ _______ _____ _____    ______ ____
ROOT
ATOM      1  C   UNL     1       6.135   5.304  18.276  0.00  0.00    +0.000 C 
ENDROOT
BRANCH   1   2
ATOM      2  C   UNL     1       6.084   4.826  16.835  0.00  0.00    +0.000 A 
ATOM      3  C   UNL     1       7.228   4.900  16.026  0.00  0.00    +0.000 A 
ATOM      4  C   UNL     1       7.181   4.516  14.680  0.00  0.00    +0.000 A 
ATOM      5  C   UNL     1       5.989   4.043  14.115  0.00  0.00    +0.000 A 
ATOM      6  C   UNL     1       4.849   3.954  14.925  0.00  0.00    +0.000 A 
ATOM      7  C   UNL     1       4.895   4.341  16.266  0.00  0.00    +0.000 A 
BRANCH   5   8
ATOM      8  C   UNL     1       5.914   3.640  12.662  0.00  0.00    +0.000 C 
ATOM      9  F   UNL     1       6.863   4.225  11.882  0.00  0.00    +0.000 F 
ATOM     10  F   UNL     1       6.064   2.297  12.487  0.00  0.00    +0.000 F 
ATOM     11  F   UNL     1       4.718   3.958  12.097  0.00  0.00    +0.000 F 
ENDBRANCH   5   8
ENDBRANCH   1   2
BRANCH   1  12
ATOM     12  O   UNL     1       7.375   4.940  18.901  0.00  0.00    +0.000 OA
ATOM     13  H   UNL     1       8.044   4.823  18.205  0.00  0.00    +0.000 HD
ENDBRANCH   1  12
BRANCH   1  14
ATOM     14  C   UNL     1       4.984   4.716  19.109  0.00  0.00    +0.000 C 
BRANCH  14  15
ATOM     15  N   UNL     1       5.241   3.272  19.405  0.00  0.00    +0.000 NA
ATOM     16  H   UNL     1       5.733   2.850  18.613  0.00  0.00    +0.000 HD
BRANCH  15  18
ATOM     17  O   UNL     1       3.711   1.351  18.788  0.00  0.00    +0.000 OA
ATOM     18  S   UNL     1       3.818   2.422  19.752  0.00  0.00    +0.000 S 
ATOM     19  O   UNL     1       3.852   2.158  21.174  0.00  0.00    +0.000 OA
BRANCH  18  20
ATOM     20  C   UNL     1       2.439   3.575  19.505  0.00  0.00    +0.000 C 
ATOM     21  C   UNL     1       1.205   2.962  18.897  0.00  0.00    +0.000 C 
ATOM     22  C   UNL     1       1.224   3.319  20.358  0.00  0.00    +0.000 C 
ENDBRANCH  18  20
ENDBRANCH  15  18
ENDBRANCH  14  15
ENDBRANCH   1  14
TORSDOF 7
ENDMDL
MODEL 5
REMARK VINA RESULT:      -7.0      4.500      6.833
REMARK  Name = 
REMARK  7 active torsions:
REMARK  status: ('A' for Active; 'I' for Inactive)
REMARK    1  A    between atoms: S_2  and  N_4
REMARK    2  A    between atoms: S_2  and  C_18
REMARK    3  A    between atoms: N_4  and  C_5
REMARK    4  A    between atoms: C_5  and  C_6
REMARK    5  A    between atoms: C_6  and  O_7
REMARK    6  A    between atoms: C_6  and  C_8
REMARK    7  A    between atoms: C_11  and  C_12
REMARK                            x       y       z     vdW  Elec       q    Type
REMARK                         _______ _______ _______ _____ _____    ______ ____
ROOT
ATOM      1  C   UNL     1       5.923   5.193  17.823  0.00  0.00    +0.000 C 
ENDROOT
BRANCH   1   2
ATOM      2  C   UNL     1       6.041   4.839  16.351  0.00  0.00    +0.000 A 
ATOM      3  C   UNL     1       5.005   4.145  15.707  0.00  0.00    +0.000 A 
ATOM      4  C   UNL     1       5.124   3.762  14.366  0.00  0.00    +0.000 A 
ATOM      5  C   UNL     1       6.279   4.071  13.635  0.00  0.00    +0.000 A 
ATOM      6  C   UNL     1       7.308   4.779  14.272  0.00  0.00    +0.000 A 
ATOM      7  C   UNL     1       7.192   5.156  15.611  0.00  0.00    +0.000 A 
BRANCH   5   8
ATOM      8  C   UNL     1       6.433   3.653  12.192  0.00  0.00    +0.000 C 
ATOM      9  F   UNL     1       6.973   2.414  12.037  0.00  0.00    +0.000 F 
ATOM     10  F   UNL     1       5.243   3.628  11.530  0.00  0.00    +0.000 F 
ATOM     11  F   UNL     1       7.233   4.500  11.491  0.00  0.00    +0.000 F 
ENDBRANCH   5   8
ENDBRANCH   1   2
BRANCH   1  12
ATOM     12  O   UNL     1       6.897   4.489  18.608  0.00  0.00    +0.000 OA
ATOM     13  H   UNL     1       7.147   3.681  18.129  0.00  0.00    +0.000 HD
ENDBRANCH   1  12
BRANCH   1  14
ATOM     14  C   UNL     1       4.526   4.861  18.376  0.00  0.00    +0.000 C 
BRANCH  14  15
ATOM     15  N   UNL     1       4.638   4.246  19.735  0.00  0.00    +0.000 NA
ATOM     16  H   UNL     1       5.619   4.251  20.026  0.00  0.00    +0.000 HD
BRANCH  15  18
ATOM     17  O   UNL     1       3.524   2.364  18.458  0.00  0.00    +0.000 OA
ATOM     18  S   UNL     1       4.003   2.677  19.785  0.00  0.00    +0.000 S 
ATOM     19  O   UNL     1       5.006   1.864  20.436  0.00  0.00    +0.000 OA
BRANCH  18  20
ATOM     20  C   UNL     1       2.591   2.713  20.925  0.00  0.00    +0.000 C 
ATOM     21  C   UNL     1       2.067   4.089  21.238  0.00  0.00    +0.000 C 
ATOM     22  C   UNL     1       1.291   3.180  20.325  0.00  0.00    +0.000 C 
ENDBRANCH  18  20
ENDBRANCH  15  18
ENDBRANCH  14  15
ENDBRANCH   1  14
TORSDOF 7
ENDMDL
MODEL 6
REMARK VINA RESULT:      -7.0      4.330      6.047
REMARK  Name = 
REMARK  7 active torsions:
REMARK  status: ('A' for Active; 'I' for Inactive)
REMARK    1  A    between atoms: S_2  and  N_4
REMARK    2  A    between atoms: S_2  and  C_18
REMARK    3  A    between atoms: N_4  and  C_5
REMARK    4  A    between atoms: C_5  and  C_6
REMARK    5  A    between atoms: C_6  and  O_7
REMARK    6  A    between atoms: C_6  and  C_8
REMARK    7  A    between atoms: C_11  and  C_12
REMARK                            x       y       z     vdW  Elec       q    Type
REMARK                         _______ _______ _______ _____ _____    ______ ____
ROOT
ATOM      1  C   UNL     1       4.102   5.538  18.022  0.00  0.00    +0.000 C 
ENDROOT
BRANCH   1   2
ATOM      2  C   UNL     1       3.176   6.683  18.394  0.00  0.00    +0.000 A 
ATOM      3  C   UNL     1       2.947   7.729  17.487  0.00  0.00    +0.000 A 
ATOM      4  C   UNL     1       2.141   8.819  17.837  0.00  0.00    +0.000 A 
ATOM      5  C   UNL     1       1.539   8.883  19.101  0.00  0.00    +0.000 A 
ATOM      6  C   UNL     1       1.753   7.832  20.003  0.00  0.00    +0.000 A 
ATOM      7  C   UNL     1       2.562   6.748  19.655  0.00  0.00    +0.000 A 
BRANCH   5   8
ATOM      8  C   UNL     1       0.679  10.058  19.503  0.00  0.00    +0.000 C 
ATOM      9  F   UNL     1      -0.598   9.716  19.827  0.00  0.00    +0.000 F 
ATOM     10  F   UNL     1       1.175  10.717  20.587  0.00  0.00    +0.000 F 
ATOM     11  F   UNL     1       0.578  10.987  18.515  0.00  0.00    +0.000 F 
ENDBRANCH   5   8
ENDBRANCH   1   2
BRANCH   1  12
ATOM     12  O   UNL     1       3.397   4.507  17.316  0.00  0.00    +0.000 OA
ATOM     13  H   UNL     1       2.912   3.970  17.965  0.00  0.00    +0.000 HD
ENDBRANCH   1  12
BRANCH   1  14
ATOM     14  C   UNL     1       4.756   4.912  19.265  0.00  0.00    +0.000 C 
BRANCH  14  15
ATOM     15  N   UNL     1       5.149   3.495  18.987  0.00  0.00    +0.000 NA
ATOM     16  H   UNL     1       5.140   3.337  17.976  0.00  0.00    +0.000 HD
BRANCH  15  18
ATOM     17  O   UNL     1       3.466   1.617  18.763  0.00  0.00    +0.000 OA
ATOM     18  S   UNL     1       4.149   2.382  19.781  0.00  0.00    +0.000 S 
ATOM     19  O   UNL     1       4.981   1.742  20.775  0.00  0.00    +0.000 OA
BRANCH  18  20
ATOM     20  C   UNL     1       2.925   3.341  20.714  0.00  0.00    +0.000 C 
ATOM     21  C   UNL     1       1.500   3.156  20.264  0.00  0.00    +0.000 C 
ATOM     22  C   UNL     1       1.968   2.529  21.547  0.00  0.00    +0.000 C 
ENDBRANCH  18  20
ENDBRANCH  15  18
ENDBRANCH  14  15
ENDBRANCH   1  14
TORSDOF 7
ENDMDL
MODEL 7
REMARK VINA RESULT:      -7.0      4.345      6.524
REMARK  Name = 
REMARK  7 active torsions:
REMARK  status: ('A' for Active; 'I' for Inactive)
REMARK    1  A    between atoms: S_2  and  N_4
REMARK    2  A    between atoms: S_2  and  C_18
REMARK    3  A    between atoms: N_4  and  C_5
REMARK    4  A    between atoms: C_5  and  C_6
REMARK    5  A    between atoms: C_6  and  O_7
REMARK    6  A    between atoms: C_6  and  C_8
REMARK    7  A    between atoms: C_11  and  C_12
REMARK                            x       y       z     vdW  Elec       q    Type
REMARK                         _______ _______ _______ _____ _____    ______ ____
ROOT
ATOM      1  C   UNL     1       6.064   5.391  18.254  0.00  0.00    +0.000 C 
ENDROOT
BRANCH   1   2
ATOM      2  C   UNL     1       6.053   4.987  16.790  0.00  0.00    +0.000 A 
ATOM      3  C   UNL     1       4.941   4.323  16.250  0.00  0.00    +0.000 A 
ATOM      4  C   UNL     1       4.939   3.895  14.917  0.00  0.00    +0.000 A 
ATOM      5  C   UNL     1       6.048   4.127  14.092  0.00  0.00    +0.000 A 
ATOM      6  C   UNL     1       7.154   4.804  14.625  0.00  0.00    +0.000 A 
ATOM      7  C   UNL     1       7.157   5.227  15.956  0.00  0.00    +0.000 A 
BRANCH   5   8
ATOM      8  C   UNL     1       6.072   3.659  12.656  0.00  0.00    +0.000 C 
ATOM      9  F   UNL     1       6.927   4.362  11.866  0.00  0.00    +0.000 F 
ATOM     10  F   UNL     1       6.447   2.354  12.543  0.00  0.00    +0.000 F 
ATOM     11  F   UNL     1       4.852   3.750  12.062  0.00  0.00    +0.000 F 
ENDBRANCH   5   8
ENDBRANCH   1   2
BRANCH   1  12
ATOM     12  O   UNL     1       7.279   4.981  18.898  0.00  0.00    +0.000 OA
ATOM     13  H   UNL     1       7.301   5.374  19.787  0.00  0.00    +0.000 HD
ENDBRANCH   1  12
BRANCH   1  14
ATOM     14  C   UNL     1       4.880   4.776  19.021  0.00  0.00    +0.000 C 
BRANCH  14  15
ATOM     15  N   UNL     1       5.173   3.352  19.373  0.00  0.00    +0.000 NA
ATOM     16  H   UNL     1       5.673   2.910  18.596  0.00  0.00    +0.000 HD
BRANCH  15  18
ATOM     17  O   UNL     1       3.658   1.404  18.805  0.00  0.00    +0.000 OA
ATOM     18  S   UNL     1       3.772   2.483  19.760  0.00  0.00    +0.000 S 
ATOM     19  O   UNL     1       3.844   2.228  21.182  0.00  0.00    +0.000 OA
BRANCH  18  20
ATOM     20  C   UNL     1       2.369   3.613  19.539  0.00  0.00    +0.000 C 
ATOM     21  C   UNL     1       1.106   2.962  19.043  0.00  0.00    +0.000 C 
ATOM     22  C   UNL     1       1.213   3.396  20.478  0.00  0.00    +0.000 C 
ENDBRANCH  18  20
ENDBRANCH  15  18
ENDBRANCH  14  15
ENDBRANCH   1  14
TORSDOF 7
ENDMDL
MODEL 8
REMARK VINA RESULT:      -6.9      4.239      6.588
REMARK  Name = 
REMARK  7 active torsions:
REMARK  status: ('A' for Active; 'I' for Inactive)
REMARK    1  A    between atoms: S_2  and  N_4
REMARK    2  A    between atoms: S_2  and  C_18
REMARK    3  A    between atoms: N_4  and  C_5
REMARK    4  A    between atoms: C_5  and  C_6
REMARK    5  A    between atoms: C_6  and  O_7
REMARK    6  A    between atoms: C_6  and  C_8
REMARK    7  A    between atoms: C_11  and  C_12
REMARK                            x       y       z     vdW  Elec       q    Type
REMARK                         _______ _______ _______ _____ _____    ______ ____
ROOT
ATOM      1  C   UNL     1       6.294   5.364  18.188  0.00  0.00    +0.000 C 
ENDROOT
BRANCH   1   2
ATOM      2  C   UNL     1       6.194   4.965  16.726  0.00  0.00    +0.000 A 
ATOM      3  C   UNL     1       4.951   4.625  16.171  0.00  0.00    +0.000 A 
ATOM      4  C   UNL     1       4.851   4.201  14.841  0.00  0.00    +0.000 A 
ATOM      5  C   UNL     1       5.992   4.116  14.032  0.00  0.00    +0.000 A 
ATOM      6  C   UNL     1       7.233   4.471  14.579  0.00  0.00    +0.000 A 
ATOM      7  C   UNL     1       7.333   4.888  15.908  0.00  0.00    +0.000 A 
BRANCH   5   8
ATOM      8  C   UNL     1       5.907   3.646  12.599  0.00  0.00    +0.000 C 
ATOM      9  F   UNL     1       6.793   4.260  11.769  0.00  0.00    +0.000 F 
ATOM     10  F   UNL     1       6.144   2.310  12.476  0.00  0.00    +0.000 F 
ATOM     11  F   UNL     1       4.677   3.858  12.057  0.00  0.00    +0.000 F 
ENDBRANCH   5   8
ENDBRANCH   1   2
BRANCH   1  12
ATOM     12  O   UNL     1       7.435   4.758  18.815  0.00  0.00    +0.000 OA
ATOM     13  H   UNL     1       7.474   5.065  19.737  0.00  0.00    +0.000 HD
ENDBRANCH   1  12
BRANCH   1  14
ATOM     14  C   UNL     1       5.037   4.955  18.975  0.00  0.00    +0.000 C 
BRANCH  14  15
ATOM     15  N   UNL     1       5.092   3.502  19.325  0.00  0.00    +0.000 NA
ATOM     16  H   UNL     1       5.735   3.027  18.685  0.00  0.00    +0.000 HD
BRANCH  15  18
ATOM     17  O   UNL     1       2.693   3.636  18.529  0.00  0.00    +0.000 OA
ATOM     18  S   UNL     1       3.564   2.774  19.295  0.00  0.00    +0.000 S 
ATOM     19  O   UNL     1       3.789   1.397  18.914  0.00  0.00    +0.000 OA
BRANCH  18  20
ATOM     20  C   UNL     1       2.971   2.714  21.009  0.00  0.00    +0.000 C 
ATOM     21  C   UNL     1       2.123   3.886  21.425  0.00  0.00    +0.000 C 
ATOM     22  C   UNL     1       1.483   2.549  21.171  0.00  0.00    +0.000 C 
ENDBRANCH  18  20
ENDBRANCH  15  18
ENDBRANCH  14  15
ENDBRANCH   1  14
TORSDOF 7
ENDMDL
MODEL 9
REMARK VINA RESULT:      -6.9      4.277      6.734
REMARK  Name = 
REMARK  7 active torsions:
REMARK  status: ('A' for Active; 'I' for Inactive)
REMARK    1  A    between atoms: S_2  and  N_4
REMARK    2  A    between atoms: S_2  and  C_18
REMARK    3  A    between atoms: N_4  and  C_5
REMARK    4  A    between atoms: C_5  and  C_6
REMARK    5  A    between atoms: C_6  and  O_7
REMARK    6  A    between atoms: C_6  and  C_8
REMARK    7  A    between atoms: C_11  and  C_12
REMARK                            x       y       z     vdW  Elec       q    Type
REMARK                         _______ _______ _______ _____ _____    ______ ____
ROOT
ATOM      1  C   UNL     1       6.329   5.024  18.100  0.00  0.00    +0.000 C 
ENDROOT
BRANCH   1   2
ATOM      2  C   UNL     1       6.250   4.705  16.617  0.00  0.00    +0.000 A 
ATOM      3  C   UNL     1       5.163   3.976  16.110  0.00  0.00    +0.000 A 
ATOM      4  C   UNL     1       5.104   3.626  14.756  0.00  0.00    +0.000 A 
ATOM      5  C   UNL     1       6.128   4.004  13.876  0.00  0.00    +0.000 A 
ATOM      6  C   UNL     1       7.207   4.746  14.378  0.00  0.00    +0.000 A 
ATOM      7  C   UNL     1       7.267   5.090  15.729  0.00  0.00    +0.000 A 
BRANCH   5   8
ATOM      8  C   UNL     1       6.091   3.622  12.416  0.00  0.00    +0.000 C 
ATOM      9  F   UNL     1       6.929   4.358  11.636  0.00  0.00    +0.000 F 
ATOM     10  F   UNL     1       6.437   2.320  12.210  0.00  0.00    +0.000 F 
ATOM     11  F   UNL     1       4.851   3.768  11.874  0.00  0.00    +0.000 F 
ENDBRANCH   5   8
ENDBRANCH   1   2
BRANCH   1  12
ATOM     12  O   UNL     1       7.553   4.539  18.672  0.00  0.00    +0.000 OA
ATOM     13  H   UNL     1       8.186   5.277  18.708  0.00  0.00    +0.000 HD
ENDBRANCH   1  12
BRANCH   1  14
ATOM     14  C   UNL     1       5.155   4.405  18.877  0.00  0.00    +0.000 C 
BRANCH  14  15
ATOM     15  N   UNL     1       4.307   5.480  19.481  0.00  0.00    +0.000 NA
ATOM     16  H   UNL     1       4.633   5.670  20.432  0.00  0.00    +0.000 HD
BRANCH  15  18
ATOM     17  O   UNL     1       1.991   6.012  20.354  0.00  0.00    +0.000 OA
ATOM     18  S   UNL     1       2.662   5.081  19.476  0.00  0.00    +0.000 S 
ATOM     19  O   UNL     1       2.289   4.954  18.084  0.00  0.00    +0.000 OA
BRANCH  18  20
ATOM     20  C   UNL     1       2.519   3.411  20.172  0.00  0.00    +0.000 C 
ATOM     21  C   UNL     1       2.085   3.363  21.613  0.00  0.00    +0.000 C 
ATOM     22  C   UNL     1       1.120   2.978  20.526  0.00  0.00    +0.000 C 
ENDBRANCH  18  20
ENDBRANCH  15  18
ENDBRANCH  14  15
ENDBRANCH   1  14
TORSDOF 7
ENDMDL
