MODEL 1
REMARK VINA RESULT:      -7.3      0.000      0.000
REMARK  Name = 
REMARK  2 active torsions:
REMARK  status: ('A' for Active; 'I' for Inactive)
REMARK    1  A    between atoms: N_13  and  C_14
REMARK    2  A    between atoms: C_14  and  C_15
REMARK                            x       y       z     vdW  Elec       q    Type
REMARK                         _______ _______ _______ _____ _____    ______ ____
ROOT
ATOM      1  O   UNL     1       2.276   8.915  17.367  0.00  0.00    +0.000 OA
ATOM      2  C   UNL     1       1.964   8.523  18.487  0.00  0.00    +0.000 A 
ATOM      3  C   UNL     1       2.332   7.142  18.877  0.00  0.00    +0.000 A 
ATOM      4  C   UNL     1       2.811   6.225  17.937  0.00  0.00    +0.000 A 
ATOM      5  C   UNL     1       3.096   4.921  18.341  0.00  0.00    +0.000 A 
ATOM      6 BR   UNL     1       3.632   3.637  17.062  0.00  0.00    +0.000 Br
ATOM      7  C   UNL     1       2.955   4.540  19.676  0.00  0.00    +0.000 A 
ATOM      8  C   UNL     1       2.488   5.467  20.613  0.00  0.00    +0.000 A 
ATOM      9  C   UNL     1       2.141   6.752  20.194  0.00  0.00    +0.000 A 
ATOM     10  N   UNL     1       1.511   7.616  21.081  0.00  0.00    +0.000 N 
ATOM     11  C   UNL     1       0.941   8.801  20.707  0.00  0.00    +0.000 A 
ATOM     12  S   UNL     1      -0.094   9.478  21.842  0.00  0.00    +0.000 S 
ATOM     13  N   UNL     1       1.253   9.276  19.434  0.00  0.00    +0.000 N 
ATOM     14  H   UNL     1       1.309   7.302  22.023  0.00  0.00    +0.000 HD
ENDROOT
BRANCH  13  15
ATOM     15  C   UNL     1       0.849  10.626  18.989  0.00  0.00    +0.000 C 
BRANCH  15  16
ATOM     16  C   UNL     1      -0.613  10.691  18.585  0.00  0.00    +0.000 A 
ATOM     17  C   UNL     1      -1.113   9.844  17.585  0.00  0.00    +0.000 A 
ATOM     18  C   UNL     1      -2.437   9.963  17.151  0.00  0.00    +0.000 A 
ATOM     19  C   UNL     1      -3.272  10.933  17.703  0.00  0.00    +0.000 A 
ATOM     20  C   UNL     1      -2.797  11.753  18.720  0.00  0.00    +0.000 A 
ATOM     21  C   UNL     1      -1.483  11.625  19.165  0.00  0.00    +0.000 A 
ENDBRANCH  15  16
ENDBRANCH  13  15
TORSDOF 2
ENDMDL
MODEL 2
REMARK VINA RESULT:      -7.3      4.982      6.866
REMARK  Name = 
REMARK  2 active torsions:
REMARK  status: ('A' for Active; 'I' for Inactive)
REMARK    1  A    between atoms: N_13  and  C_14
REMARK    2  A    between atoms: C_14  and  C_15
REMARK                            x       y       z     vdW  Elec       q    Type
REMARK                         _______ _______ _______ _____ _____    ______ ____
ROOT
ATOM      1  O   UNL     1       4.051   3.734  16.361  0.00  0.00    +0.000 OA
ATOM      2  C   UNL     1       5.100   4.365  16.273  0.00  0.00    +0.000 A 
ATOM      3  C   UNL     1       5.820   4.358  14.979  0.00  0.00    +0.000 A 
ATOM      4  C   UNL     1       5.457   3.483  13.951  0.00  0.00    +0.000 A 
ATOM      5  C   UNL     1       6.197   3.477  12.769  0.00  0.00    +0.000 A 
ATOM      6 BR   UNL     1       5.796   2.219  11.416  0.00  0.00    +0.000 Br
ATOM      7  C   UNL     1       7.257   4.365  12.584  0.00  0.00    +0.000 A 
ATOM      8  C   UNL     1       7.604   5.248  13.612  0.00  0.00    +0.000 A 
ATOM      9  C   UNL     1       6.905   5.206  14.819  0.00  0.00    +0.000 A 
ATOM     10  N   UNL     1       7.359   5.951  15.900  0.00  0.00    +0.000 N 
ATOM     11  C   UNL     1       6.878   5.809  17.172  0.00  0.00    +0.000 A 
ATOM     12  S   UNL     1       7.825   6.505  18.370  0.00  0.00    +0.000 S 
ATOM     13  N   UNL     1       5.697   5.082  17.322  0.00  0.00    +0.000 N 
ATOM     14  H   UNL     1       8.194   6.516  15.801  0.00  0.00    +0.000 HD
ENDROOT
BRANCH  13  15
ATOM     15  C   UNL     1       4.984   5.017  18.614  0.00  0.00    +0.000 C 
BRANCH  15  16
ATOM     16  C   UNL     1       3.888   6.062  18.727  0.00  0.00    +0.000 A 
ATOM     17  C   UNL     1       3.734   7.041  17.735  0.00  0.00    +0.000 A 
ATOM     18  C   UNL     1       2.782   8.055  17.881  0.00  0.00    +0.000 A 
ATOM     19  C   UNL     1       1.980   8.106  19.020  0.00  0.00    +0.000 A 
ATOM     20  C   UNL     1       2.099   7.119  19.992  0.00  0.00    +0.000 A 
ATOM     21  C   UNL     1       3.036   6.099  19.840  0.00  0.00    +0.000 A 
ENDBRANCH  15  16
ENDBRANCH  13  15
TORSDOF 2
ENDMDL
MODEL 3
REMARK VINA RESULT:      -7.3      0.135      1.085
REMARK  Name = 
REMARK  2 active torsions:
REMARK  status: ('A' for Active; 'I' for Inactive)
REMARK    1  A    between atoms: N_13  and  C_14
REMARK    2  A    between atoms: C_14  and  C_15
REMARK                            x       y       z     vdW  Elec       q    Type
REMARK                         _______ _______ _______ _____ _____    ______ ____
ROOT
ATOM      1  O   UNL     1       2.233   8.925  17.426  0.00  0.00    +0.000 OA
ATOM      2  C   UNL     1       1.911   8.555  18.551  0.00  0.00    +0.000 A 
ATOM      3  C   UNL     1       2.246   7.171  18.961  0.00  0.00    +0.000 A 
ATOM      4  C   UNL     1       2.703   6.230  18.033  0.00  0.00    +0.000 A 
ATOM      5  C   UNL     1       2.957   4.926  18.455  0.00  0.00    +0.000 A 
ATOM      6 BR   UNL     1       3.461   3.611  17.194  0.00  0.00    +0.000 Br
ATOM      7  C   UNL     1       2.807   4.566  19.795  0.00  0.00    +0.000 A 
ATOM      8  C   UNL     1       2.363   5.517  20.720  0.00  0.00    +0.000 A 
ATOM      9  C   UNL     1       2.046   6.804  20.283  0.00  0.00    +0.000 A 
ATOM     10  N   UNL     1       1.437   7.695  21.158  0.00  0.00    +0.000 N 
ATOM     11  C   UNL     1       0.895   8.888  20.767  0.00  0.00    +0.000 A 
ATOM     12  S   UNL     1      -0.122   9.606  21.892  0.00  0.00    +0.000 S 
ATOM     13  N   UNL     1       1.219   9.338  19.488  0.00  0.00    +0.000 N 
ATOM     14  H   UNL     1       1.228   7.400  22.104  0.00  0.00    +0.000 HD
ENDROOT
BRANCH  13  15
ATOM     15  C   UNL     1       0.847  10.691  19.025  0.00  0.00    +0.000 C 
BRANCH  15  16
ATOM     16  C   UNL     1      -0.598  10.772  18.566  0.00  0.00    +0.000 A 
ATOM     17  C   UNL     1      -1.470  11.718  19.124  0.00  0.00    +0.000 A 
ATOM     18  C   UNL     1      -2.822  11.735  18.766  0.00  0.00    +0.000 A 
ATOM     19  C   UNL     1      -3.319  10.804  17.855  0.00  0.00    +0.000 A 
ATOM     20  C   UNL     1      -2.455   9.885  17.269  0.00  0.00    +0.000 A 
ATOM     21  C   UNL     1      -1.105   9.878  17.613  0.00  0.00    +0.000 A 
ENDBRANCH  15  16
ENDBRANCH  13  15
TORSDOF 2
ENDMDL
MODEL 4
REMARK VINA RESULT:      -7.2      4.930      6.810
REMARK  Name = 
REMARK  2 active torsions:
REMARK  status: ('A' for Active; 'I' for Inactive)
REMARK    1  A    between atoms: N_13  and  C_14
REMARK    2  A    between atoms: C_14  and  C_15
REMARK                            x       y       z     vdW  Elec       q    Type
REMARK                         _______ _______ _______ _____ _____    ______ ____
ROOT
ATOM      1  O   UNL     1       3.864   3.820  16.283  0.00  0.00    +0.000 OA
ATOM      2  C   UNL     1       4.949   4.392  16.239  0.00  0.00    +0.000 A 
ATOM      3  C   UNL     1       5.711   4.360  14.969  0.00  0.00    +0.000 A 
ATOM      4  C   UNL     1       5.336   3.518  13.918  0.00  0.00    +0.000 A 
ATOM      5  C   UNL     1       6.114   3.484  12.761  0.00  0.00    +0.000 A 
ATOM      6 BR   UNL     1       5.690   2.267  11.379  0.00  0.00    +0.000 Br
ATOM      7  C   UNL     1       7.227   4.314  12.624  0.00  0.00    +0.000 A 
ATOM      8  C   UNL     1       7.588   5.164  13.675  0.00  0.00    +0.000 A 
ATOM      9  C   UNL     1       6.847   5.148  14.858  0.00  0.00    +0.000 A 
ATOM     10  N   UNL     1       7.304   5.854  15.963  0.00  0.00    +0.000 N 
ATOM     11  C   UNL     1       6.772   5.724  17.216  0.00  0.00    +0.000 A 
ATOM     12  S   UNL     1       7.715   6.352  18.454  0.00  0.00    +0.000 S 
ATOM     13  N   UNL     1       5.548   5.063  17.316  0.00  0.00    +0.000 N 
ATOM     14  H   UNL     1       8.172   6.372  15.900  0.00  0.00    +0.000 HD
ENDROOT
BRANCH  13  15
ATOM     15  C   UNL     1       4.789   5.023  18.583  0.00  0.00    +0.000 C 
BRANCH  15  16
ATOM     16  C   UNL     1       3.817   6.181  18.714  0.00  0.00    +0.000 A 
ATOM     17  C   UNL     1       2.972   6.278  19.830  0.00  0.00    +0.000 A 
ATOM     18  C   UNL     1       2.015   7.296  19.909  0.00  0.00    +0.000 A 
ATOM     19  C   UNL     1       1.887   8.221  18.874  0.00  0.00    +0.000 A 
ATOM     20  C   UNL     1       2.745   8.156  17.782  0.00  0.00    +0.000 A 
ATOM     21  C   UNL     1       3.708   7.152  17.709  0.00  0.00    +0.000 A 
ENDBRANCH  15  16
ENDBRANCH  13  15
TORSDOF 2
ENDMDL
MODEL 5
REMARK VINA RESULT:      -6.9      4.860      6.992
REMARK  Name = 
REMARK  2 active torsions:
REMARK  status: ('A' for Active; 'I' for Inactive)
REMARK    1  A    between atoms: N_13  and  C_14
REMARK    2  A    between atoms: C_14  and  C_15
REMARK                            x       y       z     vdW  Elec       q    Type
REMARK                         _______ _______ _______ _____ _____    ______ ____
ROOT
ATOM      1  O   UNL     1       4.044   3.258  16.824  0.00  0.00    +0.000 OA
ATOM      2  C   UNL     1       5.076   3.922  16.820  0.00  0.00    +0.000 A 
ATOM      3  C   UNL     1       5.753   4.165  15.524  0.00  0.00    +0.000 A 
ATOM      4  C   UNL     1       5.375   3.477  14.368  0.00  0.00    +0.000 A 
ATOM      5  C   UNL     1       6.074   3.700  13.182  0.00  0.00    +0.000 A 
ATOM      6 BR   UNL     1       5.655   2.693  11.639  0.00  0.00    +0.000 Br
ATOM      7  C   UNL     1       7.109   4.635  13.129  0.00  0.00    +0.000 A 
ATOM      8  C   UNL     1       7.472   5.330  14.287  0.00  0.00    +0.000 A 
ATOM      9  C   UNL     1       6.815   5.056  15.487  0.00  0.00    +0.000 A 
ATOM     10  N   UNL     1       7.288   5.609  16.670  0.00  0.00    +0.000 N 
ATOM     11  C   UNL     1       6.852   5.230  17.910  0.00  0.00    +0.000 A 
ATOM     12  S   UNL     1       7.824   5.727  19.185  0.00  0.00    +0.000 S 
ATOM     13  N   UNL     1       5.693   4.458  17.961  0.00  0.00    +0.000 N 
ATOM     14  H   UNL     1       8.108   6.204  16.649  0.00  0.00    +0.000 HD
ENDROOT
BRANCH  13  15
ATOM     15  C   UNL     1       5.025   4.145  19.242  0.00  0.00    +0.000 C 
BRANCH  15  16
ATOM     16  C   UNL     1       3.868   5.083  19.538  0.00  0.00    +0.000 A 
ATOM     17  C   UNL     1       2.891   4.733  20.481  0.00  0.00    +0.000 A 
ATOM     18  C   UNL     1       1.779   5.555  20.690  0.00  0.00    +0.000 A 
ATOM     19  C   UNL     1       1.628   6.730  19.956  0.00  0.00    +0.000 A 
ATOM     20  C   UNL     1       2.609   7.105  19.045  0.00  0.00    +0.000 A 
ATOM     21  C   UNL     1       3.724   6.294  18.847  0.00  0.00    +0.000 A 
ENDBRANCH  15  16
ENDBRANCH  13  15
TORSDOF 2
ENDMDL
MODEL 6
REMARK VINA RESULT:      -6.8      5.928      7.316
REMARK  Name = 
REMARK  2 active torsions:
REMARK  status: ('A' for Active; 'I' for Inactive)
REMARK    1  A    between atoms: N_13  and  C_14
REMARK    2  A    between atoms: C_14  and  C_15
REMARK                            x       y       z     vdW  Elec       q    Type
REMARK                         _______ _______ _______ _____ _____    ______ ____
ROOT
ATOM      1  O   UNL     1       3.554   6.562  18.408  0.00  0.00    +0.000 OA
ATOM      2  C   UNL     1       3.923   5.533  17.851  0.00  0.00    +0.000 A 
ATOM      3  C   UNL     1       3.391   4.239  18.339  0.00  0.00    +0.000 A 
ATOM      4  C   UNL     1       2.676   4.153  19.537  0.00  0.00    +0.000 A 
ATOM      5  C   UNL     1       2.240   2.905  19.981  0.00  0.00    +0.000 A 
ATOM      6 BR   UNL     1       1.376   2.754  21.656  0.00  0.00    +0.000 Br
ATOM      7  C   UNL     1       2.465   1.757  19.222  0.00  0.00    +0.000 A 
ATOM      8  C   UNL     1       3.169   1.853  18.017  0.00  0.00    +0.000 A 
ATOM      9  C   UNL     1       3.662   3.093  17.607  0.00  0.00    +0.000 A 
ATOM     10  N   UNL     1       4.511   3.164  16.509  0.00  0.00    +0.000 N 
ATOM     11  C   UNL     1       5.213   4.286  16.167  0.00  0.00    +0.000 A 
ATOM     12  S   UNL     1       6.457   4.036  15.069  0.00  0.00    +0.000 S 
ATOM     13  N   UNL     1       4.840   5.477  16.790  0.00  0.00    +0.000 N 
ATOM     14  H   UNL     1       4.763   2.314  16.018  0.00  0.00    +0.000 HD
ENDROOT
BRANCH  13  15
ATOM     15  C   UNL     1       5.397   6.779  16.370  0.00  0.00    +0.000 C 
BRANCH  15  16
ATOM     16  C   UNL     1       6.591   7.199  17.210  0.00  0.00    +0.000 A 
ATOM     17  C   UNL     1       7.206   6.286  18.078  0.00  0.00    +0.000 A 
ATOM     18  C   UNL     1       8.249   6.695  18.915  0.00  0.00    +0.000 A 
ATOM     19  C   UNL     1       8.683   8.020  18.899  0.00  0.00    +0.000 A 
ATOM     20  C   UNL     1       8.104   8.924  18.016  0.00  0.00    +0.000 A 
ATOM     21  C   UNL     1       7.076   8.513  17.170  0.00  0.00    +0.000 A 
ENDBRANCH  15  16
ENDBRANCH  13  15
TORSDOF 2
ENDMDL
MODEL 7
REMARK VINA RESULT:      -6.7      3.474      6.692
REMARK  Name = 
REMARK  2 active torsions:
REMARK  status: ('A' for Active; 'I' for Inactive)
REMARK    1  A    between atoms: N_13  and  C_14
REMARK    2  A    between atoms: C_14  and  C_15
REMARK                            x       y       z     vdW  Elec       q    Type
REMARK                         _______ _______ _______ _____ _____    ______ ____
ROOT
ATOM      1  O   UNL     1       2.775   8.245  17.446  0.00  0.00    +0.000 OA
ATOM      2  C   UNL     1       2.468   7.678  18.490  0.00  0.00    +0.000 A 
ATOM      3  C   UNL     1       1.698   8.436  19.504  0.00  0.00    +0.000 A 
ATOM      4  C   UNL     1       1.516   9.817  19.394  0.00  0.00    +0.000 A 
ATOM      5  C   UNL     1       0.827  10.496  20.398  0.00  0.00    +0.000 A 
ATOM      6 BR   UNL     1       0.676  12.379  20.327  0.00  0.00    +0.000 Br
ATOM      7  C   UNL     1       0.277   9.806  21.479  0.00  0.00    +0.000 A 
ATOM      8  C   UNL     1       0.450   8.421  21.575  0.00  0.00    +0.000 A 
ATOM      9  C   UNL     1       1.197   7.754  20.603  0.00  0.00    +0.000 A 
ATOM     10  N   UNL     1       1.522   6.416  20.787  0.00  0.00    +0.000 N 
ATOM     11  C   UNL     1       2.424   5.743  20.009  0.00  0.00    +0.000 A 
ATOM     12  S   UNL     1       2.954   4.282  20.643  0.00  0.00    +0.000 S 
ATOM     13  N   UNL     1       2.815   6.358  18.821  0.00  0.00    +0.000 N 
ATOM     14  H   UNL     1       1.215   5.939  21.626  0.00  0.00    +0.000 HD
ENDROOT
BRANCH  13  15
ATOM     15  C   UNL     1       3.636   5.653  17.815  0.00  0.00    +0.000 C 
BRANCH  15  16
ATOM     16  C   UNL     1       5.121   5.918  17.987  0.00  0.00    +0.000 A 
ATOM     17  C   UNL     1       5.836   5.312  19.030  0.00  0.00    +0.000 A 
ATOM     18  C   UNL     1       7.183   5.625  19.242  0.00  0.00    +0.000 A 
ATOM     19  C   UNL     1       7.827   6.549  18.421  0.00  0.00    +0.000 A 
ATOM     20  C   UNL     1       7.137   7.127  17.361  0.00  0.00    +0.000 A 
ATOM     21  C   UNL     1       5.800   6.805  17.140  0.00  0.00    +0.000 A 
ENDBRANCH  15  16
ENDBRANCH  13  15
TORSDOF 2
ENDMDL
MODEL 8
REMARK VINA RESULT:      -6.7      6.453      7.614
REMARK  Name = 
REMARK  2 active torsions:
REMARK  status: ('A' for Active; 'I' for Inactive)
REMARK    1  A    between atoms: N_13  and  C_14
REMARK    2  A    between atoms: C_14  and  C_15
REMARK                            x       y       z     vdW  Elec       q    Type
REMARK                         _______ _______ _______ _____ _____    ______ ____
ROOT
ATOM      1  O   UNL     1       5.993   4.676  19.929  0.00  0.00    +0.000 OA
ATOM      2  C   UNL     1       5.426   4.433  18.869  0.00  0.00    +0.000 A 
ATOM      3  C   UNL     1       4.013   3.991  18.910  0.00  0.00    +0.000 A 
ATOM      4  C   UNL     1       3.399   3.633  20.114  0.00  0.00    +0.000 A 
ATOM      5  C   UNL     1       2.083   3.174  20.097  0.00  0.00    +0.000 A 
ATOM      6 BR   UNL     1       1.277   2.573  21.698  0.00  0.00    +0.000 Br
ATOM      7  C   UNL     1       1.361   3.115  18.904  0.00  0.00    +0.000 A 
ATOM      8  C   UNL     1       1.978   3.489  17.706  0.00  0.00    +0.000 A 
ATOM      9  C   UNL     1       3.316   3.885  17.716  0.00  0.00    +0.000 A 
ATOM     10  N   UNL     1       3.982   4.083  16.513  0.00  0.00    +0.000 N 
ATOM     11  C   UNL     1       5.335   4.255  16.416  0.00  0.00    +0.000 A 
ATOM     12  S   UNL     1       5.963   4.079  14.870  0.00  0.00    +0.000 S 
ATOM     13  N   UNL     1       6.023   4.516  17.601  0.00  0.00    +0.000 N 
ATOM     14  H   UNL     1       3.488   3.937  15.640  0.00  0.00    +0.000 HD
ENDROOT
BRANCH  13  15
ATOM     15  C   UNL     1       7.450   4.900  17.601  0.00  0.00    +0.000 C 
BRANCH  15  16
ATOM     16  C   UNL     1       7.651   6.385  17.847  0.00  0.00    +0.000 A 
ATOM     17  C   UNL     1       7.076   7.333  16.988  0.00  0.00    +0.000 A 
ATOM     18  C   UNL     1       7.333   8.697  17.162  0.00  0.00    +0.000 A 
ATOM     19  C   UNL     1       8.171   9.127  18.190  0.00  0.00    +0.000 A 
ATOM     20  C   UNL     1       8.716   8.199  19.069  0.00  0.00    +0.000 A 
ATOM     21  C   UNL     1       8.448   6.841  18.906  0.00  0.00    +0.000 A 
ENDBRANCH  15  16
ENDBRANCH  13  15
TORSDOF 2
ENDMDL
MODEL 9
REMARK VINA RESULT:      -6.7      5.928      7.323
REMARK  Name = 
REMARK  2 active torsions:
REMARK  status: ('A' for Active; 'I' for Inactive)
REMARK    1  A    between atoms: N_13  and  C_14
REMARK    2  A    between atoms: C_14  and  C_15
REMARK                            x       y       z     vdW  Elec       q    Type
REMARK                         _______ _______ _______ _____ _____    ______ ____
ROOT
ATOM      1  O   UNL     1       3.484   6.535  18.358  0.00  0.00    +0.000 OA
ATOM      2  C   UNL     1       3.883   5.503  17.827  0.00  0.00    +0.000 A 
ATOM      3  C   UNL     1       3.368   4.208  18.329  0.00  0.00    +0.000 A 
ATOM      4  C   UNL     1       2.632   4.129  19.515  0.00  0.00    +0.000 A 
ATOM      5  C   UNL     1       2.211   2.882  19.974  0.00  0.00    +0.000 A 
ATOM      6 BR   UNL     1       1.319   2.744  21.635  0.00  0.00    +0.000 Br
ATOM      7  C   UNL     1       2.473   1.725  19.240  0.00  0.00    +0.000 A 
ATOM      8  C   UNL     1       3.198   1.813  18.047  0.00  0.00    +0.000 A 
ATOM      9  C   UNL     1       3.675   3.054  17.624  0.00  0.00    +0.000 A 
ATOM     10  N   UNL     1       4.542   3.122  16.541  0.00  0.00    +0.000 N 
ATOM     11  C   UNL     1       5.229   4.252  16.192  0.00  0.00    +0.000 A 
ATOM     12  S   UNL     1       6.498   4.007  15.121  0.00  0.00    +0.000 S 
ATOM     13  N   UNL     1       4.821   5.446  16.785  0.00  0.00    +0.000 N 
ATOM     14  H   UNL     1       4.821   2.269  16.071  0.00  0.00    +0.000 HD
ENDROOT
BRANCH  13  15
ATOM     15  C   UNL     1       5.360   6.752  16.352  0.00  0.00    +0.000 C 
BRANCH  15  16
ATOM     16  C   UNL     1       6.488   7.240  17.243  0.00  0.00    +0.000 A 
ATOM     17  C   UNL     1       6.935   8.567  17.164  0.00  0.00    +0.000 A 
ATOM     18  C   UNL     1       8.030   8.993  17.921  0.00  0.00    +0.000 A 
ATOM     19  C   UNL     1       8.695   8.099  18.758  0.00  0.00    +0.000 A 
ATOM     20  C   UNL     1       8.238   6.791  18.873  0.00  0.00    +0.000 A 
ATOM     21  C   UNL     1       7.137   6.370  18.130  0.00  0.00    +0.000 A 
ENDBRANCH  15  16
ENDBRANCH  13  15
TORSDOF 2
ENDMDL
