MODEL 1
REMARK VINA RESULT:      -7.9      0.000      0.000
REMARK  Name = 
REMARK  11 active torsions:
REMARK  status: ('A' for Active; 'I' for Inactive)
REMARK    1  A    between atoms: C_1  and  O_2
REMARK    2  A    between atoms: O_2  and  C_3
REMARK    3  A    between atoms: C_6  and  C_7
REMARK    4  A    between atoms: C_8  and  C_9
REMARK    5  A    between atoms: N_12  and  C_13
REMARK    6  A    between atoms: C_15  and  O_16
REMARK    7  A    between atoms: O_16  and  C_17
REMARK    8  A    between atoms: C_18  and  O_19
REMARK    9  A    between atoms: O_19  and  C_20
REMARK   10  A    between atoms: C_21  and  O_22
REMARK   11  A    between atoms: O_22  and  C_23
REMARK                            x       y       z     vdW  Elec       q    Type
REMARK                         _______ _______ _______ _____ _____    ______ ____
ROOT
ATOM      1  C   UNL     1       3.501   4.785  19.123  0.00  0.00    +0.000 C 
ATOM      2  C   UNL     1       2.484   3.585  19.235  0.00  0.00    +0.000 C 
ATOM      3  C   UNL     1       1.069   3.658  18.679  0.00  0.00    +0.000 C 
ATOM      4  C   UNL     1       3.432   2.891  18.246  0.00  0.00    +0.000 C 
ATOM      5  O   UNL     1       3.524   1.768  17.802  0.00  0.00    +0.000 OA
ATOM      6  N   UNL     1       4.050   4.075  17.971  0.00  0.00    +0.000 N 
ENDROOT
BRANCH   1  10
ATOM      7  C   UNL     1       1.792   8.854  18.725  0.00  0.00    +0.000 A 
ATOM      8  C   UNL     1       1.688   8.148  19.920  0.00  0.00    +0.000 A 
ATOM      9  C   UNL     1       2.256   6.876  20.040  0.00  0.00    +0.000 A 
ATOM     10  C   UNL     1       2.935   6.253  18.974  0.00  0.00    +0.000 A 
ATOM     11  C   UNL     1       3.046   7.010  17.791  0.00  0.00    +0.000 A 
ATOM     12  C   UNL     1       2.473   8.279  17.656  0.00  0.00    +0.000 A 
BRANCH   7  14
ATOM     13  C   UNL     1      -0.254  10.036  18.691  0.00  0.00    +0.000 C 
ATOM     14  O   UNL     1       1.168  10.069  18.711  0.00  0.00    +0.000 OA
ENDBRANCH   7  14
ENDBRANCH   1  10
BRANCH   6  15
ATOM     15  C   UNL     1       5.024   4.398  17.025  0.00  0.00    +0.000 A 
ATOM     16  C   UNL     1       5.909   5.437  17.305  0.00  0.00    +0.000 A 
ATOM     17  C   UNL     1       6.943   5.769  16.428  0.00  0.00    +0.000 A 
ATOM     18  C   UNL     1       7.066   5.091  15.207  0.00  0.00    +0.000 A 
ATOM     19  C   UNL     1       6.167   4.049  14.891  0.00  0.00    +0.000 A 
ATOM     20  C   UNL     1       5.168   3.697  15.823  0.00  0.00    +0.000 A 
BRANCH  17  21
ATOM     21  O   UNL     1       7.863   6.749  16.734  0.00  0.00    +0.000 OA
ATOM     22  C   UNL     1       7.841   7.223  18.077  0.00  0.00    +0.000 C 
ENDBRANCH  17  21
BRANCH  18  23
ATOM     23  O   UNL     1       8.040   5.589  14.364  0.00  0.00    +0.000 OA
ATOM     24  C   UNL     1       7.787   5.532  12.968  0.00  0.00    +0.000 C 
ENDBRANCH  18  23
BRANCH  19  25
ATOM     25  O   UNL     1       6.294   3.449  13.671  0.00  0.00    +0.000 OA
ATOM     26  C   UNL     1       5.191   3.487  12.768  0.00  0.00    +0.000 C 
ENDBRANCH  19  25
ENDBRANCH   6  15
TORSDOF 6
ENDMDL
MODEL 2
REMARK VINA RESULT:      -7.8      0.426      1.030
REMARK  Name = 
REMARK  11 active torsions:
REMARK  status: ('A' for Active; 'I' for Inactive)
REMARK    1  A    between atoms: C_1  and  O_2
REMARK    2  A    between atoms: O_2  and  C_3
REMARK    3  A    between atoms: C_6  and  C_7
REMARK    4  A    between atoms: C_8  and  C_9
REMARK    5  A    between atoms: N_12  and  C_13
REMARK    6  A    between atoms: C_15  and  O_16
REMARK    7  A    between atoms: O_16  and  C_17
REMARK    8  A    between atoms: C_18  and  O_19
REMARK    9  A    between atoms: O_19  and  C_20
REMARK   10  A    between atoms: C_21  and  O_22
REMARK   11  A    between atoms: O_22  and  C_23
REMARK                            x       y       z     vdW  Elec       q    Type
REMARK                         _______ _______ _______ _____ _____    ______ ____
ROOT
ATOM      1  C   UNL     1       3.585   4.847  19.255  0.00  0.00    +0.000 C 
ATOM      2  C   UNL     1       2.659   3.590  19.475  0.00  0.00    +0.000 C 
ATOM      3  C   UNL     1       1.226   3.530  18.963  0.00  0.00    +0.000 C 
ATOM      4  C   UNL     1       3.624   2.901  18.499  0.00  0.00    +0.000 C 
ATOM      5  O   UNL     1       3.782   1.761  18.123  0.00  0.00    +0.000 OA
ATOM      6  N   UNL     1       4.148   4.105  18.131  0.00  0.00    +0.000 N 
ENDROOT
BRANCH   1  10
ATOM      7  C   UNL     1       1.821   8.861  18.618  0.00  0.00    +0.000 A 
ATOM      8  C   UNL     1       2.496   8.206  17.592  0.00  0.00    +0.000 A 
ATOM      9  C   UNL     1       3.024   6.928  17.800  0.00  0.00    +0.000 A 
ATOM     10  C   UNL     1       2.913   6.260  19.036  0.00  0.00    +0.000 A 
ATOM     11  C   UNL     1       2.197   6.943  20.039  0.00  0.00    +0.000 A 
ATOM     12  C   UNL     1       1.674   8.226  19.846  0.00  0.00    +0.000 A 
BRANCH   7  14
ATOM     13  C   UNL     1       1.034  10.940  19.423  0.00  0.00    +0.000 C 
ATOM     14  O   UNL     1       1.381  10.119  18.313  0.00  0.00    +0.000 OA
ENDBRANCH   7  14
ENDBRANCH   1  10
BRANCH   6  15
ATOM     15  C   UNL     1       5.069   4.432  17.135  0.00  0.00    +0.000 A 
ATOM     16  C   UNL     1       5.978   5.462  17.377  0.00  0.00    +0.000 A 
ATOM     17  C   UNL     1       6.962   5.797  16.446  0.00  0.00    +0.000 A 
ATOM     18  C   UNL     1       7.009   5.134  15.212  0.00  0.00    +0.000 A 
ATOM     19  C   UNL     1       6.085   4.102  14.935  0.00  0.00    +0.000 A 
ATOM     20  C   UNL     1       5.139   3.746  15.918  0.00  0.00    +0.000 A 
BRANCH  17  21
ATOM     21  O   UNL     1       7.906   6.767  16.711  0.00  0.00    +0.000 OA
ATOM     22  C   UNL     1       7.511   7.783  17.628  0.00  0.00    +0.000 C 
ENDBRANCH  17  21
BRANCH  18  23
ATOM     23  O   UNL     1       7.937   5.636  14.321  0.00  0.00    +0.000 OA
ATOM     24  C   UNL     1       7.843   5.209  12.970  0.00  0.00    +0.000 C 
ENDBRANCH  18  23
BRANCH  19  25
ATOM     25  O   UNL     1       6.138   3.517  13.703  0.00  0.00    +0.000 OA
ATOM     26  C   UNL     1       4.992   3.594  12.857  0.00  0.00    +0.000 C 
ENDBRANCH  19  25
ENDBRANCH   6  15
TORSDOF 6
ENDMDL
MODEL 3
REMARK VINA RESULT:      -7.8      0.274      2.520
REMARK  Name = 
REMARK  11 active torsions:
REMARK  status: ('A' for Active; 'I' for Inactive)
REMARK    1  A    between atoms: C_1  and  O_2
REMARK    2  A    between atoms: O_2  and  C_3
REMARK    3  A    between atoms: C_6  and  C_7
REMARK    4  A    between atoms: C_8  and  C_9
REMARK    5  A    between atoms: N_12  and  C_13
REMARK    6  A    between atoms: C_15  and  O_16
REMARK    7  A    between atoms: O_16  and  C_17
REMARK    8  A    between atoms: C_18  and  O_19
REMARK    9  A    between atoms: O_19  and  C_20
REMARK   10  A    between atoms: C_21  and  O_22
REMARK   11  A    between atoms: O_22  and  C_23
REMARK                            x       y       z     vdW  Elec       q    Type
REMARK                         _______ _______ _______ _____ _____    ______ ____
ROOT
ATOM      1  C   UNL     1       3.475   4.792  19.232  0.00  0.00    +0.000 C 
ATOM      2  C   UNL     1       2.472   3.577  19.292  0.00  0.00    +0.000 C 
ATOM      3  C   UNL     1       1.084   3.629  18.668  0.00  0.00    +0.000 C 
ATOM      4  C   UNL     1       3.478   2.901  18.348  0.00  0.00    +0.000 C 
ATOM      5  O   UNL     1       3.609   1.781  17.906  0.00  0.00    +0.000 OA
ATOM      6  N   UNL     1       4.089   4.095  18.106  0.00  0.00    +0.000 N 
ENDROOT
BRANCH   1  10
ATOM      7  C   UNL     1       1.723   8.837  18.774  0.00  0.00    +0.000 A 
ATOM      8  C   UNL     1       1.666   8.167  19.992  0.00  0.00    +0.000 A 
ATOM      9  C   UNL     1       2.246   6.902  20.129  0.00  0.00    +0.000 A 
ATOM     10  C   UNL     1       2.893   6.252  19.059  0.00  0.00    +0.000 A 
ATOM     11  C   UNL     1       2.958   6.975  17.852  0.00  0.00    +0.000 A 
ATOM     12  C   UNL     1       2.371   8.236  17.700  0.00  0.00    +0.000 A 
BRANCH   7  14
ATOM     13  C   UNL     1      -0.146  10.118  19.447  0.00  0.00    +0.000 C 
ATOM     14  O   UNL     1       1.090  10.048  18.746  0.00  0.00    +0.000 OA
ENDBRANCH   7  14
ENDBRANCH   1  10
BRANCH   6  15
ATOM     15  C   UNL     1       5.102   4.436  17.208  0.00  0.00    +0.000 A 
ATOM     16  C   UNL     1       5.227   3.702  16.030  0.00  0.00    +0.000 A 
ATOM     17  C   UNL     1       6.180   4.031  15.065  0.00  0.00    +0.000 A 
ATOM     18  C   UNL     1       7.078   5.081  15.301  0.00  0.00    +0.000 A 
ATOM     19  C   UNL     1       6.985   5.826  16.497  0.00  0.00    +0.000 A 
ATOM     20  C   UNL     1       5.974   5.508  17.428  0.00  0.00    +0.000 A 
BRANCH  17  21
ATOM     21  O   UNL     1       6.260   3.351  13.868  0.00  0.00    +0.000 OA
ATOM     22  C   UNL     1       5.161   3.528  12.979  0.00  0.00    +0.000 C 
ENDBRANCH  17  21
BRANCH  18  23
ATOM     23  O   UNL     1       8.057   5.232  14.340  0.00  0.00    +0.000 OA
ATOM     24  C   UNL     1       7.674   5.816  13.103  0.00  0.00    +0.000 C 
ENDBRANCH  18  23
BRANCH  19  25
ATOM     25  O   UNL     1       7.910   6.808  16.707  0.00  0.00    +0.000 OA
ATOM     26  C   UNL     1       7.587   7.879  17.591  0.00  0.00    +0.000 C 
ENDBRANCH  19  25
ENDBRANCH   6  15
TORSDOF 6
ENDMDL
MODEL 4
REMARK VINA RESULT:      -7.5      1.025      1.422
REMARK  Name = 
REMARK  11 active torsions:
REMARK  status: ('A' for Active; 'I' for Inactive)
REMARK    1  A    between atoms: C_1  and  O_2
REMARK    2  A    between atoms: O_2  and  C_3
REMARK    3  A    between atoms: C_6  and  C_7
REMARK    4  A    between atoms: C_8  and  C_9
REMARK    5  A    between atoms: N_12  and  C_13
REMARK    6  A    between atoms: C_15  and  O_16
REMARK    7  A    between atoms: O_16  and  C_17
REMARK    8  A    between atoms: C_18  and  O_19
REMARK    9  A    between atoms: O_19  and  C_20
REMARK   10  A    between atoms: C_21  and  O_22
REMARK   11  A    between atoms: O_22  and  C_23
REMARK                            x       y       z     vdW  Elec       q    Type
REMARK                         _______ _______ _______ _____ _____    ______ ____
ROOT
ATOM      1  C   UNL     1       3.191   4.301  19.798  0.00  0.00    +0.000 C 
ATOM      2  C   UNL     1       2.252   3.035  19.819  0.00  0.00    +0.000 C 
ATOM      3  C   UNL     1       0.819   3.070  19.305  0.00  0.00    +0.000 C 
ATOM      4  C   UNL     1       3.211   2.497  18.747  0.00  0.00    +0.000 C 
ATOM      5  O   UNL     1       3.358   1.429  18.196  0.00  0.00    +0.000 OA
ATOM      6  N   UNL     1       3.748   3.738  18.572  0.00  0.00    +0.000 N 
ENDROOT
BRANCH   1  10
ATOM      7  C   UNL     1       1.469   8.383  19.804  0.00  0.00    +0.000 A 
ATOM      8  C   UNL     1       2.180   7.909  18.706  0.00  0.00    +0.000 A 
ATOM      9  C   UNL     1       2.695   6.609  18.707  0.00  0.00    +0.000 A 
ATOM     10  C   UNL     1       2.534   5.738  19.803  0.00  0.00    +0.000 A 
ATOM     11  C   UNL     1       1.783   6.243  20.883  0.00  0.00    +0.000 A 
ATOM     12  C   UNL     1       1.272   7.546  20.897  0.00  0.00    +0.000 A 
BRANCH   7  14
ATOM     13  C   UNL     1      -0.036  10.044  20.557  0.00  0.00    +0.000 C 
ATOM     14  O   UNL     1       1.046   9.679  19.708  0.00  0.00    +0.000 OA
ENDBRANCH   7  14
ENDBRANCH   1  10
BRANCH   6  15
ATOM     15  C   UNL     1       4.673   4.209  17.639  0.00  0.00    +0.000 A 
ATOM     16  C   UNL     1       5.872   4.750  18.100  0.00  0.00    +0.000 A 
ATOM     17  C   UNL     1       6.863   5.182  17.218  0.00  0.00    +0.000 A 
ATOM     18  C   UNL     1       6.635   5.133  15.835  0.00  0.00    +0.000 A 
ATOM     19  C   UNL     1       5.419   4.609  15.344  0.00  0.00    +0.000 A 
ATOM     20  C   UNL     1       4.460   4.126  16.259  0.00  0.00    +0.000 A 
BRANCH  17  21
ATOM     21  O   UNL     1       8.078   5.653  17.670  0.00  0.00    +0.000 OA
ATOM     22  C   UNL     1       8.077   6.215  18.979  0.00  0.00    +0.000 C 
ENDBRANCH  17  21
BRANCH  18  23
ATOM     23  O   UNL     1       7.628   5.706  15.065  0.00  0.00    +0.000 OA
ATOM     24  C   UNL     1       7.912   5.103  13.811  0.00  0.00    +0.000 C 
ENDBRANCH  18  23
BRANCH  19  25
ATOM     25  O   UNL     1       5.221   4.625  13.993  0.00  0.00    +0.000 OA
ATOM     26  C   UNL     1       5.282   3.395  13.275  0.00  0.00    +0.000 C 
ENDBRANCH  19  25
ENDBRANCH   6  15
TORSDOF 6
ENDMDL
MODEL 5
REMARK VINA RESULT:      -7.5      1.172      2.879
REMARK  Name = 
REMARK  11 active torsions:
REMARK  status: ('A' for Active; 'I' for Inactive)
REMARK    1  A    between atoms: C_1  and  O_2
REMARK    2  A    between atoms: O_2  and  C_3
REMARK    3  A    between atoms: C_6  and  C_7
REMARK    4  A    between atoms: C_8  and  C_9
REMARK    5  A    between atoms: N_12  and  C_13
REMARK    6  A    between atoms: C_15  and  O_16
REMARK    7  A    between atoms: O_16  and  C_17
REMARK    8  A    between atoms: C_18  and  O_19
REMARK    9  A    between atoms: O_19  and  C_20
REMARK   10  A    between atoms: C_21  and  O_22
REMARK   11  A    between atoms: O_22  and  C_23
REMARK                            x       y       z     vdW  Elec       q    Type
REMARK                         _______ _______ _______ _____ _____    ______ ____
ROOT
ATOM      1  C   UNL     1       3.119   5.308  20.239  0.00  0.00    +0.000 C 
ATOM      2  C   UNL     1       2.179   4.089  20.574  0.00  0.00    +0.000 C 
ATOM      3  C   UNL     1       0.812   3.907  19.929  0.00  0.00    +0.000 C 
ATOM      4  C   UNL     1       3.248   3.262  19.845  0.00  0.00    +0.000 C 
ATOM      5  O   UNL     1       3.451   2.078  19.693  0.00  0.00    +0.000 OA
ATOM      6  N   UNL     1       3.806   4.395  19.330  0.00  0.00    +0.000 N 
ENDROOT
BRANCH   1  10
ATOM      7  C   UNL     1       1.422   9.104  18.705  0.00  0.00    +0.000 A 
ATOM      8  C   UNL     1       2.087   8.224  17.857  0.00  0.00    +0.000 A 
ATOM      9  C   UNL     1       2.595   7.017  18.349  0.00  0.00    +0.000 A 
ATOM     10  C   UNL     1       2.471   6.647  19.703  0.00  0.00    +0.000 A 
ATOM     11  C   UNL     1       1.765   7.549  20.524  0.00  0.00    +0.000 A 
ATOM     12  C   UNL     1       1.263   8.764  20.044  0.00  0.00    +0.000 A 
BRANCH   7  14
ATOM     13  C   UNL     1       1.507  11.466  18.701  0.00  0.00    +0.000 C 
ATOM     14  O   UNL     1       1.003  10.267  18.123  0.00  0.00    +0.000 OA
ENDBRANCH   7  14
ENDBRANCH   1  10
BRANCH   6  15
ATOM     15  C   UNL     1       4.830   4.565  18.397  0.00  0.00    +0.000 A 
ATOM     16  C   UNL     1       4.797   3.815  17.223  0.00  0.00    +0.000 A 
ATOM     17  C   UNL     1       5.757   3.983  16.224  0.00  0.00    +0.000 A 
ATOM     18  C   UNL     1       6.819   4.877  16.421  0.00  0.00    +0.000 A 
ATOM     19  C   UNL     1       6.886   5.632  17.613  0.00  0.00    +0.000 A 
ATOM     20  C   UNL     1       5.869   5.484  18.579  0.00  0.00    +0.000 A 
BRANCH  17  21
ATOM     21  O   UNL     1       5.687   3.293  15.032  0.00  0.00    +0.000 OA
ATOM     22  C   UNL     1       4.943   3.923  13.994  0.00  0.00    +0.000 C 
ENDBRANCH  17  21
BRANCH  18  23
ATOM     23  O   UNL     1       7.777   4.864  15.428  0.00  0.00    +0.000 OA
ATOM     24  C   UNL     1       7.546   5.677  14.286  0.00  0.00    +0.000 C 
ENDBRANCH  18  23
BRANCH  19  25
ATOM     25  O   UNL     1       7.963   6.455  17.783  0.00  0.00    +0.000 OA
ATOM     26  C   UNL     1       7.793   7.857  17.589  0.00  0.00    +0.000 C 
ENDBRANCH  19  25
ENDBRANCH   6  15
TORSDOF 6
ENDMDL
MODEL 6
REMARK VINA RESULT:      -7.3      4.630     10.400
REMARK  Name = 
REMARK  11 active torsions:
REMARK  status: ('A' for Active; 'I' for Inactive)
REMARK    1  A    between atoms: C_1  and  O_2
REMARK    2  A    between atoms: O_2  and  C_3
REMARK    3  A    between atoms: C_6  and  C_7
REMARK    4  A    between atoms: C_8  and  C_9
REMARK    5  A    between atoms: N_12  and  C_13
REMARK    6  A    between atoms: C_15  and  O_16
REMARK    7  A    between atoms: O_16  and  C_17
REMARK    8  A    between atoms: C_18  and  O_19
REMARK    9  A    between atoms: O_19  and  C_20
REMARK   10  A    between atoms: C_21  and  O_22
REMARK   11  A    between atoms: O_22  and  C_23
REMARK                            x       y       z     vdW  Elec       q    Type
REMARK                         _______ _______ _______ _____ _____    ______ ____
ROOT
ATOM      1  C   UNL     1       0.602  11.945  20.034  0.00  0.00    +0.000 C 
ATOM      2  C   UNL     1       1.533  13.102  19.505  0.00  0.00    +0.000 C 
ATOM      3  C   UNL     1       2.495  12.910  18.340  0.00  0.00    +0.000 C 
ATOM      4  C   UNL     1       0.216  13.739  19.036  0.00  0.00    +0.000 C 
ATOM      5  O   UNL     1      -0.091  14.816  18.575  0.00  0.00    +0.000 OA
ATOM      6  N   UNL     1      -0.447  12.563  19.227  0.00  0.00    +0.000 N 
ENDROOT
BRANCH   1  10
ATOM      7  C   UNL     1       1.916   7.758  19.424  0.00  0.00    +0.000 A 
ATOM      8  C   UNL     1       1.510   8.204  20.678  0.00  0.00    +0.000 A 
ATOM      9  C   UNL     1       1.073   9.521  20.850  0.00  0.00    +0.000 A 
ATOM     10  C   UNL     1       1.034  10.445  19.787  0.00  0.00    +0.000 A 
ATOM     11  C   UNL     1       1.424   9.948  18.528  0.00  0.00    +0.000 A 
ATOM     12  C   UNL     1       1.874   8.635  18.346  0.00  0.00    +0.000 A 
BRANCH   7  14
ATOM     13  C   UNL     1       2.684   5.963  18.092  0.00  0.00    +0.000 C 
ATOM     14  O   UNL     1       2.359   6.465  19.382  0.00  0.00    +0.000 OA
ENDBRANCH   7  14
ENDBRANCH   1  10
BRANCH   6  15
ATOM     15  C   UNL     1      -1.757  12.194  18.918  0.00  0.00    +0.000 A 
ATOM     16  C   UNL     1      -2.774  12.526  19.812  0.00  0.00    +0.000 A 
ATOM     17  C   UNL     1      -4.111  12.240  19.533  0.00  0.00    +0.000 A 
ATOM     18  C   UNL     1      -4.445  11.547  18.361  0.00  0.00    +0.000 A 
ATOM     19  C   UNL     1      -3.430  11.180  17.450  0.00  0.00    +0.000 A 
ATOM     20  C   UNL     1      -2.094  11.535  17.731  0.00  0.00    +0.000 A 
BRANCH  17  21
ATOM     21  O   UNL     1      -5.126  12.630  20.381  0.00  0.00    +0.000 OA
ATOM     22  C   UNL     1      -4.773  12.749  21.756  0.00  0.00    +0.000 C 
ENDBRANCH  17  21
BRANCH  18  23
ATOM     23  O   UNL     1      -5.778  11.203  18.253  0.00  0.00    +0.000 OA
ATOM     24  C   UNL     1      -6.629  12.098  17.550  0.00  0.00    +0.000 C 
ENDBRANCH  18  23
BRANCH  19  25
ATOM     25  O   UNL     1      -3.796  10.464  16.346  0.00  0.00    +0.000 OA
ATOM     26  C   UNL     1      -3.057  10.637  15.139  0.00  0.00    +0.000 C 
ENDBRANCH  19  25
ENDBRANCH   6  15
TORSDOF 6
ENDMDL
MODEL 7
REMARK VINA RESULT:      -7.2      1.348      1.494
REMARK  Name = 
REMARK  11 active torsions:
REMARK  status: ('A' for Active; 'I' for Inactive)
REMARK    1  A    between atoms: C_1  and  O_2
REMARK    2  A    between atoms: O_2  and  C_3
REMARK    3  A    between atoms: C_6  and  C_7
REMARK    4  A    between atoms: C_8  and  C_9
REMARK    5  A    between atoms: N_12  and  C_13
REMARK    6  A    between atoms: C_15  and  O_16
REMARK    7  A    between atoms: O_16  and  C_17
REMARK    8  A    between atoms: C_18  and  O_19
REMARK    9  A    between atoms: O_19  and  C_20
REMARK   10  A    between atoms: C_21  and  O_22
REMARK   11  A    between atoms: O_22  and  C_23
REMARK                            x       y       z     vdW  Elec       q    Type
REMARK                         _______ _______ _______ _____ _____    ______ ____
ROOT
ATOM      1  C   UNL     1       2.832   4.693  20.209  0.00  0.00    +0.000 C 
ATOM      2  C   UNL     1       1.740   3.563  20.341  0.00  0.00    +0.000 C 
ATOM      3  C   UNL     1       0.354   3.689  19.723  0.00  0.00    +0.000 C 
ATOM      4  C   UNL     1       2.681   2.762  19.428  0.00  0.00    +0.000 C 
ATOM      5  O   UNL     1       2.721   1.613  19.046  0.00  0.00    +0.000 OA
ATOM      6  N   UNL     1       3.380   3.891  19.118  0.00  0.00    +0.000 N 
ENDROOT
BRANCH   1  10
ATOM      7  C   UNL     1       1.391   8.828  19.532  0.00  0.00    +0.000 A 
ATOM      8  C   UNL     1       1.188   8.191  20.752  0.00  0.00    +0.000 A 
ATOM      9  C   UNL     1       1.672   6.896  20.961  0.00  0.00    +0.000 A 
ATOM     10  C   UNL     1       2.363   6.182  19.962  0.00  0.00    +0.000 A 
ATOM     11  C   UNL     1       2.575   6.870  18.751  0.00  0.00    +0.000 A 
ATOM     12  C   UNL     1       2.086   8.162  18.528  0.00  0.00    +0.000 A 
BRANCH   7  14
ATOM     13  C   UNL     1      -0.147  10.399  20.398  0.00  0.00    +0.000 C 
ATOM     14  O   UNL     1       0.842  10.075  19.428  0.00  0.00    +0.000 OA
ENDBRANCH   7  14
ENDBRANCH   1  10
BRANCH   6  15
ATOM     15  C   UNL     1       4.407   4.105  18.198  0.00  0.00    +0.000 A 
ATOM     16  C   UNL     1       5.689   4.371  18.676  0.00  0.00    +0.000 A 
ATOM     17  C   UNL     1       6.770   4.533  17.809  0.00  0.00    +0.000 A 
ATOM     18  C   UNL     1       6.565   4.493  16.423  0.00  0.00    +0.000 A 
ATOM     19  C   UNL     1       5.270   4.247  15.914  0.00  0.00    +0.000 A 
ATOM     20  C   UNL     1       4.208   4.028  16.815  0.00  0.00    +0.000 A 
BRANCH  17  21
ATOM     21  O   UNL     1       8.052   4.726  18.281  0.00  0.00    +0.000 OA
ATOM     22  C   UNL     1       8.188   5.671  19.338  0.00  0.00    +0.000 C 
ENDBRANCH  17  21
BRANCH  18  23
ATOM     23  O   UNL     1       7.678   4.796  15.664  0.00  0.00    +0.000 OA
ATOM     24  C   UNL     1       7.782   6.118  15.155  0.00  0.00    +0.000 C 
ENDBRANCH  18  23
BRANCH  19  25
ATOM     25  O   UNL     1       5.108   4.264  14.558  0.00  0.00    +0.000 OA
ATOM     26  C   UNL     1       5.955   3.446  13.754  0.00  0.00    +0.000 C 
ENDBRANCH  19  25
ENDBRANCH   6  15
TORSDOF 6
ENDMDL
MODEL 8
REMARK VINA RESULT:      -7.2      4.700     10.629
REMARK  Name = 
REMARK  11 active torsions:
REMARK  status: ('A' for Active; 'I' for Inactive)
REMARK    1  A    between atoms: C_1  and  O_2
REMARK    2  A    between atoms: O_2  and  C_3
REMARK    3  A    between atoms: C_6  and  C_7
REMARK    4  A    between atoms: C_8  and  C_9
REMARK    5  A    between atoms: N_12  and  C_13
REMARK    6  A    between atoms: C_15  and  O_16
REMARK    7  A    between atoms: O_16  and  C_17
REMARK    8  A    between atoms: C_18  and  O_19
REMARK    9  A    between atoms: O_19  and  C_20
REMARK   10  A    between atoms: C_21  and  O_22
REMARK   11  A    between atoms: O_22  and  C_23
REMARK                            x       y       z     vdW  Elec       q    Type
REMARK                         _______ _______ _______ _____ _____    ______ ____
ROOT
ATOM      1  C   UNL     1       0.646  12.001  20.034  0.00  0.00    +0.000 C 
ATOM      2  C   UNL     1       1.580  13.128  19.449  0.00  0.00    +0.000 C 
ATOM      3  C   UNL     1       2.500  12.893  18.259  0.00  0.00    +0.000 C 
ATOM      4  C   UNL     1       0.260  13.778  19.007  0.00  0.00    +0.000 C 
ATOM      5  O   UNL     1      -0.043  14.849  18.531  0.00  0.00    +0.000 OA
ATOM      6  N   UNL     1      -0.417  12.618  19.246  0.00  0.00    +0.000 N 
ENDROOT
BRANCH   1  10
ATOM      7  C   UNL     1       1.864   7.776  19.487  0.00  0.00    +0.000 A 
ATOM      8  C   UNL     1       1.448   8.244  20.729  0.00  0.00    +0.000 A 
ATOM      9  C   UNL     1       1.040   9.574  20.882  0.00  0.00    +0.000 A 
ATOM     10  C   UNL     1       1.044  10.488  19.809  0.00  0.00    +0.000 A 
ATOM     11  C   UNL     1       1.443   9.969  18.562  0.00  0.00    +0.000 A 
ATOM     12  C   UNL     1       1.863   8.643  18.400  0.00  0.00    +0.000 A 
BRANCH   7  14
ATOM     13  C   UNL     1       2.559   5.933  18.180  0.00  0.00    +0.000 C 
ATOM     14  O   UNL     1       2.275   6.472  19.465  0.00  0.00    +0.000 OA
ENDBRANCH   7  14
ENDBRANCH   1  10
BRANCH   6  15
ATOM     15  C   UNL     1      -1.743  12.266  18.988  0.00  0.00    +0.000 A 
ATOM     16  C   UNL     1      -2.026  11.522  17.844  0.00  0.00    +0.000 A 
ATOM     17  C   UNL     1      -3.321  11.086  17.560  0.00  0.00    +0.000 A 
ATOM     18  C   UNL     1      -4.380  11.452  18.404  0.00  0.00    +0.000 A 
ATOM     19  C   UNL     1      -4.121  12.224  19.558  0.00  0.00    +0.000 A 
ATOM     20  C   UNL     1      -2.793  12.600  19.849  0.00  0.00    +0.000 A 
BRANCH  17  21
ATOM     21  O   UNL     1      -3.593  10.291  16.467  0.00  0.00    +0.000 OA
ATOM     22  C   UNL     1      -3.051  10.736  15.226  0.00  0.00    +0.000 C 
ENDBRANCH  17  21
BRANCH  18  23
ATOM     23  O   UNL     1      -5.631  11.077  17.957  0.00  0.00    +0.000 OA
ATOM     24  C   UNL     1      -6.430  12.076  17.338  0.00  0.00    +0.000 C 
ENDBRANCH  18  23
BRANCH  19  25
ATOM     25  O   UNL     1      -5.188  12.597  20.324  0.00  0.00    +0.000 OA
ATOM     26  C   UNL     1      -5.478  13.985  20.468  0.00  0.00    +0.000 C 
ENDBRANCH  19  25
ENDBRANCH   6  15
TORSDOF 6
ENDMDL
MODEL 9
REMARK VINA RESULT:      -7.1      3.412      6.555
REMARK  Name = 
REMARK  11 active torsions:
REMARK  status: ('A' for Active; 'I' for Inactive)
REMARK    1  A    between atoms: C_1  and  O_2
REMARK    2  A    between atoms: O_2  and  C_3
REMARK    3  A    between atoms: C_6  and  C_7
REMARK    4  A    between atoms: C_8  and  C_9
REMARK    5  A    between atoms: N_12  and  C_13
REMARK    6  A    between atoms: C_15  and  O_16
REMARK    7  A    between atoms: O_16  and  C_17
REMARK    8  A    between atoms: C_18  and  O_19
REMARK    9  A    between atoms: O_19  and  C_20
REMARK   10  A    between atoms: C_21  and  O_22
REMARK   11  A    between atoms: O_22  and  C_23
REMARK                            x       y       z     vdW  Elec       q    Type
REMARK                         _______ _______ _______ _____ _____    ______ ____
ROOT
ATOM      1  C   UNL     1       0.706  10.571  20.086  0.00  0.00    +0.000 C 
ATOM      2  C   UNL     1       0.476  11.074  21.562  0.00  0.00    +0.000 C 
ATOM      3  C   UNL     1      -0.891  11.049  22.232  0.00  0.00    +0.000 C 
ATOM      4  C   UNL     1       1.304   9.839  21.949  0.00  0.00    +0.000 C 
ATOM      5  O   UNL     1       1.791   9.431  22.979  0.00  0.00    +0.000 OA
ATOM      6  N   UNL     1       1.163   9.324  20.694  0.00  0.00    +0.000 N 
ENDROOT
BRANCH   1  10
ATOM      7  C   UNL     1      -2.785  10.547  17.358  0.00  0.00    +0.000 A 
ATOM      8  C   UNL     1      -2.774  11.346  18.497  0.00  0.00    +0.000 A 
ATOM      9  C   UNL     1      -1.654  11.364  19.335  0.00  0.00    +0.000 A 
ATOM     10  C   UNL     1      -0.512  10.580  19.079  0.00  0.00    +0.000 A 
ATOM     11  C   UNL     1      -0.549   9.808  17.901  0.00  0.00    +0.000 A 
ATOM     12  C   UNL     1      -1.668   9.774  17.061  0.00  0.00    +0.000 A 
BRANCH   7  14
ATOM     13  C   UNL     1      -4.797  11.694  16.882  0.00  0.00    +0.000 C 
ATOM     14  O   UNL     1      -3.945  10.581  16.636  0.00  0.00    +0.000 OA
ENDBRANCH   7  14
ENDBRANCH   1  10
BRANCH   6  15
ATOM     15  C   UNL     1       1.536   8.086  20.169  0.00  0.00    +0.000 A 
ATOM     16  C   UNL     1       2.265   8.054  18.981  0.00  0.00    +0.000 A 
ATOM     17  C   UNL     1       2.719   6.852  18.438  0.00  0.00    +0.000 A 
ATOM     18  C   UNL     1       2.389   5.638  19.056  0.00  0.00    +0.000 A 
ATOM     19  C   UNL     1       1.633   5.643  20.249  0.00  0.00    +0.000 A 
ATOM     20  C   UNL     1       1.237   6.877  20.806  0.00  0.00    +0.000 A 
BRANCH  17  21
ATOM     21  O   UNL     1       3.500   6.823  17.301  0.00  0.00    +0.000 OA
ATOM     22  C   UNL     1       4.907   6.889  17.513  0.00  0.00    +0.000 C 
ENDBRANCH  17  21
BRANCH  18  23
ATOM     23  O   UNL     1       2.779   4.511  18.362  0.00  0.00    +0.000 OA
ATOM     24  C   UNL     1       1.797   3.861  17.567  0.00  0.00    +0.000 C 
ENDBRANCH  18  23
BRANCH  19  25
ATOM     25  O   UNL     1       1.294   4.436  20.790  0.00  0.00    +0.000 OA
ATOM     26  C   UNL     1       2.240   3.764  21.618  0.00  0.00    +0.000 C 
ENDBRANCH  19  25
ENDBRANCH   6  15
TORSDOF 6
ENDMDL
