MODEL 1
REMARK VINA RESULT:      -6.8      0.000      0.000
REMARK  Name = 
REMARK  12 active torsions:
REMARK  status: ('A' for Active; 'I' for Inactive)
REMARK    1  A    between atoms: C_1  and  C_2
REMARK    2  A    between atoms: C_2  and  C_3
REMARK    3  A    between atoms: C_2  and  C_4
REMARK    4  A    between atoms: C_2  and  O_5
REMARK    5  A    between atoms: O_5  and  C_6
REMARK    6  A    between atoms: C_6  and  C_8
REMARK    7  A    between atoms: C_10  and  C_11
REMARK    8  A    between atoms: C_15  and  O_17
REMARK    9  A    between atoms: O_17  and  C_18
REMARK   10  A    between atoms: C_18  and  C_19
REMARK   11  A    between atoms: C_18  and  C_20
REMARK   12  A    between atoms: C_18  and  C_21
REMARK                            x       y       z     vdW  Elec       q    Type
REMARK                         _______ _______ _______ _____ _____    ______ ____
ROOT
ATOM      1  C   UNL     1       3.998   5.086  17.094  0.00  0.00    +0.000 C 
ATOM      2  C   UNL     1       4.776   4.392  15.971  0.00  0.00    +0.000 C 
ATOM      3  C   UNL     1       5.588   4.778  14.971  0.00  0.00    +0.000 C 
ATOM      4  C   UNL     1       4.319   3.038  16.449  0.00  0.00    +0.000 C 
ATOM      5  N   UNL     1       3.921   3.738  17.656  0.00  0.00    +0.000 N 
ATOM      6  C   UNL     1       3.905   3.229  18.912  0.00  0.00    +0.000 C 
ATOM      7  O   UNL     1       4.189   2.053  19.109  0.00  0.00    +0.000 OA
ENDROOT
BRANCH   1   8
ATOM      8  C   UNL     1       4.812   6.187  17.824  0.00  0.00    +0.000 C 
ATOM      9  O   UNL     1       4.626   7.393  17.641  0.00  0.00    +0.000 OA
BRANCH   8  10
ATOM     10  O   UNL     1       5.786   5.697  18.663  0.00  0.00    +0.000 OA
BRANCH  10  12
ATOM     11  C   UNL     1       7.426   7.048  17.431  0.00  0.00    +0.000 C 
ATOM     12  C   UNL     1       7.184   5.799  18.288  0.00  0.00    +0.000 C 
ATOM     13  C   UNL     1       7.681   4.523  17.594  0.00  0.00    +0.000 C 
ATOM     14  C   UNL     1       7.957   5.969  19.606  0.00  0.00    +0.000 C 
ENDBRANCH  10  12
ENDBRANCH   8  10
ENDBRANCH   1   8
BRANCH   3  15
ATOM     15  C   UNL     1       6.289   3.841  14.039  0.00  0.00    +0.000 C 
ATOM     16 BR   UNL     1       5.166   3.565  12.481  0.00  0.00    +0.000 Br
ENDBRANCH   3  15
BRANCH   6  17
ATOM     17  O   UNL     1       3.512   4.105  19.880  0.00  0.00    +0.000 OA
BRANCH  17  18
ATOM     18  C   UNL     1       2.140   3.997  20.371  0.00  0.00    +0.000 C 
ATOM     19  C   UNL     1       2.088   3.187  21.676  0.00  0.00    +0.000 C 
ATOM     20  C   UNL     1       1.644   5.423  20.679  0.00  0.00    +0.000 C 
ATOM     21  C   UNL     1       1.198   3.421  19.298  0.00  0.00    +0.000 C 
ENDBRANCH  17  18
ENDBRANCH   6  17
TORSDOF 6
ENDMDL
MODEL 2
REMARK VINA RESULT:      -6.6      0.066      1.333
REMARK  Name = 
REMARK  12 active torsions:
REMARK  status: ('A' for Active; 'I' for Inactive)
REMARK    1  A    between atoms: C_1  and  C_2
REMARK    2  A    between atoms: C_2  and  C_3
REMARK    3  A    between atoms: C_2  and  C_4
REMARK    4  A    between atoms: C_2  and  O_5
REMARK    5  A    between atoms: O_5  and  C_6
REMARK    6  A    between atoms: C_6  and  C_8
REMARK    7  A    between atoms: C_10  and  C_11
REMARK    8  A    between atoms: C_15  and  O_17
REMARK    9  A    between atoms: O_17  and  C_18
REMARK   10  A    between atoms: C_18  and  C_19
REMARK   11  A    between atoms: C_18  and  C_20
REMARK   12  A    between atoms: C_18  and  C_21
REMARK                            x       y       z     vdW  Elec       q    Type
REMARK                         _______ _______ _______ _____ _____    ______ ____
ROOT
ATOM      1  C   UNL     1       4.012   5.080  17.081  0.00  0.00    +0.000 C 
ATOM      2  C   UNL     1       4.779   4.383  15.953  0.00  0.00    +0.000 C 
ATOM      3  C   UNL     1       5.605   4.764  14.962  0.00  0.00    +0.000 C 
ATOM      4  C   UNL     1       4.287   3.034  16.408  0.00  0.00    +0.000 C 
ATOM      5  N   UNL     1       3.899   3.726  17.624  0.00  0.00    +0.000 N 
ATOM      6  C   UNL     1       3.864   3.200  18.872  0.00  0.00    +0.000 C 
ATOM      7  O   UNL     1       4.119   2.015  19.054  0.00  0.00    +0.000 OA
ENDROOT
BRANCH   1   8
ATOM      8  C   UNL     1       4.848   6.150  17.831  0.00  0.00    +0.000 C 
ATOM      9  O   UNL     1       4.679   7.363  17.677  0.00  0.00    +0.000 OA
BRANCH   8  10
ATOM     10  O   UNL     1       5.819   5.626  18.652  0.00  0.00    +0.000 OA
BRANCH  10  12
ATOM     11  C   UNL     1       8.046   6.001  19.619  0.00  0.00    +0.000 C 
ATOM     12  C   UNL     1       7.222   5.829  18.337  0.00  0.00    +0.000 C 
ATOM     13  C   UNL     1       7.421   7.001  17.366  0.00  0.00    +0.000 C 
ATOM     14  C   UNL     1       7.683   4.537  17.643  0.00  0.00    +0.000 C 
ENDBRANCH  10  12
ENDBRANCH   8  10
ENDBRANCH   1   8
BRANCH   3  15
ATOM     15  C   UNL     1       6.289   3.823  14.020  0.00  0.00    +0.000 C 
ATOM     16 BR   UNL     1       5.142   3.551  12.479  0.00  0.00    +0.000 Br
ENDBRANCH   3  15
BRANCH   6  17
ATOM     17  O   UNL     1       3.487   4.071  19.850  0.00  0.00    +0.000 OA
BRANCH  17  18
ATOM     18  C   UNL     1       2.100   4.015  20.305  0.00  0.00    +0.000 C 
ATOM     19  C   UNL     1       1.209   3.325  19.261  0.00  0.00    +0.000 C 
ATOM     20  C   UNL     1       2.067   3.164  21.590  0.00  0.00    +0.000 C 
ATOM     21  C   UNL     1       1.569   5.409  20.684  0.00  0.00    +0.000 C 
ENDBRANCH  17  18
ENDBRANCH   6  17
TORSDOF 6
ENDMDL
MODEL 3
REMARK VINA RESULT:      -6.4      0.068      1.341
REMARK  Name = 
REMARK  12 active torsions:
REMARK  status: ('A' for Active; 'I' for Inactive)
REMARK    1  A    between atoms: C_1  and  C_2
REMARK    2  A    between atoms: C_2  and  C_3
REMARK    3  A    between atoms: C_2  and  C_4
REMARK    4  A    between atoms: C_2  and  O_5
REMARK    5  A    between atoms: O_5  and  C_6
REMARK    6  A    between atoms: C_6  and  C_8
REMARK    7  A    between atoms: C_10  and  C_11
REMARK    8  A    between atoms: C_15  and  O_17
REMARK    9  A    between atoms: O_17  and  C_18
REMARK   10  A    between atoms: C_18  and  C_19
REMARK   11  A    between atoms: C_18  and  C_20
REMARK   12  A    between atoms: C_18  and  C_21
REMARK                            x       y       z     vdW  Elec       q    Type
REMARK                         _______ _______ _______ _____ _____    ______ ____
ROOT
ATOM      1  C   UNL     1       4.025   5.117  17.100  0.00  0.00    +0.000 C 
ATOM      2  C   UNL     1       4.785   4.410  15.973  0.00  0.00    +0.000 C 
ATOM      3  C   UNL     1       5.606   4.782  14.974  0.00  0.00    +0.000 C 
ATOM      4  C   UNL     1       4.295   3.065  16.443  0.00  0.00    +0.000 C 
ATOM      5  N   UNL     1       3.915   3.767  17.655  0.00  0.00    +0.000 N 
ATOM      6  C   UNL     1       3.887   3.252  18.907  0.00  0.00    +0.000 C 
ATOM      7  O   UNL     1       4.141   2.068  19.098  0.00  0.00    +0.000 OA
ENDROOT
BRANCH   1   8
ATOM      8  C   UNL     1       4.867   6.192  17.836  0.00  0.00    +0.000 C 
ATOM      9  O   UNL     1       4.725   7.403  17.643  0.00  0.00    +0.000 OA
BRANCH   8  10
ATOM     10  O   UNL     1       5.809   5.674  18.693  0.00  0.00    +0.000 OA
BRANCH  10  12
ATOM     11  C   UNL     1       7.672   4.501  17.604  0.00  0.00    +0.000 C 
ATOM     12  C   UNL     1       7.219   5.758  18.357  0.00  0.00    +0.000 C 
ATOM     13  C   UNL     1       8.083   6.027  19.596  0.00  0.00    +0.000 C 
ATOM     14  C   UNL     1       7.347   6.957  17.403  0.00  0.00    +0.000 C 
ENDBRANCH  10  12
ENDBRANCH   8  10
ENDBRANCH   1   8
BRANCH   3  15
ATOM     15  C   UNL     1       6.284   3.832  14.037  0.00  0.00    +0.000 C 
ATOM     16 BR   UNL     1       5.142   3.574  12.490  0.00  0.00    +0.000 Br
ENDBRANCH   3  15
BRANCH   6  17
ATOM     17  O   UNL     1       3.516   4.132  19.881  0.00  0.00    +0.000 OA
BRANCH  17  18
ATOM     18  C   UNL     1       2.147   4.042  20.385  0.00  0.00    +0.000 C 
ATOM     19  C   UNL     1       1.585   5.438  20.694  0.00  0.00    +0.000 C 
ATOM     20  C   UNL     1       1.283   3.420  19.271  0.00  0.00    +0.000 C 
ATOM     21  C   UNL     1       2.050   3.101  21.599  0.00  0.00    +0.000 C 
ENDBRANCH  17  18
ENDBRANCH   6  17
TORSDOF 6
ENDMDL
MODEL 4
REMARK VINA RESULT:      -6.3      1.232      1.774
REMARK  Name = 
REMARK  12 active torsions:
REMARK  status: ('A' for Active; 'I' for Inactive)
REMARK    1  A    between atoms: C_1  and  C_2
REMARK    2  A    between atoms: C_2  and  C_3
REMARK    3  A    between atoms: C_2  and  C_4
REMARK    4  A    between atoms: C_2  and  O_5
REMARK    5  A    between atoms: O_5  and  C_6
REMARK    6  A    between atoms: C_6  and  C_8
REMARK    7  A    between atoms: C_10  and  C_11
REMARK    8  A    between atoms: C_15  and  O_17
REMARK    9  A    between atoms: O_17  and  C_18
REMARK   10  A    between atoms: C_18  and  C_19
REMARK   11  A    between atoms: C_18  and  C_20
REMARK   12  A    between atoms: C_18  and  C_21
REMARK                            x       y       z     vdW  Elec       q    Type
REMARK                         _______ _______ _______ _____ _____    ______ ____
ROOT
ATOM      1  C   UNL     1       4.076   4.644  18.010  0.00  0.00    +0.000 C 
ATOM      2  C   UNL     1       4.399   4.374  16.537  0.00  0.00    +0.000 C 
ATOM      3  C   UNL     1       5.347   4.761  15.665  0.00  0.00    +0.000 C 
ATOM      4  C   UNL     1       3.234   3.425  16.422  0.00  0.00    +0.000 C 
ATOM      5  N   UNL     1       3.222   3.463  17.873  0.00  0.00    +0.000 N 
ATOM      6  C   UNL     1       2.847   2.458  18.700  0.00  0.00    +0.000 C 
ATOM      7  O   UNL     1       2.411   1.408  18.243  0.00  0.00    +0.000 OA
ENDROOT
BRANCH   1   8
ATOM      8  C   UNL     1       5.319   4.600  18.936  0.00  0.00    +0.000 C 
ATOM      9  O   UNL     1       5.637   3.600  19.586  0.00  0.00    +0.000 OA
BRANCH   8  10
ATOM     10  O   UNL     1       6.013   5.786  18.996  0.00  0.00    +0.000 OA
BRANCH  10  12
ATOM     11  C   UNL     1       7.683   7.145  17.814  0.00  0.00    +0.000 C 
ATOM     12  C   UNL     1       7.398   5.838  18.564  0.00  0.00    +0.000 C 
ATOM     13  C   UNL     1       7.780   4.605  17.734  0.00  0.00    +0.000 C 
ATOM     14  C   UNL     1       8.235   5.836  19.854  0.00  0.00    +0.000 C 
ENDBRANCH  10  12
ENDBRANCH   8  10
ENDBRANCH   1   8
BRANCH   3  15
ATOM     15  C   UNL     1       5.459   4.261  14.258  0.00  0.00    +0.000 C 
ATOM     16 BR   UNL     1       7.195   4.775  13.559  0.00  0.00    +0.000 Br
ENDBRANCH   3  15
BRANCH   6  17
ATOM     17  O   UNL     1       2.953   2.741  20.030  0.00  0.00    +0.000 OA
BRANCH  17  18
ATOM     18  C   UNL     1       1.808   3.378  20.677  0.00  0.00    +0.000 C 
ATOM     19  C   UNL     1       0.561   3.303  19.782  0.00  0.00    +0.000 C 
ATOM     20  C   UNL     1       1.510   2.594  21.969  0.00  0.00    +0.000 C 
ATOM     21  C   UNL     1       2.127   4.824  21.098  0.00  0.00    +0.000 C 
ENDBRANCH  17  18
ENDBRANCH   6  17
TORSDOF 6
ENDMDL
MODEL 5
REMARK VINA RESULT:      -6.1      1.202      1.746
REMARK  Name = 
REMARK  12 active torsions:
REMARK  status: ('A' for Active; 'I' for Inactive)
REMARK    1  A    between atoms: C_1  and  C_2
REMARK    2  A    between atoms: C_2  and  C_3
REMARK    3  A    between atoms: C_2  and  C_4
REMARK    4  A    between atoms: C_2  and  O_5
REMARK    5  A    between atoms: O_5  and  C_6
REMARK    6  A    between atoms: C_6  and  C_8
REMARK    7  A    between atoms: C_10  and  C_11
REMARK    8  A    between atoms: C_15  and  O_17
REMARK    9  A    between atoms: O_17  and  C_18
REMARK   10  A    between atoms: C_18  and  C_19
REMARK   11  A    between atoms: C_18  and  C_20
REMARK   12  A    between atoms: C_18  and  C_21
REMARK                            x       y       z     vdW  Elec       q    Type
REMARK                         _______ _______ _______ _____ _____    ______ ____
ROOT
ATOM      1  C   UNL     1       4.054   4.633  17.969  0.00  0.00    +0.000 C 
ATOM      2  C   UNL     1       4.383   4.322  16.505  0.00  0.00    +0.000 C 
ATOM      3  C   UNL     1       5.302   4.726  15.609  0.00  0.00    +0.000 C 
ATOM      4  C   UNL     1       3.273   3.304  16.438  0.00  0.00    +0.000 C 
ATOM      5  N   UNL     1       3.269   3.401  17.887  0.00  0.00    +0.000 N 
ATOM      6  C   UNL     1       2.958   2.410  18.757  0.00  0.00    +0.000 C 
ATOM      7  O   UNL     1       2.580   1.319  18.347  0.00  0.00    +0.000 OA
ENDROOT
BRANCH   1   8
ATOM      8  C   UNL     1       5.304   4.697  18.884  0.00  0.00    +0.000 C 
ATOM      9  O   UNL     1       5.653   3.763  19.611  0.00  0.00    +0.000 OA
BRANCH   8  10
ATOM     10  O   UNL     1       5.966   5.902  18.842  0.00  0.00    +0.000 OA
BRANCH  10  12
ATOM     11  C   UNL     1       8.167   5.765  19.925  0.00  0.00    +0.000 C 
ATOM     12  C   UNL     1       7.399   5.935  18.608  0.00  0.00    +0.000 C 
ATOM     13  C   UNL     1       7.822   7.204  17.856  0.00  0.00    +0.000 C 
ATOM     14  C   UNL     1       7.701   4.718  17.719  0.00  0.00    +0.000 C 
ENDBRANCH  10  12
ENDBRANCH   8  10
ENDBRANCH   1   8
BRANCH   3  15
ATOM     15  C   UNL     1       5.433   4.177  14.223  0.00  0.00    +0.000 C 
ATOM     16 BR   UNL     1       7.153   4.718  13.507  0.00  0.00    +0.000 Br
ENDBRANCH   3  15
BRANCH   6  17
ATOM     17  O   UNL     1       3.056   2.752  20.073  0.00  0.00    +0.000 OA
BRANCH  17  18
ATOM     18  C   UNL     1       1.866   3.303  20.717  0.00  0.00    +0.000 C 
ATOM     19  C   UNL     1       1.527   2.525  21.998  0.00  0.00    +0.000 C 
ATOM     20  C   UNL     1       2.185   4.756  21.118  0.00  0.00    +0.000 C 
ATOM     21  C   UNL     1       0.672   3.362  19.748  0.00  0.00    +0.000 C 
ENDBRANCH  17  18
ENDBRANCH   6  17
TORSDOF 6
ENDMDL
MODEL 6
REMARK VINA RESULT:      -6.1      0.612      1.128
REMARK  Name = 
REMARK  12 active torsions:
REMARK  status: ('A' for Active; 'I' for Inactive)
REMARK    1  A    between atoms: C_1  and  C_2
REMARK    2  A    between atoms: C_2  and  C_3
REMARK    3  A    between atoms: C_2  and  C_4
REMARK    4  A    between atoms: C_2  and  O_5
REMARK    5  A    between atoms: O_5  and  C_6
REMARK    6  A    between atoms: C_6  and  C_8
REMARK    7  A    between atoms: C_10  and  C_11
REMARK    8  A    between atoms: C_15  and  O_17
REMARK    9  A    between atoms: O_17  and  C_18
REMARK   10  A    between atoms: C_18  and  C_19
REMARK   11  A    between atoms: C_18  and  C_20
REMARK   12  A    between atoms: C_18  and  C_21
REMARK                            x       y       z     vdW  Elec       q    Type
REMARK                         _______ _______ _______ _____ _____    ______ ____
ROOT
ATOM      1  C   UNL     1       3.890   4.973  17.032  0.00  0.00    +0.000 C 
ATOM      2  C   UNL     1       4.711   4.292  15.931  0.00  0.00    +0.000 C 
ATOM      3  C   UNL     1       5.501   4.695  14.920  0.00  0.00    +0.000 C 
ATOM      4  C   UNL     1       4.332   2.929  16.450  0.00  0.00    +0.000 C 
ATOM      5  N   UNL     1       3.891   3.640  17.635  0.00  0.00    +0.000 N 
ATOM      6  C   UNL     1       3.901   3.170  18.905  0.00  0.00    +0.000 C 
ATOM      7  O   UNL     1       4.253   2.020  19.139  0.00  0.00    +0.000 OA
ENDROOT
BRANCH   1   8
ATOM      8  C   UNL     1       4.636   6.142  17.728  0.00  0.00    +0.000 C 
ATOM      9  O   UNL     1       4.098   6.884  18.554  0.00  0.00    +0.000 OA
BRANCH   8  10
ATOM     10  O   UNL     1       5.938   6.298  17.314  0.00  0.00    +0.000 OA
BRANCH  10  12
ATOM     11  C   UNL     1       8.011   7.023  18.415  0.00  0.00    +0.000 C 
ATOM     12  C   UNL     1       7.027   5.871  18.174  0.00  0.00    +0.000 C 
ATOM     13  C   UNL     1       7.730   4.624  17.621  0.00  0.00    +0.000 C 
ATOM     14  C   UNL     1       6.377   5.509  19.519  0.00  0.00    +0.000 C 
ENDBRANCH  10  12
ENDBRANCH   8  10
ENDBRANCH   1   8
BRANCH   3  15
ATOM     15  C   UNL     1       6.259   3.772  14.018  0.00  0.00    +0.000 C 
ATOM     16 BR   UNL     1       5.215   3.489  12.408  0.00  0.00    +0.000 Br
ENDBRANCH   3  15
BRANCH   6  17
ATOM     17  O   UNL     1       3.454   4.051  19.846  0.00  0.00    +0.000 OA
BRANCH  17  18
ATOM     18  C   UNL     1       2.088   3.880  20.334  0.00  0.00    +0.000 C 
ATOM     19  C   UNL     1       1.441   5.240  20.640  0.00  0.00    +0.000 C 
ATOM     20  C   UNL     1       1.274   3.212  19.209  0.00  0.00    +0.000 C 
ATOM     21  C   UNL     1       2.032   2.931  21.545  0.00  0.00    +0.000 C 
ENDBRANCH  17  18
ENDBRANCH   6  17
TORSDOF 6
ENDMDL
MODEL 7
REMARK VINA RESULT:      -5.9      3.228      4.482
REMARK  Name = 
REMARK  12 active torsions:
REMARK  status: ('A' for Active; 'I' for Inactive)
REMARK    1  A    between atoms: C_1  and  C_2
REMARK    2  A    between atoms: C_2  and  C_3
REMARK    3  A    between atoms: C_2  and  C_4
REMARK    4  A    between atoms: C_2  and  O_5
REMARK    5  A    between atoms: O_5  and  C_6
REMARK    6  A    between atoms: C_6  and  C_8
REMARK    7  A    between atoms: C_10  and  C_11
REMARK    8  A    between atoms: C_15  and  O_17
REMARK    9  A    between atoms: O_17  and  C_18
REMARK   10  A    between atoms: C_18  and  C_19
REMARK   11  A    between atoms: C_18  and  C_20
REMARK   12  A    between atoms: C_18  and  C_21
REMARK                            x       y       z     vdW  Elec       q    Type
REMARK                         _______ _______ _______ _____ _____    ______ ____
ROOT
ATOM      1  C   UNL     1       3.540   6.906  18.935  0.00  0.00    +0.000 C 
ATOM      2  C   UNL     1       2.396   7.905  18.727  0.00  0.00    +0.000 C 
ATOM      3  C   UNL     1       2.068   8.826  17.803  0.00  0.00    +0.000 C 
ATOM      4  C   UNL     1       1.706   7.422  19.977  0.00  0.00    +0.000 C 
ATOM      5  N   UNL     1       2.619   6.298  19.896  0.00  0.00    +0.000 N 
ATOM      6  C   UNL     1       2.373   5.031  20.307  0.00  0.00    +0.000 C 
ATOM      7  O   UNL     1       1.315   4.752  20.862  0.00  0.00    +0.000 OA
ENDROOT
BRANCH   1   8
ATOM      8  C   UNL     1       3.934   6.139  17.645  0.00  0.00    +0.000 C 
ATOM      9  O   UNL     1       3.330   5.139  17.247  0.00  0.00    +0.000 OA
BRANCH   8  10
ATOM     10  O   UNL     1       5.040   6.651  17.008  0.00  0.00    +0.000 OA
BRANCH  10  12
ATOM     11  C   UNL     1       6.300   5.134  18.473  0.00  0.00    +0.000 C 
ATOM     12  C   UNL     1       6.355   6.097  17.281  0.00  0.00    +0.000 C 
ATOM     13  C   UNL     1       7.404   7.199  17.482  0.00  0.00    +0.000 C 
ATOM     14  C   UNL     1       6.732   5.287  16.030  0.00  0.00    +0.000 C 
ENDBRANCH  10  12
ENDBRANCH   8  10
ENDBRANCH   1   8
BRANCH   3  15
ATOM     15  C   UNL     1       0.808   9.632  17.822  0.00  0.00    +0.000 C 
ATOM     16 BR   UNL     1       1.089  11.188  18.947  0.00  0.00    +0.000 Br
ENDBRANCH   3  15
BRANCH   6  17
ATOM     17  O   UNL     1       3.392   4.151  20.096  0.00  0.00    +0.000 OA
BRANCH  17  18
ATOM     18  C   UNL     1       3.090   2.726  20.219  0.00  0.00    +0.000 C 
ATOM     19  C   UNL     1       2.118   2.276  19.118  0.00  0.00    +0.000 C 
ATOM     20  C   UNL     1       4.411   1.954  20.029  0.00  0.00    +0.000 C 
ATOM     21  C   UNL     1       2.570   2.376  21.625  0.00  0.00    +0.000 C 
ENDBRANCH  17  18
ENDBRANCH   6  17
TORSDOF 6
ENDMDL
MODEL 8
REMARK VINA RESULT:      -5.9      1.550      2.854
REMARK  Name = 
REMARK  12 active torsions:
REMARK  status: ('A' for Active; 'I' for Inactive)
REMARK    1  A    between atoms: C_1  and  C_2
REMARK    2  A    between atoms: C_2  and  C_3
REMARK    3  A    between atoms: C_2  and  C_4
REMARK    4  A    between atoms: C_2  and  O_5
REMARK    5  A    between atoms: O_5  and  C_6
REMARK    6  A    between atoms: C_6  and  C_8
REMARK    7  A    between atoms: C_10  and  C_11
REMARK    8  A    between atoms: C_15  and  O_17
REMARK    9  A    between atoms: O_17  and  C_18
REMARK   10  A    between atoms: C_18  and  C_19
REMARK   11  A    between atoms: C_18  and  C_20
REMARK   12  A    between atoms: C_18  and  C_21
REMARK                            x       y       z     vdW  Elec       q    Type
REMARK                         _______ _______ _______ _____ _____    ______ ____
ROOT
ATOM      1  C   UNL     1       3.887   4.999  17.340  0.00  0.00    +0.000 C 
ATOM      2  C   UNL     1       4.970   4.540  16.358  0.00  0.00    +0.000 C 
ATOM      3  C   UNL     1       5.875   5.139  15.563  0.00  0.00    +0.000 C 
ATOM      4  C   UNL     1       4.673   3.094  16.657  0.00  0.00    +0.000 C 
ATOM      5  N   UNL     1       3.941   3.611  17.798  0.00  0.00    +0.000 N 
ATOM      6  C   UNL     1       3.778   2.996  18.994  0.00  0.00    +0.000 C 
ATOM      7  O   UNL     1       4.220   1.867  19.178  0.00  0.00    +0.000 OA
ENDROOT
BRANCH   1   8
ATOM      8  C   UNL     1       4.347   6.145  18.279  0.00  0.00    +0.000 C 
ATOM      9  O   UNL     1       5.136   5.973  19.212  0.00  0.00    +0.000 OA
BRANCH   8  10
ATOM     10  O   UNL     1       3.766   7.361  18.002  0.00  0.00    +0.000 OA
BRANCH  10  12
ATOM     11  C   UNL     1       2.185   7.642  19.861  0.00  0.00    +0.000 C 
ATOM     12  C   UNL     1       2.373   7.592  18.339  0.00  0.00    +0.000 C 
ATOM     13  C   UNL     1       1.450   6.558  17.681  0.00  0.00    +0.000 C 
ATOM     14  C   UNL     1       2.034   8.980  17.771  0.00  0.00    +0.000 C 
ENDBRANCH  10  12
ENDBRANCH   8  10
ENDBRANCH   1   8
BRANCH   3  15
ATOM     15  C   UNL     1       6.891   4.411  14.739  0.00  0.00    +0.000 C 
ATOM     16 BR   UNL     1       6.028   3.771  13.123  0.00  0.00    +0.000 Br
ENDBRANCH   3  15
BRANCH   6  17
ATOM     17  O   UNL     1       3.065   3.708  19.913  0.00  0.00    +0.000 OA
BRANCH  17  18
ATOM     18  C   UNL     1       1.729   3.223  20.252  0.00  0.00    +0.000 C 
ATOM     19  C   UNL     1       1.758   2.406  21.554  0.00  0.00    +0.000 C 
ATOM     20  C   UNL     1       0.834   4.455  20.488  0.00  0.00    +0.000 C 
ATOM     21  C   UNL     1       1.100   2.433  19.091  0.00  0.00    +0.000 C 
ENDBRANCH  17  18
ENDBRANCH   6  17
TORSDOF 6
ENDMDL
MODEL 9
REMARK VINA RESULT:      -5.8      3.228      4.353
REMARK  Name = 
REMARK  12 active torsions:
REMARK  status: ('A' for Active; 'I' for Inactive)
REMARK    1  A    between atoms: C_1  and  C_2
REMARK    2  A    between atoms: C_2  and  C_3
REMARK    3  A    between atoms: C_2  and  C_4
REMARK    4  A    between atoms: C_2  and  O_5
REMARK    5  A    between atoms: O_5  and  C_6
REMARK    6  A    between atoms: C_6  and  C_8
REMARK    7  A    between atoms: C_10  and  C_11
REMARK    8  A    between atoms: C_15  and  O_17
REMARK    9  A    between atoms: O_17  and  C_18
REMARK   10  A    between atoms: C_18  and  C_19
REMARK   11  A    between atoms: C_18  and  C_20
REMARK   12  A    between atoms: C_18  and  C_21
REMARK                            x       y       z     vdW  Elec       q    Type
REMARK                         _______ _______ _______ _____ _____    ______ ____
ROOT
ATOM      1  C   UNL     1       3.511   6.958  19.000  0.00  0.00    +0.000 C 
ATOM      2  C   UNL     1       2.359   7.935  18.741  0.00  0.00    +0.000 C 
ATOM      3  C   UNL     1       2.045   8.835  17.791  0.00  0.00    +0.000 C 
ATOM      4  C   UNL     1       1.639   7.463  19.977  0.00  0.00    +0.000 C 
ATOM      5  N   UNL     1       2.572   6.352  19.943  0.00  0.00    +0.000 N 
ATOM      6  C   UNL     1       2.332   5.088  20.369  0.00  0.00    +0.000 C 
ATOM      7  O   UNL     1       1.263   4.802  20.895  0.00  0.00    +0.000 OA
ENDROOT
BRANCH   1   8
ATOM      8  C   UNL     1       3.957   6.177  17.737  0.00  0.00    +0.000 C 
ATOM      9  O   UNL     1       3.345   5.198  17.302  0.00  0.00    +0.000 OA
BRANCH   8  10
ATOM     10  O   UNL     1       5.117   6.649  17.168  0.00  0.00    +0.000 OA
BRANCH  10  12
ATOM     11  C   UNL     1       6.789   5.035  16.370  0.00  0.00    +0.000 C 
ATOM     12  C   UNL     1       6.386   6.017  17.478  0.00  0.00    +0.000 C 
ATOM     13  C   UNL     1       6.363   5.344  18.858  0.00  0.00    +0.000 C 
ATOM     14  C   UNL     1       7.420   7.154  17.508  0.00  0.00    +0.000 C 
ENDBRANCH  10  12
ENDBRANCH   8  10
ENDBRANCH   1   8
BRANCH   3  15
ATOM     15  C   UNL     1       0.773   9.622  17.758  0.00  0.00    +0.000 C 
ATOM     16 BR   UNL     1       0.957  11.142  18.950  0.00  0.00    +0.000 Br
ENDBRANCH   3  15
BRANCH   6  17
ATOM     17  O   UNL     1       3.372   4.221  20.203  0.00  0.00    +0.000 OA
BRANCH  17  18
ATOM     18  C   UNL     1       3.056   2.796  20.133  0.00  0.00    +0.000 C 
ATOM     19  C   UNL     1       4.317   1.971  19.834  0.00  0.00    +0.000 C 
ATOM     20  C   UNL     1       2.528   2.369  21.516  0.00  0.00    +0.000 C 
ATOM     21  C   UNL     1       1.931   2.514  19.122  0.00  0.00    +0.000 C 
ENDBRANCH  17  18
ENDBRANCH   6  17
TORSDOF 6
ENDMDL
