MODEL 1
REMARK VINA RESULT:      -8.5      0.000      0.000
REMARK  Name = 
REMARK  7 active torsions:
REMARK  status: ('A' for Active; 'I' for Inactive)
REMARK    1  A    between atoms: C_1  and  O_2
REMARK    2  A    between atoms: O_2  and  C_3
REMARK    3  A    between atoms: C_6  and  N_7
REMARK    4  A    between atoms: N_7  and  S_8
REMARK    5  A    between atoms: S_8  and  C_11
REMARK    6  A    between atoms: C_14  and  C_15
REMARK    7  A    between atoms: C_16  and  C_17
REMARK                            x       y       z     vdW  Elec       q    Type
REMARK                         _______ _______ _______ _____ _____    ______ ____
ROOT
ATOM      1  C   UNL     1       5.443   6.293  17.363  0.00  0.00    +0.000 A 
ATOM      2  C   UNL     1       5.121   7.502  16.751  0.00  0.00    +0.000 A 
ATOM      3  C   UNL     1       3.862   8.062  16.980  0.00  0.00    +0.000 A 
ATOM      4  C   UNL     1       2.951   7.465  17.877  0.00  0.00    +0.000 A 
ATOM      5  C   UNL     1       1.611   8.129  18.074  0.00  0.00    +0.000 C 
ATOM      6  C   UNL     1       3.314   6.267  18.539  0.00  0.00    +0.000 A 
ATOM      7  C   UNL     1       4.524   5.657  18.199  0.00  0.00    +0.000 A 
ENDROOT
BRANCH   6   8
ATOM      8  C   UNL     1       2.410   5.586  19.519  0.00  0.00    +0.000 C 
ATOM      9  O   UNL     1       2.125   6.213  20.539  0.00  0.00    +0.000 OA
ATOM     10  N   UNL     1       1.878   4.300  19.269  0.00  0.00    +0.000 N 
ATOM     11  C   UNL     1       0.797   3.861  20.153  0.00  0.00    +0.000 C 
ATOM     12  C   UNL     1       1.133   2.722  21.120  0.00  0.00    +0.000 C 
ATOM     13  C   UNL     1       2.519   2.790  21.764  0.00  0.00    +0.000 C 
ATOM     14  C   UNL     1       3.578   1.897  21.112  0.00  0.00    +0.000 C 
ATOM     15  C   UNL     1       4.014   2.268  19.695  0.00  0.00    +0.000 C 
ATOM     16  C   UNL     1       2.923   2.065  18.646  0.00  0.00    +0.000 C 
ATOM     17  C   UNL     1       2.281   3.374  18.197  0.00  0.00    +0.000 C 
ENDBRANCH   6   8
BRANCH   1  18
ATOM     18  S   UNL     1       7.071   5.595  17.217  0.00  0.00    +0.000 S 
ATOM     19  O   UNL     1       6.949   4.167  17.417  0.00  0.00    +0.000 OA
ATOM     20  O   UNL     1       7.958   6.394  18.037  0.00  0.00    +0.000 OA
BRANCH  18  21
ATOM     21  N   UNL     1       7.510   5.901  15.619  0.00  0.00    +0.000 N 
ATOM     22  H   UNL     1       7.602   6.900  15.437  0.00  0.00    +0.000 HD
BRANCH  21  26
ATOM     23  C   UNL     1       5.922   3.495  12.547  0.00  0.00    +0.000 A 
ATOM     24  C   UNL     1       5.254   3.621  13.765  0.00  0.00    +0.000 A 
ATOM     25  C   UNL     1       5.769   4.435  14.772  0.00  0.00    +0.000 A 
ATOM     26  C   UNL     1       6.978   5.099  14.577  0.00  0.00    +0.000 A 
ATOM     27  C   UNL     1       7.686   4.929  13.387  0.00  0.00    +0.000 A 
ATOM     28  C   UNL     1       7.145   4.141  12.362  0.00  0.00    +0.000 A 
BRANCH  23  30
ATOM     29  C   UNL     1       4.057   3.153  11.137  0.00  0.00    +0.000 C 
ATOM     30  O   UNL     1       5.305   2.687  11.634  0.00  0.00    +0.000 OA
ENDBRANCH  23  30
ENDBRANCH  21  26
ENDBRANCH  18  21
ENDBRANCH   1  18
TORSDOF 5
ENDMDL
MODEL 2
REMARK VINA RESULT:      -8.5      1.124      1.579
REMARK  Name = 
REMARK  7 active torsions:
REMARK  status: ('A' for Active; 'I' for Inactive)
REMARK    1  A    between atoms: C_1  and  O_2
REMARK    2  A    between atoms: O_2  and  C_3
REMARK    3  A    between atoms: C_6  and  N_7
REMARK    4  A    between atoms: N_7  and  S_8
REMARK    5  A    between atoms: S_8  and  C_11
REMARK    6  A    between atoms: C_14  and  C_15
REMARK    7  A    between atoms: C_16  and  C_17
REMARK                            x       y       z     vdW  Elec       q    Type
REMARK                         _______ _______ _______ _____ _____    ______ ____
ROOT
ATOM      1  C   UNL     1       5.868   6.371  18.277  0.00  0.00    +0.000 A 
ATOM      2  C   UNL     1       5.613   7.395  17.369  0.00  0.00    +0.000 A 
ATOM      3  C   UNL     1       4.290   7.775  17.131  0.00  0.00    +0.000 A 
ATOM      4  C   UNL     1       3.224   7.194  17.850  0.00  0.00    +0.000 A 
ATOM      5  C   UNL     1       1.823   7.655  17.539  0.00  0.00    +0.000 C 
ATOM      6  C   UNL     1       3.503   6.194  18.814  0.00  0.00    +0.000 A 
ATOM      7  C   UNL     1       4.818   5.740  18.945  0.00  0.00    +0.000 A 
ENDROOT
BRANCH   6   8
ATOM      8  C   UNL     1       2.428   5.545  19.630  0.00  0.00    +0.000 C 
ATOM      9  O   UNL     1       1.967   6.204  20.563  0.00  0.00    +0.000 OA
ATOM     10  N   UNL     1       1.939   4.255  19.324  0.00  0.00    +0.000 N 
ATOM     11  C   UNL     1       0.711   3.845  20.007  0.00  0.00    +0.000 C 
ATOM     12  C   UNL     1       0.854   2.735  21.051  0.00  0.00    +0.000 C 
ATOM     13  C   UNL     1       2.099   2.816  21.936  0.00  0.00    +0.000 C 
ATOM     14  C   UNL     1       3.252   1.900  21.514  0.00  0.00    +0.000 C 
ATOM     15  C   UNL     1       3.943   2.228  20.191  0.00  0.00    +0.000 C 
ATOM     16  C   UNL     1       3.061   1.999  18.967  0.00  0.00    +0.000 C 
ATOM     17  C   UNL     1       2.524   3.296  18.371  0.00  0.00    +0.000 C 
ENDBRANCH   6   8
BRANCH   1  18
ATOM     18  S   UNL     1       7.532   5.930  18.721  0.00  0.00    +0.000 S 
ATOM     19  O   UNL     1       7.506   5.463  20.089  0.00  0.00    +0.000 OA
ATOM     20  O   UNL     1       8.390   7.026  18.318  0.00  0.00    +0.000 OA
BRANCH  18  21
ATOM     21  N   UNL     1       7.906   4.645  17.697  0.00  0.00    +0.000 N 
ATOM     22  H   UNL     1       8.911   4.480  17.648  0.00  0.00    +0.000 HD
BRANCH  21  26
ATOM     23  C   UNL     1       5.691   4.107  14.154  0.00  0.00    +0.000 A 
ATOM     24  C   UNL     1       6.840   4.897  14.158  0.00  0.00    +0.000 A 
ATOM     25  C   UNL     1       7.584   5.055  15.326  0.00  0.00    +0.000 A 
ATOM     26  C   UNL     1       7.159   4.453  16.507  0.00  0.00    +0.000 A 
ATOM     27  C   UNL     1       5.975   3.713  16.530  0.00  0.00    +0.000 A 
ATOM     28  C   UNL     1       5.251   3.524  15.344  0.00  0.00    +0.000 A 
BRANCH  23  30
ATOM     29  C   UNL     1       5.580   3.033  12.053  0.00  0.00    +0.000 C 
ATOM     30  O   UNL     1       5.062   4.012  12.945  0.00  0.00    +0.000 OA
ENDBRANCH  23  30
ENDBRANCH  21  26
ENDBRANCH  18  21
ENDBRANCH   1  18
TORSDOF 5
ENDMDL
MODEL 3
REMARK VINA RESULT:      -8.2      4.984      9.396
REMARK  Name = 
REMARK  7 active torsions:
REMARK  status: ('A' for Active; 'I' for Inactive)
REMARK    1  A    between atoms: C_1  and  O_2
REMARK    2  A    between atoms: O_2  and  C_3
REMARK    3  A    between atoms: C_6  and  N_7
REMARK    4  A    between atoms: N_7  and  S_8
REMARK    5  A    between atoms: S_8  and  C_11
REMARK    6  A    between atoms: C_14  and  C_15
REMARK    7  A    between atoms: C_16  and  C_17
REMARK                            x       y       z     vdW  Elec       q    Type
REMARK                         _______ _______ _______ _____ _____    ______ ____
ROOT
ATOM      1  C   UNL     1       1.250   8.662  20.336  0.00  0.00    +0.000 A 
ATOM      2  C   UNL     1       1.241   9.280  19.088  0.00  0.00    +0.000 A 
ATOM      3  C   UNL     1       2.020   8.742  18.061  0.00  0.00    +0.000 A 
ATOM      4  C   UNL     1       2.746   7.547  18.246  0.00  0.00    +0.000 A 
ATOM      5  C   UNL     1       3.563   7.026  17.090  0.00  0.00    +0.000 C 
ATOM      6  C   UNL     1       2.699   6.895  19.503  0.00  0.00    +0.000 A 
ATOM      7  C   UNL     1       2.019   7.517  20.553  0.00  0.00    +0.000 A 
ENDROOT
BRANCH   6   8
ATOM      8  C   UNL     1       3.426   5.614  19.770  0.00  0.00    +0.000 C 
ATOM      9  O   UNL     1       4.651   5.634  19.644  0.00  0.00    +0.000 OA
ATOM     10  N   UNL     1       2.745   4.445  20.183  0.00  0.00    +0.000 N 
ATOM     11  C   UNL     1       3.578   3.349  20.681  0.00  0.00    +0.000 C 
ATOM     12  C   UNL     1       3.652   2.100  19.798  0.00  0.00    +0.000 C 
ATOM     13  C   UNL     1       3.743   2.359  18.293  0.00  0.00    +0.000 C 
ATOM     14  C   UNL     1       2.419   2.222  17.534  0.00  0.00    +0.000 C 
ATOM     15  C   UNL     1       1.341   3.261  17.837  0.00  0.00    +0.000 C 
ATOM     16  C   UNL     1       0.764   3.152  19.246  0.00  0.00    +0.000 C 
ATOM     17  C   UNL     1       1.288   4.232  20.188  0.00  0.00    +0.000 C 
ENDBRANCH   6   8
BRANCH   1  18
ATOM     18  S   UNL     1       0.184   9.220  21.645  0.00  0.00    +0.000 S 
ATOM     19  O   UNL     1       1.028   9.623  22.748  0.00  0.00    +0.000 OA
ATOM     20  O   UNL     1      -0.847   8.217  21.817  0.00  0.00    +0.000 OA
BRANCH  18  21
ATOM     21  N   UNL     1      -0.584  10.574  21.002  0.00  0.00    +0.000 N 
ATOM     22  H   UNL     1      -0.313  10.739  20.033  0.00  0.00    +0.000 HD
BRANCH  21  26
ATOM     23  C   UNL     1      -1.256  13.956  23.423  0.00  0.00    +0.000 A 
ATOM     24  C   UNL     1      -2.009  12.795  23.603  0.00  0.00    +0.000 A 
ATOM     25  C   UNL     1      -1.769  11.670  22.816  0.00  0.00    +0.000 A 
ATOM     26  C   UNL     1      -0.799  11.714  21.818  0.00  0.00    +0.000 A 
ATOM     27  C   UNL     1      -0.085  12.891  21.587  0.00  0.00    +0.000 A 
ATOM     28  C   UNL     1      -0.301  14.008  22.406  0.00  0.00    +0.000 A 
BRANCH  23  30
ATOM     29  C   UNL     1      -2.573  15.879  23.809  0.00  0.00    +0.000 C 
ATOM     30  O   UNL     1      -1.570  14.982  24.269  0.00  0.00    +0.000 OA
ENDBRANCH  23  30
ENDBRANCH  21  26
ENDBRANCH  18  21
ENDBRANCH   1  18
TORSDOF 5
ENDMDL
MODEL 4
REMARK VINA RESULT:      -8.1      4.229      8.000
REMARK  Name = 
REMARK  7 active torsions:
REMARK  status: ('A' for Active; 'I' for Inactive)
REMARK    1  A    between atoms: C_1  and  O_2
REMARK    2  A    between atoms: O_2  and  C_3
REMARK    3  A    between atoms: C_6  and  N_7
REMARK    4  A    between atoms: N_7  and  S_8
REMARK    5  A    between atoms: S_8  and  C_11
REMARK    6  A    between atoms: C_14  and  C_15
REMARK    7  A    between atoms: C_16  and  C_17
REMARK                            x       y       z     vdW  Elec       q    Type
REMARK                         _______ _______ _______ _____ _____    ______ ____
ROOT
ATOM      1  C   UNL     1       1.537   8.852  19.540  0.00  0.00    +0.000 A 
ATOM      2  C   UNL     1       1.764   9.194  18.209  0.00  0.00    +0.000 A 
ATOM      3  C   UNL     1       2.579   8.371  17.428  0.00  0.00    +0.000 A 
ATOM      4  C   UNL     1       3.106   7.167  17.943  0.00  0.00    +0.000 A 
ATOM      5  C   UNL     1       3.976   6.330  17.040  0.00  0.00    +0.000 C 
ATOM      6  C   UNL     1       2.818   6.800  19.280  0.00  0.00    +0.000 A 
ATOM      7  C   UNL     1       2.108   7.700  20.081  0.00  0.00    +0.000 A 
ENDROOT
BRANCH   6   8
ATOM      8  C   UNL     1       3.323   5.530  19.891  0.00  0.00    +0.000 C 
ATOM      9  O   UNL     1       4.523   5.485  20.164  0.00  0.00    +0.000 OA
ATOM     10  N   UNL     1       2.459   4.448  20.176  0.00  0.00    +0.000 N 
ATOM     11  C   UNL     1       3.007   3.384  21.020  0.00  0.00    +0.000 C 
ATOM     12  C   UNL     1       3.260   2.038  20.334  0.00  0.00    +0.000 C 
ATOM     13  C   UNL     1       3.838   2.115  18.921  0.00  0.00    +0.000 C 
ATOM     14  C   UNL     1       2.815   1.944  17.794  0.00  0.00    +0.000 C 
ATOM     15  C   UNL     1       1.779   3.056  17.631  0.00  0.00    +0.000 C 
ATOM     16  C   UNL     1       0.781   3.137  18.784  0.00  0.00    +0.000 C 
ATOM     17  C   UNL     1       1.063   4.297  19.733  0.00  0.00    +0.000 C 
ENDBRANCH   6   8
BRANCH   1  18
ATOM     18  S   UNL     1       0.408   9.785  20.548  0.00  0.00    +0.000 S 
ATOM     19  O   UNL     1       1.158  10.306  21.669  0.00  0.00    +0.000 OA
ATOM     20  O   UNL     1      -0.768   8.964  20.749  0.00  0.00    +0.000 OA
BRANCH  18  21
ATOM     21  N   UNL     1      -0.075  11.058  19.556  0.00  0.00    +0.000 N 
ATOM     22  H   UNL     1       0.305  11.950  19.873  0.00  0.00    +0.000 HD
BRANCH  21  26
ATOM     23  C   UNL     1      -3.978  11.092  17.971  0.00  0.00    +0.000 A 
ATOM     24  C   UNL     1      -3.630  11.950  19.016  0.00  0.00    +0.000 A 
ATOM     25  C   UNL     1      -2.332  11.952  19.523  0.00  0.00    +0.000 A 
ATOM     26  C   UNL     1      -1.385  11.069  19.012  0.00  0.00    +0.000 A 
ATOM     27  C   UNL     1      -1.740  10.162  18.012  0.00  0.00    +0.000 A 
ATOM     28  C   UNL     1      -3.036  10.190  17.477  0.00  0.00    +0.000 A 
BRANCH  23  30
ATOM     29  C   UNL     1      -6.264  10.746  18.462  0.00  0.00    +0.000 C 
ATOM     30  O   UNL     1      -5.273  11.199  17.547  0.00  0.00    +0.000 OA
ENDBRANCH  23  30
ENDBRANCH  21  26
ENDBRANCH  18  21
ENDBRANCH   1  18
TORSDOF 5
ENDMDL
MODEL 5
REMARK VINA RESULT:      -8.1      4.839      9.216
REMARK  Name = 
REMARK  7 active torsions:
REMARK  status: ('A' for Active; 'I' for Inactive)
REMARK    1  A    between atoms: C_1  and  O_2
REMARK    2  A    between atoms: O_2  and  C_3
REMARK    3  A    between atoms: C_6  and  N_7
REMARK    4  A    between atoms: N_7  and  S_8
REMARK    5  A    between atoms: S_8  and  C_11
REMARK    6  A    between atoms: C_14  and  C_15
REMARK    7  A    between atoms: C_16  and  C_17
REMARK                            x       y       z     vdW  Elec       q    Type
REMARK                         _______ _______ _______ _____ _____    ______ ____
ROOT
ATOM      1  C   UNL     1       1.232   8.679  20.381  0.00  0.00    +0.000 A 
ATOM      2  C   UNL     1       1.217   9.304  19.136  0.00  0.00    +0.000 A 
ATOM      3  C   UNL     1       1.990   8.770  18.102  0.00  0.00    +0.000 A 
ATOM      4  C   UNL     1       2.716   7.573  18.278  0.00  0.00    +0.000 A 
ATOM      5  C   UNL     1       3.527   7.057  17.116  0.00  0.00    +0.000 C 
ATOM      6  C   UNL     1       2.675   6.915  19.532  0.00  0.00    +0.000 A 
ATOM      7  C   UNL     1       2.000   7.533  20.588  0.00  0.00    +0.000 A 
ENDROOT
BRANCH   6   8
ATOM      8  C   UNL     1       3.402   5.632  19.789  0.00  0.00    +0.000 C 
ATOM      9  O   UNL     1       4.627   5.655  19.668  0.00  0.00    +0.000 OA
ATOM     10  N   UNL     1       2.721   4.460  20.189  0.00  0.00    +0.000 N 
ATOM     11  C   UNL     1       3.553   3.360  20.680  0.00  0.00    +0.000 C 
ATOM     12  C   UNL     1       3.632   2.119  19.786  0.00  0.00    +0.000 C 
ATOM     13  C   UNL     1       3.727   2.392  18.284  0.00  0.00    +0.000 C 
ATOM     14  C   UNL     1       2.407   2.260  17.519  0.00  0.00    +0.000 C 
ATOM     15  C   UNL     1       1.326   3.296  17.828  0.00  0.00    +0.000 C 
ATOM     16  C   UNL     1       0.744   3.173  19.234  0.00  0.00    +0.000 C 
ATOM     17  C   UNL     1       1.264   4.244  20.188  0.00  0.00    +0.000 C 
ENDBRANCH   6   8
BRANCH   1  18
ATOM     18  S   UNL     1       0.172   9.232  21.697  0.00  0.00    +0.000 S 
ATOM     19  O   UNL     1       1.022   9.730  22.756  0.00  0.00    +0.000 OA
ATOM     20  O   UNL     1      -0.794   8.181  21.943  0.00  0.00    +0.000 OA
BRANCH  18  21
ATOM     21  N   UNL     1      -0.691  10.511  21.023  0.00  0.00    +0.000 N 
ATOM     22  H   UNL     1      -0.676  10.484  20.004  0.00  0.00    +0.000 HD
BRANCH  21  26
ATOM     23  C   UNL     1      -0.532  14.307  22.845  0.00  0.00    +0.000 A 
ATOM     24  C   UNL     1       0.346  13.979  21.812  0.00  0.00    +0.000 A 
ATOM     25  C   UNL     1       0.276  12.731  21.195  0.00  0.00    +0.000 A 
ATOM     26  C   UNL     1      -0.649  11.790  21.637  0.00  0.00    +0.000 A 
ATOM     27  C   UNL     1      -1.489  12.083  22.712  0.00  0.00    +0.000 A 
ATOM     28  C   UNL     1      -1.443  13.353  23.304  0.00  0.00    +0.000 A 
BRANCH  23  30
ATOM     29  C   UNL     1       0.645  16.354  22.758  0.00  0.00    +0.000 C 
ATOM     30  O   UNL     1      -0.379  15.566  23.353  0.00  0.00    +0.000 OA
ENDBRANCH  23  30
ENDBRANCH  21  26
ENDBRANCH  18  21
ENDBRANCH   1  18
TORSDOF 5
ENDMDL
MODEL 6
REMARK VINA RESULT:      -8.1      4.922      9.322
REMARK  Name = 
REMARK  7 active torsions:
REMARK  status: ('A' for Active; 'I' for Inactive)
REMARK    1  A    between atoms: C_1  and  O_2
REMARK    2  A    between atoms: O_2  and  C_3
REMARK    3  A    between atoms: C_6  and  N_7
REMARK    4  A    between atoms: N_7  and  S_8
REMARK    5  A    between atoms: S_8  and  C_11
REMARK    6  A    between atoms: C_14  and  C_15
REMARK    7  A    between atoms: C_16  and  C_17
REMARK                            x       y       z     vdW  Elec       q    Type
REMARK                         _______ _______ _______ _____ _____    ______ ____
ROOT
ATOM      1  C   UNL     1       1.392   8.715  20.304  0.00  0.00    +0.000 A 
ATOM      2  C   UNL     1       1.355   9.285  19.035  0.00  0.00    +0.000 A 
ATOM      3  C   UNL     1       2.077   8.683  18.001  0.00  0.00    +0.000 A 
ATOM      4  C   UNL     1       2.771   7.472  18.206  0.00  0.00    +0.000 A 
ATOM      5  C   UNL     1       3.527   6.881  17.042  0.00  0.00    +0.000 C 
ATOM      6  C   UNL     1       2.751   6.870  19.488  0.00  0.00    +0.000 A 
ATOM      7  C   UNL     1       2.132   7.554  20.538  0.00  0.00    +0.000 A 
ENDROOT
BRANCH   6   8
ATOM      8  C   UNL     1       3.447   5.577  19.778  0.00  0.00    +0.000 C 
ATOM      9  O   UNL     1       4.674   5.571  19.675  0.00  0.00    +0.000 OA
ATOM     10  N   UNL     1       2.735   4.426  20.188  0.00  0.00    +0.000 N 
ATOM     11  C   UNL     1       3.536   3.317  20.710  0.00  0.00    +0.000 C 
ATOM     12  C   UNL     1       3.601   2.060  19.838  0.00  0.00    +0.000 C 
ATOM     13  C   UNL     1       3.724   2.305  18.333  0.00  0.00    +0.000 C 
ATOM     14  C   UNL     1       2.412   2.188  17.551  0.00  0.00    +0.000 C 
ATOM     15  C   UNL     1       1.350   3.252  17.826  0.00  0.00    +0.000 C 
ATOM     16  C   UNL     1       0.745   3.165  19.225  0.00  0.00    +0.000 C 
ATOM     17  C   UNL     1       1.274   4.242  20.168  0.00  0.00    +0.000 C 
ENDBRANCH   6   8
BRANCH   1  18
ATOM     18  S   UNL     1       0.395   9.357  21.628  0.00  0.00    +0.000 S 
ATOM     19  O   UNL     1       1.223   9.397  22.814  0.00  0.00    +0.000 OA
ATOM     20  O   UNL     1      -0.859   8.631  21.614  0.00  0.00    +0.000 OA
BRANCH  18  21
ATOM     21  N   UNL     1       0.030  10.929  21.146  0.00  0.00    +0.000 N 
ATOM     22  H   UNL     1       0.859  11.522  21.128  0.00  0.00    +0.000 HD
BRANCH  21  26
ATOM     23  C   UNL     1      -3.577  12.735  22.361  0.00  0.00    +0.000 A 
ATOM     24  C   UNL     1      -3.198  12.743  21.018  0.00  0.00    +0.000 A 
ATOM     25  C   UNL     1      -2.015  12.124  20.615  0.00  0.00    +0.000 A 
ATOM     26  C   UNL     1      -1.186  11.528  21.562  0.00  0.00    +0.000 A 
ATOM     27  C   UNL     1      -1.524  11.572  22.915  0.00  0.00    +0.000 A 
ATOM     28  C   UNL     1      -2.733  12.160  23.312  0.00  0.00    +0.000 A 
BRANCH  23  30
ATOM     29  C   UNL     1      -4.763  14.256  23.726  0.00  0.00    +0.000 C 
ATOM     30  O   UNL     1      -4.766  13.354  22.626  0.00  0.00    +0.000 OA
ENDBRANCH  23  30
ENDBRANCH  21  26
ENDBRANCH  18  21
ENDBRANCH   1  18
TORSDOF 5
ENDMDL
MODEL 7
REMARK VINA RESULT:      -8.0      4.338      9.024
REMARK  Name = 
REMARK  7 active torsions:
REMARK  status: ('A' for Active; 'I' for Inactive)
REMARK    1  A    between atoms: C_1  and  O_2
REMARK    2  A    between atoms: O_2  and  C_3
REMARK    3  A    between atoms: C_6  and  N_7
REMARK    4  A    between atoms: N_7  and  S_8
REMARK    5  A    between atoms: S_8  and  C_11
REMARK    6  A    between atoms: C_14  and  C_15
REMARK    7  A    between atoms: C_16  and  C_17
REMARK                            x       y       z     vdW  Elec       q    Type
REMARK                         _______ _______ _______ _____ _____    ______ ____
ROOT
ATOM      1  C   UNL     1       1.752   8.223  19.171  0.00  0.00    +0.000 A 
ATOM      2  C   UNL     1       1.643   7.662  20.440  0.00  0.00    +0.000 A 
ATOM      3  C   UNL     1       2.182   6.394  20.668  0.00  0.00    +0.000 A 
ATOM      4  C   UNL     1       2.897   5.714  19.660  0.00  0.00    +0.000 A 
ATOM      5  C   UNL     1       3.451   4.348  19.980  0.00  0.00    +0.000 C 
ATOM      6  C   UNL     1       3.053   6.322  18.390  0.00  0.00    +0.000 A 
ATOM      7  C   UNL     1       2.398   7.532  18.145  0.00  0.00    +0.000 A 
ENDROOT
BRANCH   6   8
ATOM      8  C   UNL     1       3.815   5.673  17.277  0.00  0.00    +0.000 C 
ATOM      9  O   UNL     1       3.374   4.604  16.853  0.00  0.00    +0.000 OA
ATOM     10  N   UNL     1       4.964   6.275  16.714  0.00  0.00    +0.000 N 
ATOM     11  C   UNL     1       5.453   5.695  15.461  0.00  0.00    +0.000 C 
ATOM     12  C   UNL     1       6.788   4.950  15.536  0.00  0.00    +0.000 C 
ATOM     13  C   UNL     1       6.994   4.086  16.781  0.00  0.00    +0.000 C 
ATOM     14  C   UNL     1       7.847   4.728  17.879  0.00  0.00    +0.000 C 
ATOM     15  C   UNL     1       7.252   5.942  18.591  0.00  0.00    +0.000 C 
ATOM     16  C   UNL     1       7.129   7.175  17.700  0.00  0.00    +0.000 C 
ATOM     17  C   UNL     1       5.698   7.436  17.243  0.00  0.00    +0.000 C 
ENDBRANCH   6   8
BRANCH   1  18
ATOM     18  S   UNL     1       1.204   9.884  18.851  0.00  0.00    +0.000 S 
ATOM     19  O   UNL     1      -0.211   9.823  18.555  0.00  0.00    +0.000 OA
ATOM     20  O   UNL     1       2.140  10.474  17.917  0.00  0.00    +0.000 OA
BRANCH  18  21
ATOM     21  N   UNL     1       1.436  10.685  20.314  0.00  0.00    +0.000 N 
ATOM     22  H   UNL     1       2.283  10.370  20.788  0.00  0.00    +0.000 HD
BRANCH  21  26
ATOM     23  C   UNL     1      -1.889  11.596  22.735  0.00  0.00    +0.000 A 
ATOM     24  C   UNL     1      -1.052  10.527  23.054  0.00  0.00    +0.000 A 
ATOM     25  C   UNL     1       0.061  10.241  22.265  0.00  0.00    +0.000 A 
ATOM     26  C   UNL     1       0.319  11.003  21.128  0.00  0.00    +0.000 A 
ATOM     27  C   UNL     1      -0.548  12.034  20.763  0.00  0.00    +0.000 A 
ATOM     28  C   UNL     1      -1.644  12.343  21.582  0.00  0.00    +0.000 A 
BRANCH  23  30
ATOM     29  C   UNL     1      -3.884  12.770  23.208  0.00  0.00    +0.000 C 
ATOM     30  O   UNL     1      -2.932  11.787  23.597  0.00  0.00    +0.000 OA
ENDBRANCH  23  30
ENDBRANCH  21  26
ENDBRANCH  18  21
ENDBRANCH   1  18
TORSDOF 5
ENDMDL
MODEL 8
REMARK VINA RESULT:      -8.0      4.257      8.468
REMARK  Name = 
REMARK  7 active torsions:
REMARK  status: ('A' for Active; 'I' for Inactive)
REMARK    1  A    between atoms: C_1  and  O_2
REMARK    2  A    between atoms: O_2  and  C_3
REMARK    3  A    between atoms: C_6  and  N_7
REMARK    4  A    between atoms: N_7  and  S_8
REMARK    5  A    between atoms: S_8  and  C_11
REMARK    6  A    between atoms: C_14  and  C_15
REMARK    7  A    between atoms: C_16  and  C_17
REMARK                            x       y       z     vdW  Elec       q    Type
REMARK                         _______ _______ _______ _____ _____    ______ ____
ROOT
ATOM      1  C   UNL     1       1.792   8.349  19.029  0.00  0.00    +0.000 A 
ATOM      2  C   UNL     1       1.677   7.821  20.313  0.00  0.00    +0.000 A 
ATOM      3  C   UNL     1       2.215   6.558  20.575  0.00  0.00    +0.000 A 
ATOM      4  C   UNL     1       2.935   5.853  19.588  0.00  0.00    +0.000 A 
ATOM      5  C   UNL     1       3.487   4.496  19.945  0.00  0.00    +0.000 C 
ATOM      6  C   UNL     1       3.097   6.429  18.304  0.00  0.00    +0.000 A 
ATOM      7  C   UNL     1       2.443   7.632  18.024  0.00  0.00    +0.000 A 
ENDROOT
BRANCH   6   8
ATOM      8  C   UNL     1       3.864   5.751  17.211  0.00  0.00    +0.000 C 
ATOM      9  O   UNL     1       3.409   4.686  16.792  0.00  0.00    +0.000 OA
ATOM     10  N   UNL     1       5.034   6.323  16.660  0.00  0.00    +0.000 N 
ATOM     11  C   UNL     1       5.532   5.719  15.423  0.00  0.00    +0.000 C 
ATOM     12  C   UNL     1       6.851   4.948  15.529  0.00  0.00    +0.000 C 
ATOM     13  C   UNL     1       7.018   4.095  16.787  0.00  0.00    +0.000 C 
ATOM     14  C   UNL     1       7.866   4.732  17.892  0.00  0.00    +0.000 C 
ATOM     15  C   UNL     1       7.283   5.967  18.580  0.00  0.00    +0.000 C 
ATOM     16  C   UNL     1       7.200   7.192  17.673  0.00  0.00    +0.000 C 
ATOM     17  C   UNL     1       5.782   7.476  17.189  0.00  0.00    +0.000 C 
ENDBRANCH   6   8
BRANCH   1  18
ATOM     18  S   UNL     1       1.246  10.001  18.664  0.00  0.00    +0.000 S 
ATOM     19  O   UNL     1       2.322  10.668  17.965  0.00  0.00    +0.000 OA
ATOM     20  O   UNL     1       0.690  10.550  19.884  0.00  0.00    +0.000 OA
BRANCH  18  21
ATOM     21  N   UNL     1      -0.054   9.783  17.615  0.00  0.00    +0.000 N 
ATOM     22  H   UNL     1       0.244   9.768  16.640  0.00  0.00    +0.000 HD
BRANCH  21  26
ATOM     23  C   UNL     1      -3.766  11.600  18.435  0.00  0.00    +0.000 A 
ATOM     24  C   UNL     1      -3.702  10.430  17.678  0.00  0.00    +0.000 A 
ATOM     25  C   UNL     1      -2.474   9.818  17.428  0.00  0.00    +0.000 A 
ATOM     26  C   UNL     1      -1.300  10.397  17.902  0.00  0.00    +0.000 A 
ATOM     27  C   UNL     1      -1.347  11.602  18.604  0.00  0.00    +0.000 A 
ATOM     28  C   UNL     1      -2.586  12.194  18.888  0.00  0.00    +0.000 A 
BRANCH  23  30
ATOM     29  C   UNL     1      -5.924  11.944  17.536  0.00  0.00    +0.000 C 
ATOM     30  O   UNL     1      -5.026  12.091  18.630  0.00  0.00    +0.000 OA
ENDBRANCH  23  30
ENDBRANCH  21  26
ENDBRANCH  18  21
ENDBRANCH   1  18
TORSDOF 5
ENDMDL
MODEL 9
REMARK VINA RESULT:      -7.9      4.480      8.524
REMARK  Name = 
REMARK  7 active torsions:
REMARK  status: ('A' for Active; 'I' for Inactive)
REMARK    1  A    between atoms: C_1  and  O_2
REMARK    2  A    between atoms: O_2  and  C_3
REMARK    3  A    between atoms: C_6  and  N_7
REMARK    4  A    between atoms: N_7  and  S_8
REMARK    5  A    between atoms: S_8  and  C_11
REMARK    6  A    between atoms: C_14  and  C_15
REMARK    7  A    between atoms: C_16  and  C_17
REMARK                            x       y       z     vdW  Elec       q    Type
REMARK                         _______ _______ _______ _____ _____    ______ ____
ROOT
ATOM      1  C   UNL     1       1.368   8.748  19.855  0.00  0.00    +0.000 A 
ATOM      2  C   UNL     1       1.523   9.225  18.556  0.00  0.00    +0.000 A 
ATOM      3  C   UNL     1       2.366   8.538  17.679  0.00  0.00    +0.000 A 
ATOM      4  C   UNL     1       2.994   7.335  18.064  0.00  0.00    +0.000 A 
ATOM      5  C   UNL     1       3.889   6.649  17.063  0.00  0.00    +0.000 C 
ATOM      6  C   UNL     1       2.781   6.828  19.369  0.00  0.00    +0.000 A 
ATOM      7  C   UNL     1       2.038   7.596  20.271  0.00  0.00    +0.000 A 
ENDROOT
BRANCH   6   8
ATOM      8  C   UNL     1       3.396   5.549  19.844  0.00  0.00    +0.000 C 
ATOM      9  O   UNL     1       4.625   5.518  19.916  0.00  0.00    +0.000 OA
ATOM     10  N   UNL     1       2.605   4.442  20.228  0.00  0.00    +0.000 N 
ATOM     11  C   UNL     1       3.298   3.362  20.934  0.00  0.00    +0.000 C 
ATOM     12  C   UNL     1       3.453   2.044  20.170  0.00  0.00    +0.000 C 
ATOM     13  C   UNL     1       3.791   2.177  18.684  0.00  0.00    +0.000 C 
ATOM     14  C   UNL     1       2.600   2.024  17.734  0.00  0.00    +0.000 C 
ATOM     15  C   UNL     1       1.536   3.120  17.782  0.00  0.00    +0.000 C 
ATOM     16  C   UNL     1       0.739   3.144  19.084  0.00  0.00    +0.000 C 
ATOM     17  C   UNL     1       1.158   4.278  20.015  0.00  0.00    +0.000 C 
ENDBRANCH   6   8
BRANCH   1  18
ATOM     18  S   UNL     1       0.212   9.499  20.978  0.00  0.00    +0.000 S 
ATOM     19  O   UNL     1       0.937  10.485  21.749  0.00  0.00    +0.000 OA
ATOM     20  O   UNL     1      -0.518   8.429  21.625  0.00  0.00    +0.000 OA
BRANCH  18  21
ATOM     21  N   UNL     1      -0.894  10.277  19.972  0.00  0.00    +0.000 N 
ATOM     22  H   UNL     1      -1.029   9.772  19.096  0.00  0.00    +0.000 HD
BRANCH  21  26
ATOM     23  C   UNL     1      -0.994  14.485  19.801  0.00  0.00    +0.000 A 
ATOM     24  C   UNL     1      -1.812  13.792  20.695  0.00  0.00    +0.000 A 
ATOM     25  C   UNL     1      -1.760  12.401  20.766  0.00  0.00    +0.000 A 
ATOM     26  C   UNL     1      -0.916  11.694  19.914  0.00  0.00    +0.000 A 
ATOM     27  C   UNL     1      -0.142  12.372  18.972  0.00  0.00    +0.000 A 
ATOM     28  C   UNL     1      -0.167  13.774  18.931  0.00  0.00    +0.000 A 
BRANCH  23  30
ATOM     29  C   UNL     1      -0.133  16.580  19.129  0.00  0.00    +0.000 C 
ATOM     30  O   UNL     1      -1.121  15.845  19.842  0.00  0.00    +0.000 OA
ENDBRANCH  23  30
ENDBRANCH  21  26
ENDBRANCH  18  21
ENDBRANCH   1  18
TORSDOF 5
ENDMDL
