MODEL 1
REMARK VINA RESULT:      -8.8      0.000      0.000
REMARK  Name = 
REMARK  5 active torsions:
REMARK  status: ('A' for Active; 'I' for Inactive)
REMARK    1  A    between atoms: C_1  and  N_2
REMARK    2  A    between atoms: N_9  and  C_10
REMARK    3  A    between atoms: C_10  and  C_11
REMARK    4  A    between atoms: C_11  and  N_12
REMARK    5  A    between atoms: N_12  and  C_13
REMARK                            x       y       z     vdW  Elec       q    Type
REMARK                         _______ _______ _______ _____ _____    ______ ____
ROOT
ATOM      1  C   UNL     1       3.892  15.189  17.760  0.00  0.00    +0.000 C 
ATOM      2  N   UNL     1       2.677  14.403  17.955  0.00  0.00    +0.000 NA
ATOM      3  C   UNL     1       1.663  15.165  18.727  0.00  0.00    +0.000 C 
ATOM      4  C   UNL     1       0.354  14.359  18.952  0.00  0.00    +0.000 C 
ATOM      5  N   UNL     1       0.682  13.078  19.558  0.00  0.00    +0.000 N 
ATOM      6  C   UNL     1      -0.118  12.489  20.491  0.00  0.00    +0.000 A 
ATOM      7  N   UNL     1       0.298  11.325  20.970  0.00  0.00    +0.000 NA
ATOM      8  C   UNL     1      -0.345  10.828  21.996  0.00  0.00    +0.000 A 
ATOM      9  N   UNL     1       0.173   9.701  22.623  0.00  0.00    +0.000 N 
ATOM     10  N   UNL     1      -1.435  11.362  22.506  0.00  0.00    +0.000 NA
ATOM     11  C   UNL     1      -1.857  12.498  21.936  0.00  0.00    +0.000 A 
ATOM     12  N   UNL     1      -3.018  13.065  22.407  0.00  0.00    +0.000 N 
ATOM     13  C   UNL     1      -3.556  14.284  21.824  0.00  0.00    +0.000 C 
ATOM     14  C   UNL     1      -3.687  15.361  22.903  0.00  0.00    +0.000 C 
ATOM     15  C   UNL     1      -4.440  14.847  24.132  0.00  0.00    +0.000 C 
ATOM     16  C   UNL     1      -3.849  13.532  24.642  0.00  0.00    +0.000 C 
ATOM     17  C   UNL     1      -3.736  12.487  23.529  0.00  0.00    +0.000 C 
ATOM     18  N   UNL     1      -1.206  13.093  20.948  0.00  0.00    +0.000 NA
ATOM     19  C   UNL     1       1.714  12.287  18.889  0.00  0.00    +0.000 C 
ATOM     20  C   UNL     1       2.980  13.144  18.674  0.00  0.00    +0.000 C 
ATOM     21  H   UNL     1      -0.551   9.143  23.048  0.00  0.00    +0.000 HD
ENDROOT
BRANCH   9  22
ATOM     22  C   UNL     1       1.381   9.078  22.090  0.00  0.00    +0.000 C 
BRANCH  22  23
ATOM     23  C   UNL     1       1.047   7.918  21.126  0.00  0.00    +0.000 C 
BRANCH  23  24
ATOM     24  N   UNL     1       2.198   7.553  20.272  0.00  0.00    +0.000 N 
ATOM     25  H   UNL     1       3.063   7.898  20.663  0.00  0.00    +0.000 HD
BRANCH  24  26
ATOM     26  C   UNL     1       2.300   6.176  19.932  0.00  0.00    +0.000 A 
ATOM     27  C   UNL     1       1.575   5.221  20.638  0.00  0.00    +0.000 A 
ATOM     28  C   UNL     1       1.641   3.901  20.270  0.00  0.00    +0.000 A 
ATOM     29  N   UNL     1       2.340   3.452  19.206  0.00  0.00    +0.000 NA
ATOM     30  C   UNL     1       3.021   4.349  18.483  0.00  0.00    +0.000 A 
ATOM     31  C   UNL     1       3.750   3.883  17.391  0.00  0.00    +0.000 A 
ATOM     32  C   UNL     1       4.506   4.747  16.606  0.00  0.00    +0.000 A 
ATOM     33 CL   UNL     1       5.377   4.146  15.247  0.00  0.00    +0.000 Cl
ATOM     34  C   UNL     1       4.586   6.092  16.924  0.00  0.00    +0.000 A 
ATOM     35  C   UNL     1       3.882   6.570  18.031  0.00  0.00    +0.000 A 
ATOM     36  C   UNL     1       3.058   5.730  18.804  0.00  0.00    +0.000 A 
ENDBRANCH  24  26
ENDBRANCH  23  24
ENDBRANCH  22  23
ENDBRANCH   9  22
TORSDOF 4
ENDMDL
MODEL 2
REMARK VINA RESULT:      -8.4      1.317      4.913
REMARK  Name = 
REMARK  5 active torsions:
REMARK  status: ('A' for Active; 'I' for Inactive)
REMARK    1  A    between atoms: C_1  and  N_2
REMARK    2  A    between atoms: N_9  and  C_10
REMARK    3  A    between atoms: C_10  and  C_11
REMARK    4  A    between atoms: C_11  and  N_12
REMARK    5  A    between atoms: N_12  and  C_13
REMARK                            x       y       z     vdW  Elec       q    Type
REMARK                         _______ _______ _______ _____ _____    ______ ____
ROOT
ATOM      1  C   UNL     1      -5.520  13.796  23.150  0.00  0.00    +0.000 C 
ATOM      2  N   UNL     1      -4.067  13.754  23.289  0.00  0.00    +0.000 NA
ATOM      3  C   UNL     1      -3.415  14.768  22.421  0.00  0.00    +0.000 C 
ATOM      4  C   UNL     1      -1.867  14.753  22.545  0.00  0.00    +0.000 C 
ATOM      5  N   UNL     1      -1.383  13.404  22.301  0.00  0.00    +0.000 N 
ATOM      6  C   UNL     1      -0.214  13.158  21.644  0.00  0.00    +0.000 A 
ATOM      7  N   UNL     1       0.112  11.883  21.482  0.00  0.00    +0.000 NA
ATOM      8  C   UNL     1       1.122  11.611  20.698  0.00  0.00    +0.000 A 
ATOM      9  N   UNL     1       1.376  10.284  20.374  0.00  0.00    +0.000 N 
ATOM     10  N   UNL     1       1.892  12.529  20.150  0.00  0.00    +0.000 NA
ATOM     11  C   UNL     1       1.566  13.802  20.409  0.00  0.00    +0.000 A 
ATOM     12  N   UNL     1       2.371  14.792  19.895  0.00  0.00    +0.000 N 
ATOM     13  C   UNL     1       2.100  16.198  20.152  0.00  0.00    +0.000 C 
ATOM     14  C   UNL     1       1.919  16.942  18.827  0.00  0.00    +0.000 C 
ATOM     15  C   UNL     1       3.077  16.674  17.862  0.00  0.00    +0.000 C 
ATOM     16  C   UNL     1       3.334  15.176  17.698  0.00  0.00    +0.000 C 
ATOM     17  C   UNL     1       3.507  14.475  19.048  0.00  0.00    +0.000 C 
ATOM     18  N   UNL     1       0.509  14.142  21.129  0.00  0.00    +0.000 NA
ATOM     19  C   UNL     1      -2.012  12.337  23.078  0.00  0.00    +0.000 C 
ATOM     20  C   UNL     1      -3.547  12.414  22.933  0.00  0.00    +0.000 C 
ATOM     21  H   UNL     1       2.354  10.124  20.187  0.00  0.00    +0.000 HD
ENDROOT
BRANCH   9  22
ATOM     22  C   UNL     1       0.545   9.235  20.958  0.00  0.00    +0.000 C 
BRANCH  22  23
ATOM     23  C   UNL     1       1.283   7.878  20.998  0.00  0.00    +0.000 C 
BRANCH  23  24
ATOM     24  N   UNL     1       2.099   7.651  19.787  0.00  0.00    +0.000 N 
ATOM     25  H   UNL     1       2.871   8.301  19.742  0.00  0.00    +0.000 HD
BRANCH  24  26
ATOM     26  C   UNL     1       2.542   6.314  19.584  0.00  0.00    +0.000 A 
ATOM     27  C   UNL     1       2.083   5.288  20.405  0.00  0.00    +0.000 A 
ATOM     28  C   UNL     1       2.476   3.995  20.169  0.00  0.00    +0.000 A 
ATOM     29  N   UNL     1       3.258   3.625  19.134  0.00  0.00    +0.000 NA
ATOM     30  C   UNL     1       3.689   4.582  18.303  0.00  0.00    +0.000 A 
ATOM     31  C   UNL     1       4.505   4.199  17.240  0.00  0.00    +0.000 A 
ATOM     32  C   UNL     1       5.015   5.137  16.349  0.00  0.00    +0.000 A 
ATOM     33 CL   UNL     1       6.001   4.632  15.029  0.00  0.00    +0.000 Cl
ATOM     34  C   UNL     1       4.757   6.485  16.527  0.00  0.00    +0.000 A 
ATOM     35  C   UNL     1       3.963   6.887  17.603  0.00  0.00    +0.000 A 
ATOM     36  C   UNL     1       3.380   5.954  18.482  0.00  0.00    +0.000 A 
ENDBRANCH  24  26
ENDBRANCH  23  24
ENDBRANCH  22  23
ENDBRANCH   9  22
TORSDOF 4
ENDMDL
MODEL 3
REMARK VINA RESULT:      -8.3      7.067      9.719
REMARK  Name = 
REMARK  5 active torsions:
REMARK  status: ('A' for Active; 'I' for Inactive)
REMARK    1  A    between atoms: C_1  and  N_2
REMARK    2  A    between atoms: N_9  and  C_10
REMARK    3  A    between atoms: C_10  and  C_11
REMARK    4  A    between atoms: C_11  and  N_12
REMARK    5  A    between atoms: N_12  and  C_13
REMARK                            x       y       z     vdW  Elec       q    Type
REMARK                         _______ _______ _______ _____ _____    ______ ____
ROOT
ATOM      1  C   UNL     1       6.366  12.806  25.500  0.00  0.00    +0.000 C 
ATOM      2  N   UNL     1       7.551  12.593  24.674  0.00  0.00    +0.000 NA
ATOM      3  C   UNL     1       7.963  13.847  23.993  0.00  0.00    +0.000 C 
ATOM      4  C   UNL     1       9.223  13.660  23.106  0.00  0.00    +0.000 C 
ATOM      5  N   UNL     1       8.994  12.562  22.180  0.00  0.00    +0.000 N 
ATOM      6  C   UNL     1       9.471  12.576  20.903  0.00  0.00    +0.000 A 
ATOM      7  N   UNL     1       9.188  11.517  20.158  0.00  0.00    +0.000 NA
ATOM      8  C   UNL     1       9.466  11.581  18.882  0.00  0.00    +0.000 A 
ATOM      9  N   UNL     1       9.024  10.559  18.051  0.00  0.00    +0.000 N 
ATOM     10  N   UNL     1      10.103  12.589  18.322  0.00  0.00    +0.000 NA
ATOM     11  C   UNL     1      10.436  13.601  19.133  0.00  0.00    +0.000 A 
ATOM     12  N   UNL     1      11.143  14.653  18.599  0.00  0.00    +0.000 N 
ATOM     13  C   UNL     1      11.564  15.776  19.420  0.00  0.00    +0.000 C 
ATOM     14  C   UNL     1      10.996  17.078  18.849  0.00  0.00    +0.000 C 
ATOM     15  C   UNL     1      11.296  17.222  17.355  0.00  0.00    +0.000 C 
ATOM     16  C   UNL     1      10.879  15.973  16.577  0.00  0.00    +0.000 C 
ATOM     17  C   UNL     1      11.470  14.698  17.186  0.00  0.00    +0.000 C 
ATOM     18  N   UNL     1      10.111  13.630  20.417  0.00  0.00    +0.000 NA
ATOM     19  C   UNL     1       8.533  11.303  22.764  0.00  0.00    +0.000 C 
ATOM     20  C   UNL     1       7.294  11.555  23.649  0.00  0.00    +0.000 C 
ATOM     21  H   UNL     1       9.629  10.437  17.254  0.00  0.00    +0.000 HD
ENDROOT
BRANCH   9  22
ATOM     22  C   UNL     1       8.313   9.424  18.632  0.00  0.00    +0.000 C 
BRANCH  22  23
ATOM     23  C   UNL     1       8.096   8.296  17.598  0.00  0.00    +0.000 C 
BRANCH  23  24
ATOM     24  N   UNL     1       6.664   7.989  17.399  0.00  0.00    +0.000 N 
ATOM     25  H   UNL     1       6.231   8.661  16.782  0.00  0.00    +0.000 HD
BRANCH  24  26
ATOM     26  C   UNL     1       6.370   6.657  16.994  0.00  0.00    +0.000 A 
ATOM     27  C   UNL     1       7.346   5.876  16.382  0.00  0.00    +0.000 A 
ATOM     28  C   UNL     1       7.069   4.576  16.042  0.00  0.00    +0.000 A 
ATOM     29  N   UNL     1       5.897   3.963  16.312  0.00  0.00    +0.000 NA
ATOM     30  C   UNL     1       4.948   4.675  16.932  0.00  0.00    +0.000 A 
ATOM     31  C   UNL     1       3.735   4.043  17.202  0.00  0.00    +0.000 A 
ATOM     32  C   UNL     1       2.690   4.722  17.817  0.00  0.00    +0.000 A 
ATOM     33 CL   UNL     1       1.211   3.908  18.161  0.00  0.00    +0.000 Cl
ATOM     34  C   UNL     1       2.818   6.063  18.138  0.00  0.00    +0.000 A 
ATOM     35  C   UNL     1       4.017   6.718  17.850  0.00  0.00    +0.000 A 
ATOM     36  C   UNL     1       5.115   6.038  17.287  0.00  0.00    +0.000 A 
ENDBRANCH  24  26
ENDBRANCH  23  24
ENDBRANCH  22  23
ENDBRANCH   9  22
TORSDOF 4
ENDMDL
MODEL 4
REMARK VINA RESULT:      -8.3      2.972      3.594
REMARK  Name = 
REMARK  5 active torsions:
REMARK  status: ('A' for Active; 'I' for Inactive)
REMARK    1  A    between atoms: C_1  and  N_2
REMARK    2  A    between atoms: N_9  and  C_10
REMARK    3  A    between atoms: C_10  and  C_11
REMARK    4  A    between atoms: C_11  and  N_12
REMARK    5  A    between atoms: N_12  and  C_13
REMARK                            x       y       z     vdW  Elec       q    Type
REMARK                         _______ _______ _______ _____ _____    ______ ____
ROOT
ATOM      1  C   UNL     1      -3.849  10.208  13.855  0.00  0.00    +0.000 C 
ATOM      2  N   UNL     1      -3.884  10.190  15.315  0.00  0.00    +0.000 NA
ATOM      3  C   UNL     1      -4.023  11.563  15.865  0.00  0.00    +0.000 C 
ATOM      4  C   UNL     1      -4.066  11.583  17.417  0.00  0.00    +0.000 C 
ATOM      5  N   UNL     1      -2.903  10.880  17.935  0.00  0.00    +0.000 N 
ATOM      6  C   UNL     1      -2.253  11.282  19.064  0.00  0.00    +0.000 A 
ATOM      7  N   UNL     1      -1.203  10.559  19.426  0.00  0.00    +0.000 NA
ATOM      8  C   UNL     1      -0.450  11.025  20.389  0.00  0.00    +0.000 A 
ATOM      9  N   UNL     1       0.748  10.378  20.671  0.00  0.00    +0.000 N 
ATOM     10  N   UNL     1      -0.734  12.108  21.082  0.00  0.00    +0.000 NA
ATOM     11  C   UNL     1      -1.849  12.760  20.727  0.00  0.00    +0.000 A 
ATOM     12  N   UNL     1      -2.209  13.869  21.455  0.00  0.00    +0.000 N 
ATOM     13  C   UNL     1      -3.418  14.617  21.148  0.00  0.00    +0.000 C 
ATOM     14  C   UNL     1      -3.064  16.075  20.847  0.00  0.00    +0.000 C 
ATOM     15  C   UNL     1      -2.189  16.686  21.944  0.00  0.00    +0.000 C 
ATOM     16  C   UNL     1      -0.975  15.807  22.246  0.00  0.00    +0.000 C 
ATOM     17  C   UNL     1      -1.378  14.359  22.540  0.00  0.00    +0.000 C 
ATOM     18  N   UNL     1      -2.609  12.384  19.710  0.00  0.00    +0.000 NA
ATOM     19  C   UNL     1      -2.662   9.540  17.403  0.00  0.00    +0.000 C 
ATOM     20  C   UNL     1      -2.650   9.578  15.860  0.00  0.00    +0.000 C 
ATOM     21  H   UNL     1       1.011  10.481  21.638  0.00  0.00    +0.000 HD
ENDROOT
BRANCH   9  22
ATOM     22  C   UNL     1       1.102   9.174  19.923  0.00  0.00    +0.000 C 
BRANCH  22  23
ATOM     23  C   UNL     1       1.266   7.952  20.854  0.00  0.00    +0.000 C 
BRANCH  23  24
ATOM     24  N   UNL     1       2.502   7.193  20.567  0.00  0.00    +0.000 N 
ATOM     25  H   UNL     1       3.091   7.135  21.385  0.00  0.00    +0.000 HD
BRANCH  24  26
ATOM     26  C   UNL     1       2.315   5.912  19.978  0.00  0.00    +0.000 A 
ATOM     27  C   UNL     1       1.304   5.069  20.432  0.00  0.00    +0.000 A 
ATOM     28  C   UNL     1       1.099   3.857  19.823  0.00  0.00    +0.000 A 
ATOM     29  N   UNL     1       1.793   3.429  18.748  0.00  0.00    +0.000 NA
ATOM     30  C   UNL     1       2.749   4.231  18.263  0.00  0.00    +0.000 A 
ATOM     31  C   UNL     1       3.472   3.784  17.158  0.00  0.00    +0.000 A 
ATOM     32  C   UNL     1       4.500   4.546  16.612  0.00  0.00    +0.000 A 
ATOM     33 CL   UNL     1       5.359   3.979  15.231  0.00  0.00    +0.000 Cl
ATOM     34  C   UNL     1       4.857   5.753  17.186  0.00  0.00    +0.000 A 
ATOM     35  C   UNL     1       4.160   6.203  18.310  0.00  0.00    +0.000 A 
ATOM     36  C   UNL     1       3.074   5.483  18.844  0.00  0.00    +0.000 A 
ENDBRANCH  24  26
ENDBRANCH  23  24
ENDBRANCH  22  23
ENDBRANCH   9  22
TORSDOF 4
ENDMDL
MODEL 5
REMARK VINA RESULT:      -8.2      1.195      1.860
REMARK  Name = 
REMARK  5 active torsions:
REMARK  status: ('A' for Active; 'I' for Inactive)
REMARK    1  A    between atoms: C_1  and  N_2
REMARK    2  A    between atoms: N_9  and  C_10
REMARK    3  A    between atoms: C_10  and  C_11
REMARK    4  A    between atoms: C_11  and  N_12
REMARK    5  A    between atoms: N_12  and  C_13
REMARK                            x       y       z     vdW  Elec       q    Type
REMARK                         _______ _______ _______ _____ _____    ______ ____
ROOT
ATOM      1  C   UNL     1       3.769  15.179  17.785  0.00  0.00    +0.000 C 
ATOM      2  N   UNL     1       2.557  14.392  17.998  0.00  0.00    +0.000 NA
ATOM      3  C   UNL     1       1.538  15.169  18.747  0.00  0.00    +0.000 C 
ATOM      4  C   UNL     1       0.233  14.364  18.991  0.00  0.00    +0.000 C 
ATOM      5  N   UNL     1       0.566  13.101  19.632  0.00  0.00    +0.000 N 
ATOM      6  C   UNL     1      -0.234  12.533  20.578  0.00  0.00    +0.000 A 
ATOM      7  N   UNL     1       0.186  11.384  21.089  0.00  0.00    +0.000 NA
ATOM      8  C   UNL     1      -0.456  10.911  22.125  0.00  0.00    +0.000 A 
ATOM      9  N   UNL     1       0.065   9.803  22.784  0.00  0.00    +0.000 N 
ATOM     10  N   UNL     1      -1.550  11.454  22.619  0.00  0.00    +0.000 NA
ATOM     11  C   UNL     1      -1.977  12.572  22.018  0.00  0.00    +0.000 A 
ATOM     12  N   UNL     1      -3.141  13.146  22.472  0.00  0.00    +0.000 N 
ATOM     13  C   UNL     1      -3.684  14.346  21.855  0.00  0.00    +0.000 C 
ATOM     14  C   UNL     1      -3.822  15.451  22.905  0.00  0.00    +0.000 C 
ATOM     15  C   UNL     1      -4.576  14.966  24.146  0.00  0.00    +0.000 C 
ATOM     16  C   UNL     1      -3.979  13.668  24.692  0.00  0.00    +0.000 C 
ATOM     17  C   UNL     1      -3.859  12.594  23.607  0.00  0.00    +0.000 C 
ATOM     18  N   UNL     1      -1.326  13.143  21.016  0.00  0.00    +0.000 NA
ATOM     19  C   UNL     1       1.602  12.297  18.986  0.00  0.00    +0.000 C 
ATOM     20  C   UNL     1       2.865  13.154  18.751  0.00  0.00    +0.000 C 
ATOM     21  H   UNL     1      -0.658   9.254  23.222  0.00  0.00    +0.000 HD
ENDROOT
BRANCH   9  22
ATOM     22  C   UNL     1       1.277   9.172  22.270  0.00  0.00    +0.000 C 
BRANCH  22  23
ATOM     23  C   UNL     1       0.999   8.368  20.980  0.00  0.00    +0.000 C 
BRANCH  23  24
ATOM     24  N   UNL     1       1.644   7.038  21.002  0.00  0.00    +0.000 N 
ATOM     25  H   UNL     1       1.005   6.330  21.333  0.00  0.00    +0.000 HD
BRANCH  24  26
ATOM     26  C   UNL     1       2.270   6.637  19.789  0.00  0.00    +0.000 A 
ATOM     27  C   UNL     1       2.659   7.588  18.850  0.00  0.00    +0.000 A 
ATOM     28  C   UNL     1       3.307   7.194  17.706  0.00  0.00    +0.000 A 
ATOM     29  N   UNL     1       3.654   5.918  17.440  0.00  0.00    +0.000 NA
ATOM     30  C   UNL     1       3.327   4.982  18.340  0.00  0.00    +0.000 A 
ATOM     31  C   UNL     1       3.677   3.662  18.060  0.00  0.00    +0.000 A 
ATOM     32  C   UNL     1       3.349   2.629  18.930  0.00  0.00    +0.000 A 
ATOM     33 CL   UNL     1       3.817   1.010  18.570  0.00  0.00    +0.000 Cl
ATOM     34  C   UNL     1       2.623   2.886  20.080  0.00  0.00    +0.000 A 
ATOM     35  C   UNL     1       2.241   4.199  20.362  0.00  0.00    +0.000 A 
ATOM     36  C   UNL     1       2.616   5.273  19.532  0.00  0.00    +0.000 A 
ENDBRANCH  24  26
ENDBRANCH  23  24
ENDBRANCH  22  23
ENDBRANCH   9  22
TORSDOF 4
ENDMDL
MODEL 6
REMARK VINA RESULT:      -8.1      2.938      5.427
REMARK  Name = 
REMARK  5 active torsions:
REMARK  status: ('A' for Active; 'I' for Inactive)
REMARK    1  A    between atoms: C_1  and  N_2
REMARK    2  A    between atoms: N_9  and  C_10
REMARK    3  A    between atoms: C_10  and  C_11
REMARK    4  A    between atoms: C_11  and  N_12
REMARK    5  A    between atoms: N_12  and  C_13
REMARK                            x       y       z     vdW  Elec       q    Type
REMARK                         _______ _______ _______ _____ _____    ______ ____
ROOT
ATOM      1  C   UNL     1      -1.633  15.535  26.178  0.00  0.00    +0.000 C 
ATOM      2  N   UNL     1      -2.361  15.570  24.912  0.00  0.00    +0.000 NA
ATOM      3  C   UNL     1      -3.461  14.573  24.898  0.00  0.00    +0.000 C 
ATOM      4  C   UNL     1      -4.260  14.584  23.566  0.00  0.00    +0.000 C 
ATOM      5  N   UNL     1      -3.335  14.422  22.455  0.00  0.00    +0.000 N 
ATOM      6  C   UNL     1      -3.655  13.705  21.341  0.00  0.00    +0.000 A 
ATOM      7  N   UNL     1      -2.721  13.629  20.403  0.00  0.00    +0.000 NA
ATOM      8  C   UNL     1      -2.923  12.799  19.413  0.00  0.00    +0.000 A 
ATOM      9  N   UNL     1      -1.889  12.573  18.511  0.00  0.00    +0.000 N 
ATOM     10  N   UNL     1      -4.038  12.120  19.243  0.00  0.00    +0.000 NA
ATOM     11  C   UNL     1      -4.981  12.291  20.178  0.00  0.00    +0.000 A 
ATOM     12  N   UNL     1      -6.180  11.638  20.015  0.00  0.00    +0.000 N 
ATOM     13  C   UNL     1      -7.263  11.792  20.972  0.00  0.00    +0.000 C 
ATOM     14  C   UNL     1      -7.655  10.425  21.537  0.00  0.00    +0.000 C 
ATOM     15  C   UNL     1      -7.916   9.404  20.427  0.00  0.00    +0.000 C 
ATOM     16  C   UNL     1      -6.757   9.351  19.431  0.00  0.00    +0.000 C 
ATOM     17  C   UNL     1      -6.401  10.740  18.895  0.00  0.00    +0.000 C 
ATOM     18  N   UNL     1      -4.806  13.055  21.245  0.00  0.00    +0.000 NA
ATOM     19  C   UNL     1      -2.190  15.332  22.424  0.00  0.00    +0.000 C 
ATOM     20  C   UNL     1      -1.449  15.294  23.778  0.00  0.00    +0.000 C 
ATOM     21  H   UNL     1      -2.236  12.330  17.597  0.00  0.00    +0.000 HD
ENDROOT
BRANCH   9  22
ATOM     22  C   UNL     1      -0.635  13.305  18.666  0.00  0.00    +0.000 C 
BRANCH  22  23
ATOM     23  C   UNL     1       0.580  12.351  18.714  0.00  0.00    +0.000 C 
BRANCH  23  24
ATOM     24  N   UNL     1       0.195  10.945  18.465  0.00  0.00    +0.000 N 
ATOM     25  H   UNL     1       0.478  10.650  17.542  0.00  0.00    +0.000 HD
BRANCH  24  26
ATOM     26  C   UNL     1       0.611  10.009  19.453  0.00  0.00    +0.000 A 
ATOM     27  C   UNL     1       0.163  10.126  20.766  0.00  0.00    +0.000 A 
ATOM     28  C   UNL     1       0.528   9.189  21.699  0.00  0.00    +0.000 A 
ATOM     29  N   UNL     1       1.271   8.098  21.418  0.00  0.00    +0.000 NA
ATOM     30  C   UNL     1       1.690   7.937  20.156  0.00  0.00    +0.000 A 
ATOM     31  C   UNL     1       2.466   6.815  19.869  0.00  0.00    +0.000 A 
ATOM     32  C   UNL     1       2.962   6.590  18.590  0.00  0.00    +0.000 A 
ATOM     33 CL   UNL     1       3.897   5.181  18.259  0.00  0.00    +0.000 Cl
ATOM     34  C   UNL     1       2.730   7.505  17.578  0.00  0.00    +0.000 A 
ATOM     35  C   UNL     1       1.977   8.648  17.856  0.00  0.00    +0.000 A 
ATOM     36  C   UNL     1       1.408   8.868  19.125  0.00  0.00    +0.000 A 
ENDBRANCH  24  26
ENDBRANCH  23  24
ENDBRANCH  22  23
ENDBRANCH   9  22
TORSDOF 4
ENDMDL
MODEL 7
REMARK VINA RESULT:      -7.9      2.122      3.133
REMARK  Name = 
REMARK  5 active torsions:
REMARK  status: ('A' for Active; 'I' for Inactive)
REMARK    1  A    between atoms: C_1  and  N_2
REMARK    2  A    between atoms: N_9  and  C_10
REMARK    3  A    between atoms: C_10  and  C_11
REMARK    4  A    between atoms: C_11  and  N_12
REMARK    5  A    between atoms: N_12  and  C_13
REMARK                            x       y       z     vdW  Elec       q    Type
REMARK                         _______ _______ _______ _____ _____    ______ ____
ROOT
ATOM      1  C   UNL     1       6.058  16.382  18.951  0.00  0.00    +0.000 C 
ATOM      2  N   UNL     1       4.694  15.979  18.617  0.00  0.00    +0.000 NA
ATOM      3  C   UNL     1       3.773  16.204  19.760  0.00  0.00    +0.000 C 
ATOM      4  C   UNL     1       2.312  15.788  19.440  0.00  0.00    +0.000 C 
ATOM      5  N   UNL     1       2.301  14.413  18.966  0.00  0.00    +0.000 N 
ATOM      6  C   UNL     1       1.295  13.546  19.274  0.00  0.00    +0.000 A 
ATOM      7  N   UNL     1       1.408  12.319  18.785  0.00  0.00    +0.000 NA
ATOM      8  C   UNL     1       0.564  11.416  19.214  0.00  0.00    +0.000 A 
ATOM      9  N   UNL     1       0.766  10.090  18.851  0.00  0.00    +0.000 N 
ATOM     10  N   UNL     1      -0.446  11.681  20.016  0.00  0.00    +0.000 NA
ATOM     11  C   UNL     1      -0.561  12.952  20.420  0.00  0.00    +0.000 A 
ATOM     12  N   UNL     1      -1.629  13.282  21.221  0.00  0.00    +0.000 N 
ATOM     13  C   UNL     1      -1.838  14.646  21.680  0.00  0.00    +0.000 C 
ATOM     14  C   UNL     1      -1.872  14.679  23.210  0.00  0.00    +0.000 C 
ATOM     15  C   UNL     1      -2.851  13.649  23.779  0.00  0.00    +0.000 C 
ATOM     16  C   UNL     1      -2.601  12.257  23.198  0.00  0.00    +0.000 C 
ATOM     17  C   UNL     1      -2.574  12.275  21.667  0.00  0.00    +0.000 C 
ATOM     18  N   UNL     1       0.307  13.895  20.086  0.00  0.00    +0.000 NA
ATOM     19  C   UNL     1       3.221  14.093  17.876  0.00  0.00    +0.000 C 
ATOM     20  C   UNL     1       4.651  14.547  18.242  0.00  0.00    +0.000 C 
ATOM     21  H   UNL     1      -0.100   9.576  18.812  0.00  0.00    +0.000 HD
ENDROOT
BRANCH   9  22
ATOM     22  C   UNL     1       1.877   9.753  17.965  0.00  0.00    +0.000 C 
BRANCH  22  23
ATOM     23  C   UNL     1       2.041   8.224  17.811  0.00  0.00    +0.000 C 
BRANCH  23  24
ATOM     24  N   UNL     1       3.462   7.816  17.784  0.00  0.00    +0.000 N 
ATOM     25  H   UNL     1       3.980   8.254  18.532  0.00  0.00    +0.000 HD
BRANCH  24  26
ATOM     26  C   UNL     1       3.699   6.414  17.748  0.00  0.00    +0.000 A 
ATOM     27  C   UNL     1       4.539   5.866  16.782  0.00  0.00    +0.000 A 
ATOM     28  C   UNL     1       4.802   4.519  16.788  0.00  0.00    +0.000 A 
ATOM     29  N   UNL     1       4.332   3.666  17.723  0.00  0.00    +0.000 NA
ATOM     30  C   UNL     1       3.549   4.166  18.687  0.00  0.00    +0.000 A 
ATOM     31  C   UNL     1       3.057   3.282  19.646  0.00  0.00    +0.000 A 
ATOM     32  C   UNL     1       2.215   3.718  20.663  0.00  0.00    +0.000 A 
ATOM     33 CL   UNL     1       1.642   2.607  21.849  0.00  0.00    +0.000 Cl
ATOM     34  C   UNL     1       1.811   5.041  20.720  0.00  0.00    +0.000 A 
ATOM     35  C   UNL     1       2.274   5.933  19.751  0.00  0.00    +0.000 A 
ATOM     36  C   UNL     1       3.178   5.534  18.748  0.00  0.00    +0.000 A 
ENDBRANCH  24  26
ENDBRANCH  23  24
ENDBRANCH  22  23
ENDBRANCH   9  22
TORSDOF 4
ENDMDL
MODEL 8
REMARK VINA RESULT:      -7.9      3.943      7.727
REMARK  Name = 
REMARK  5 active torsions:
REMARK  status: ('A' for Active; 'I' for Inactive)
REMARK    1  A    between atoms: C_1  and  N_2
REMARK    2  A    between atoms: N_9  and  C_10
REMARK    3  A    between atoms: C_10  and  C_11
REMARK    4  A    between atoms: C_11  and  N_12
REMARK    5  A    between atoms: N_12  and  C_13
REMARK                            x       y       z     vdW  Elec       q    Type
REMARK                         _______ _______ _______ _____ _____    ______ ____
ROOT
ATOM      1  C   UNL     1      -1.634  18.148  18.456  0.00  0.00    +0.000 C 
ATOM      2  N   UNL     1      -1.254  17.368  19.632  0.00  0.00    +0.000 NA
ATOM      3  C   UNL     1      -0.555  16.117  19.243  0.00  0.00    +0.000 C 
ATOM      4  C   UNL     1      -0.133  15.262  20.469  0.00  0.00    +0.000 C 
ATOM      5  N   UNL     1      -1.299  15.023  21.306  0.00  0.00    +0.000 N 
ATOM      6  C   UNL     1      -1.492  13.845  21.964  0.00  0.00    +0.000 A 
ATOM      7  N   UNL     1      -2.598  13.753  22.689  0.00  0.00    +0.000 NA
ATOM      8  C   UNL     1      -2.906  12.579  23.177  0.00  0.00    +0.000 A 
ATOM      9  N   UNL     1      -4.142  12.416  23.792  0.00  0.00    +0.000 N 
ATOM     10  N   UNL     1      -2.131  11.518  23.077  0.00  0.00    +0.000 NA
ATOM     11  C   UNL     1      -0.988  11.685  22.399  0.00  0.00    +0.000 A 
ATOM     12  N   UNL     1      -0.127  10.616  22.311  0.00  0.00    +0.000 N 
ATOM     13  C   UNL     1       1.145  10.724  21.615  0.00  0.00    +0.000 C 
ATOM     14  C   UNL     1       1.214   9.683  20.496  0.00  0.00    +0.000 C 
ATOM     15  C   UNL     1       0.873   8.279  21.002  0.00  0.00    +0.000 C 
ATOM     16  C   UNL     1      -0.447   8.268  21.774  0.00  0.00    +0.000 C 
ATOM     17  C   UNL     1      -0.470   9.325  22.881  0.00  0.00    +0.000 C 
ATOM     18  N   UNL     1      -0.658  12.826  21.815  0.00  0.00    +0.000 NA
ATOM     19  C   UNL     1      -2.076  16.200  21.690  0.00  0.00    +0.000 C 
ATOM     20  C   UNL     1      -2.448  17.020  20.435  0.00  0.00    +0.000 C 
ATOM     21  H   UNL     1      -4.115  11.701  24.501  0.00  0.00    +0.000 HD
ENDROOT
BRANCH   9  22
ATOM     22  C   UNL     1      -5.032  13.567  23.922  0.00  0.00    +0.000 C 
BRANCH  22  23
ATOM     23  C   UNL     1      -6.035  13.647  22.749  0.00  0.00    +0.000 C 
BRANCH  23  24
ATOM     24  N   UNL     1      -5.358  13.831  21.448  0.00  0.00    +0.000 N 
ATOM     25  H   UNL     1      -4.355  13.763  21.547  0.00  0.00    +0.000 HD
BRANCH  24  26
ATOM     26  C   UNL     1      -5.826  13.005  20.388  0.00  0.00    +0.000 A 
ATOM     27  C   UNL     1      -7.190  12.888  20.136  0.00  0.00    +0.000 A 
ATOM     28  C   UNL     1      -7.628  12.130  19.080  0.00  0.00    +0.000 A 
ATOM     29  N   UNL     1      -6.806  11.510  18.208  0.00  0.00    +0.000 NA
ATOM     30  C   UNL     1      -5.486  11.631  18.401  0.00  0.00    +0.000 A 
ATOM     31  C   UNL     1      -4.638  10.982  17.504  0.00  0.00    +0.000 A 
ATOM     32  C   UNL     1      -3.257  11.036  17.652  0.00  0.00    +0.000 A 
ATOM     33 CL   UNL     1      -2.232  10.245  16.514  0.00  0.00    +0.000 Cl
ATOM     34  C   UNL     1      -2.692  11.703  18.724  0.00  0.00    +0.000 A 
ATOM     35  C   UNL     1      -3.529  12.336  19.646  0.00  0.00    +0.000 A 
ATOM     36  C   UNL     1      -4.928  12.353  19.486  0.00  0.00    +0.000 A 
ENDBRANCH  24  26
ENDBRANCH  23  24
ENDBRANCH  22  23
ENDBRANCH   9  22
TORSDOF 4
ENDMDL
MODEL 9
REMARK VINA RESULT:      -7.8      2.703      4.241
REMARK  Name = 
REMARK  5 active torsions:
REMARK  status: ('A' for Active; 'I' for Inactive)
REMARK    1  A    between atoms: C_1  and  N_2
REMARK    2  A    between atoms: N_9  and  C_10
REMARK    3  A    between atoms: C_10  and  C_11
REMARK    4  A    between atoms: C_11  and  N_12
REMARK    5  A    between atoms: N_12  and  C_13
REMARK                            x       y       z     vdW  Elec       q    Type
REMARK                         _______ _______ _______ _____ _____    ______ ____
ROOT
ATOM      1  C   UNL     1      -3.413   9.856  14.993  0.00  0.00    +0.000 C 
ATOM      2  N   UNL     1      -3.196  10.424  16.321  0.00  0.00    +0.000 NA
ATOM      3  C   UNL     1      -2.342  11.636  16.253  0.00  0.00    +0.000 C 
ATOM      4  C   UNL     1      -2.091  12.270  17.648  0.00  0.00    +0.000 C 
ATOM      5  N   UNL     1      -1.561  11.254  18.544  0.00  0.00    +0.000 N 
ATOM      6  C   UNL     1      -0.618  11.536  19.487  0.00  0.00    +0.000 A 
ATOM      7  N   UNL     1      -0.214  10.520  20.236  0.00  0.00    +0.000 NA
ATOM      8  C   UNL     1       0.817  10.714  21.016  0.00  0.00    +0.000 A 
ATOM      9  N   UNL     1       1.367   9.624  21.680  0.00  0.00    +0.000 N 
ATOM     10  N   UNL     1       1.404  11.883  21.176  0.00  0.00    +0.000 NA
ATOM     11  C   UNL     1       0.908  12.896  20.454  0.00  0.00    +0.000 A 
ATOM     12  N   UNL     1       1.460  14.143  20.626  0.00  0.00    +0.000 N 
ATOM     13  C   UNL     1       0.960  15.299  19.898  0.00  0.00    +0.000 C 
ATOM     14  C   UNL     1       2.093  15.929  19.084  0.00  0.00    +0.000 C 
ATOM     15  C   UNL     1       3.332  16.193  19.942  0.00  0.00    +0.000 C 
ATOM     16  C   UNL     1       3.752  14.945  20.720  0.00  0.00    +0.000 C 
ATOM     17  C   UNL     1       2.587  14.351  21.517  0.00  0.00    +0.000 C 
ATOM     18  N   UNL     1      -0.082  12.744  19.588  0.00  0.00    +0.000 NA
ATOM     19  C   UNL     1      -2.314  10.004  18.628  0.00  0.00    +0.000 C 
ATOM     20  C   UNL     1      -2.551   9.433  17.213  0.00  0.00    +0.000 C 
ATOM     21  H   UNL     1       1.800   9.893  22.549  0.00  0.00    +0.000 HD
ENDROOT
BRANCH   9  22
ATOM     22  C   UNL     1       0.747   8.310  21.528  0.00  0.00    +0.000 C 
BRANCH  22  23
ATOM     23  C   UNL     1       1.433   7.480  20.419  0.00  0.00    +0.000 C 
BRANCH  23  24
ATOM     24  N   UNL     1       2.117   6.286  20.958  0.00  0.00    +0.000 N 
ATOM     25  H   UNL     1       1.823   6.096  21.905  0.00  0.00    +0.000 HD
BRANCH  24  26
ATOM     26  C   UNL     1       2.040   5.116  20.152  0.00  0.00    +0.000 A 
ATOM     27  C   UNL     1       1.051   4.165  20.386  0.00  0.00    +0.000 A 
ATOM     28  C   UNL     1       0.953   3.065  19.570  0.00  0.00    +0.000 A 
ATOM     29  N   UNL     1       1.737   2.857  18.492  0.00  0.00    +0.000 NA
ATOM     30  C   UNL     1       2.677   3.771  18.218  0.00  0.00    +0.000 A 
ATOM     31  C   UNL     1       3.493   3.550  17.110  0.00  0.00    +0.000 A 
ATOM     32  C   UNL     1       4.509   4.438  16.774  0.00  0.00    +0.000 A 
ATOM     33 CL   UNL     1       5.485   4.152  15.384  0.00  0.00    +0.000 Cl
ATOM     34  C   UNL     1       4.761   5.545  17.565  0.00  0.00    +0.000 A 
ATOM     35  C   UNL     1       3.970   5.766  18.695  0.00  0.00    +0.000 A 
ATOM     36  C   UNL     1       2.893   4.920  19.021  0.00  0.00    +0.000 A 
ENDBRANCH  24  26
ENDBRANCH  23  24
ENDBRANCH  22  23
ENDBRANCH   9  22
TORSDOF 4
ENDMDL
