MODEL 1
REMARK VINA RESULT:      -7.3      0.000      0.000
REMARK  Name = 
REMARK  3 active torsions:
REMARK  status: ('A' for Active; 'I' for Inactive)
REMARK    1  A    between atoms: C_2  and  C_3
REMARK    2  A    between atoms: C_4  and  C_5
REMARK    3  A    between atoms: C_4  and  C_11
REMARK                            x       y       z     vdW  Elec       q    Type
REMARK                         _______ _______ _______ _____ _____    ______ ____
ROOT
ATOM      1  C   UNL     1       7.483   4.924  17.087  0.00  0.00    +0.000 C 
ATOM      2  C   UNL     1       6.417   5.010  16.257  0.00  0.00    +0.000 C 
ENDROOT
BRANCH   2   3
ATOM      3  C   UNL     1       5.090   5.385  16.822  0.00  0.00    +0.000 A 
ATOM      4  C   UNL     1       4.160   4.390  17.154  0.00  0.00    +0.000 A 
ATOM      5  C   UNL     1       2.938   4.730  17.740  0.00  0.00    +0.000 A 
ATOM      6  C   UNL     1       2.635   6.065  17.997  0.00  0.00    +0.000 A 
ATOM      7  C   UNL     1       3.546   7.064  17.659  0.00  0.00    +0.000 A 
ATOM      8  C   UNL     1       4.770   6.727  17.071  0.00  0.00    +0.000 A 
ENDBRANCH   2   3
BRANCH   2   9
ATOM      9  C   UNL     1       6.629   4.734  14.808  0.00  0.00    +0.000 A 
ATOM     10  C   UNL     1       5.836   3.817  14.117  0.00  0.00    +0.000 A 
ATOM     11  C   UNL     1       6.073   3.599  12.761  0.00  0.00    +0.000 A 
ATOM     12  C   UNL     1       7.090   4.298  12.128  0.00  0.00    +0.000 A 
ATOM     13  C   UNL     1       7.832   5.191  12.879  0.00  0.00    +0.000 A 
ATOM     14  N   UNL     1       7.626   5.420  14.191  0.00  0.00    +0.000 NA
ENDBRANCH   2   9
BRANCH   1  16
ATOM     15  N   UNL     1       7.246   5.379  19.821  0.00  0.00    +0.000 NA
ATOM     16  C   UNL     1       7.354   5.173  18.581  0.00  0.00    +0.000 C 
ENDBRANCH   1  16
TORSDOF 3
ENDMDL
MODEL 2
REMARK VINA RESULT:      -7.2      0.378      1.259
REMARK  Name = 
REMARK  3 active torsions:
REMARK  status: ('A' for Active; 'I' for Inactive)
REMARK    1  A    between atoms: C_2  and  C_3
REMARK    2  A    between atoms: C_4  and  C_5
REMARK    3  A    between atoms: C_4  and  C_11
REMARK                            x       y       z     vdW  Elec       q    Type
REMARK                         _______ _______ _______ _____ _____    ______ ____
ROOT
ATOM      1  C   UNL     1       7.492   4.986  17.116  0.00  0.00    +0.000 C 
ATOM      2  C   UNL     1       6.405   4.890  16.314  0.00  0.00    +0.000 C 
ENDROOT
BRANCH   2   3
ATOM      3  C   UNL     1       5.049   5.026  16.915  0.00  0.00    +0.000 A 
ATOM      4  C   UNL     1       4.530   6.298  17.199  0.00  0.00    +0.000 A 
ATOM      5  C   UNL     1       3.236   6.437  17.706  0.00  0.00    +0.000 A 
ATOM      6  C   UNL     1       2.450   5.309  17.935  0.00  0.00    +0.000 A 
ATOM      7  C   UNL     1       2.960   4.040  17.668  0.00  0.00    +0.000 A 
ATOM      8  C   UNL     1       4.256   3.897  17.162  0.00  0.00    +0.000 A 
ENDBRANCH   2   3
BRANCH   2   9
ATOM      9  C   UNL     1       6.623   4.663  14.856  0.00  0.00    +0.000 A 
ATOM     10  C   UNL     1       5.835   3.767  14.133  0.00  0.00    +0.000 A 
ATOM     11  C   UNL     1       6.076   3.594  12.772  0.00  0.00    +0.000 A 
ATOM     12  C   UNL     1       7.093   4.317  12.165  0.00  0.00    +0.000 A 
ATOM     13  C   UNL     1       7.831   5.186  12.948  0.00  0.00    +0.000 A 
ATOM     14  N   UNL     1       7.620   5.371  14.267  0.00  0.00    +0.000 NA
ENDBRANCH   2   9
BRANCH   1  16
ATOM     15  N   UNL     1       7.253   5.377  19.858  0.00  0.00    +0.000 NA
ATOM     16  C   UNL     1       7.361   5.200  18.615  0.00  0.00    +0.000 C 
ENDBRANCH   1  16
TORSDOF 3
ENDMDL
MODEL 3
REMARK VINA RESULT:      -7.0      1.847      5.071
REMARK  Name = 
REMARK  3 active torsions:
REMARK  status: ('A' for Active; 'I' for Inactive)
REMARK    1  A    between atoms: C_2  and  C_3
REMARK    2  A    between atoms: C_4  and  C_5
REMARK    3  A    between atoms: C_4  and  C_11
REMARK                            x       y       z     vdW  Elec       q    Type
REMARK                         _______ _______ _______ _____ _____    ______ ____
ROOT
ATOM      1  C   UNL     1       5.409   4.407  15.224  0.00  0.00    +0.000 C 
ATOM      2  C   UNL     1       5.227   4.703  16.533  0.00  0.00    +0.000 C 
ENDROOT
BRANCH   2   3
ATOM      3  C   UNL     1       6.255   5.516  17.240  0.00  0.00    +0.000 A 
ATOM      4  C   UNL     1       6.411   6.875  16.933  0.00  0.00    +0.000 A 
ATOM      5  C   UNL     1       7.330   7.659  17.634  0.00  0.00    +0.000 A 
ATOM      6  C   UNL     1       8.103   7.093  18.646  0.00  0.00    +0.000 A 
ATOM      7  C   UNL     1       7.965   5.740  18.951  0.00  0.00    +0.000 A 
ATOM      8  C   UNL     1       7.047   4.952  18.250  0.00  0.00    +0.000 A 
ENDBRANCH   2   3
BRANCH   2   9
ATOM      9  C   UNL     1       3.991   4.206  17.202  0.00  0.00    +0.000 A 
ATOM     10  C   UNL     1       3.017   5.084  17.678  0.00  0.00    +0.000 A 
ATOM     11  C   UNL     1       1.878   4.569  18.292  0.00  0.00    +0.000 A 
ATOM     12  C   UNL     1       1.736   3.194  18.416  0.00  0.00    +0.000 A 
ATOM     13  C   UNL     1       2.744   2.388  17.920  0.00  0.00    +0.000 A 
ATOM     14  N   UNL     1       3.857   2.860  17.323  0.00  0.00    +0.000 NA
ENDBRANCH   2   9
BRANCH   1  16
ATOM     15  N   UNL     1       7.676   5.235  13.842  0.00  0.00    +0.000 NA
ATOM     16  C   UNL     1       6.648   4.860  14.469  0.00  0.00    +0.000 C 
ENDBRANCH   1  16
TORSDOF 3
ENDMDL
MODEL 4
REMARK VINA RESULT:      -6.9      1.911      4.916
REMARK  Name = 
REMARK  3 active torsions:
REMARK  status: ('A' for Active; 'I' for Inactive)
REMARK    1  A    between atoms: C_2  and  C_3
REMARK    2  A    between atoms: C_4  and  C_5
REMARK    3  A    between atoms: C_4  and  C_11
REMARK                            x       y       z     vdW  Elec       q    Type
REMARK                         _______ _______ _______ _____ _____    ______ ____
ROOT
ATOM      1  C   UNL     1       5.383   4.428  15.279  0.00  0.00    +0.000 C 
ATOM      2  C   UNL     1       5.146   4.759  16.571  0.00  0.00    +0.000 C 
ENDROOT
BRANCH   2   3
ATOM      3  C   UNL     1       6.144   5.595  17.297  0.00  0.00    +0.000 A 
ATOM      4  C   UNL     1       6.956   5.021  18.285  0.00  0.00    +0.000 A 
ATOM      5  C   UNL     1       7.935   5.783  18.927  0.00  0.00    +0.000 A 
ATOM      6  C   UNL     1       8.110   7.124  18.589  0.00  0.00    +0.000 A 
ATOM      7  C   UNL     1       7.299   7.708  17.618  0.00  0.00    +0.000 A 
ATOM      8  C   UNL     1       6.317   6.948  16.974  0.00  0.00    +0.000 A 
ENDBRANCH   2   3
BRANCH   2   9
ATOM      9  C   UNL     1       3.885   4.278  17.202  0.00  0.00    +0.000 A 
ATOM     10  C   UNL     1       3.586   2.917  17.287  0.00  0.00    +0.000 A 
ATOM     11  C   UNL     1       2.395   2.520  17.890  0.00  0.00    +0.000 A 
ATOM     12  C   UNL     1       1.532   3.483  18.394  0.00  0.00    +0.000 A 
ATOM     13  C   UNL     1       1.898   4.811  18.271  0.00  0.00    +0.000 A 
ATOM     14  N   UNL     1       3.043   5.224  17.691  0.00  0.00    +0.000 NA
ENDBRANCH   2   9
BRANCH   1  16
ATOM     15  N   UNL     1       7.703   5.224  13.969  0.00  0.00    +0.000 NA
ATOM     16  C   UNL     1       6.651   4.863  14.563  0.00  0.00    +0.000 C 
ENDBRANCH   1  16
TORSDOF 3
ENDMDL
MODEL 5
REMARK VINA RESULT:      -6.9      1.903      5.016
REMARK  Name = 
REMARK  3 active torsions:
REMARK  status: ('A' for Active; 'I' for Inactive)
REMARK    1  A    between atoms: C_2  and  C_3
REMARK    2  A    between atoms: C_4  and  C_5
REMARK    3  A    between atoms: C_4  and  C_11
REMARK                            x       y       z     vdW  Elec       q    Type
REMARK                         _______ _______ _______ _____ _____    ______ ____
ROOT
ATOM      1  C   UNL     1       5.407   4.394  15.191  0.00  0.00    +0.000 C 
ATOM      2  C   UNL     1       5.224   4.674  16.503  0.00  0.00    +0.000 C 
ENDROOT
BRANCH   2   3
ATOM      3  C   UNL     1       6.257   5.471  17.223  0.00  0.00    +0.000 A 
ATOM      4  C   UNL     1       6.452   6.822  16.903  0.00  0.00    +0.000 A 
ATOM      5  C   UNL     1       7.375   7.592  17.615  0.00  0.00    +0.000 A 
ATOM      6  C   UNL     1       8.111   7.020  18.651  0.00  0.00    +0.000 A 
ATOM      7  C   UNL     1       7.933   5.674  18.969  0.00  0.00    +0.000 A 
ATOM      8  C   UNL     1       7.011   4.900  18.257  0.00  0.00    +0.000 A 
ENDBRANCH   2   3
BRANCH   2   9
ATOM      9  C   UNL     1       3.983   4.177  17.163  0.00  0.00    +0.000 A 
ATOM     10  C   UNL     1       3.772   2.815  17.386  0.00  0.00    +0.000 A 
ATOM     11  C   UNL     1       2.597   2.403  18.010  0.00  0.00    +0.000 A 
ATOM     12  C   UNL     1       1.663   3.354  18.397  0.00  0.00    +0.000 A 
ATOM     13  C   UNL     1       1.943   4.684  18.141  0.00  0.00    +0.000 A 
ATOM     14  N   UNL     1       3.071   5.110  17.538  0.00  0.00    +0.000 NA
ENDBRANCH   2   9
BRANCH   1  16
ATOM     15  N   UNL     1       7.683   5.225  13.825  0.00  0.00    +0.000 NA
ATOM     16  C   UNL     1       6.651   4.848  14.444  0.00  0.00    +0.000 C 
ENDBRANCH   1  16
TORSDOF 3
ENDMDL
MODEL 6
REMARK VINA RESULT:      -6.8      2.412      5.765
REMARK  Name = 
REMARK  3 active torsions:
REMARK  status: ('A' for Active; 'I' for Inactive)
REMARK    1  A    between atoms: C_2  and  C_3
REMARK    2  A    between atoms: C_4  and  C_5
REMARK    3  A    between atoms: C_4  and  C_11
REMARK                            x       y       z     vdW  Elec       q    Type
REMARK                         _______ _______ _______ _____ _____    ______ ____
ROOT
ATOM      1  C   UNL     1       4.362   3.972  16.647  0.00  0.00    +0.000 C 
ATOM      2  C   UNL     1       4.443   4.725  17.770  0.00  0.00    +0.000 C 
ENDROOT
BRANCH   2   3
ATOM      3  C   UNL     1       5.643   5.582  17.981  0.00  0.00    +0.000 A 
ATOM      4  C   UNL     1       6.631   5.195  18.897  0.00  0.00    +0.000 A 
ATOM      5  C   UNL     1       7.788   5.962  19.056  0.00  0.00    +0.000 A 
ATOM      6  C   UNL     1       7.968   7.120  18.302  0.00  0.00    +0.000 A 
ATOM      7  C   UNL     1       6.986   7.520  17.398  0.00  0.00    +0.000 A 
ATOM      8  C   UNL     1       5.825   6.756  17.237  0.00  0.00    +0.000 A 
ENDBRANCH   2   3
BRANCH   2   9
ATOM      9  C   UNL     1       3.312   4.667  18.740  0.00  0.00    +0.000 A 
ATOM     10  C   UNL     1       3.014   5.743  19.577  0.00  0.00    +0.000 A 
ATOM     11  C   UNL     1       1.944   5.640  20.463  0.00  0.00    +0.000 A 
ATOM     12  C   UNL     1       1.197   4.471  20.493  0.00  0.00    +0.000 A 
ATOM     13  C   UNL     1       1.554   3.448  19.633  0.00  0.00    +0.000 A 
ATOM     14  N   UNL     1       2.584   3.520  18.768  0.00  0.00    +0.000 NA
ENDBRANCH   2   9
BRANCH   1  16
ATOM     15  N   UNL     1       6.401   3.947  14.756  0.00  0.00    +0.000 NA
ATOM     16  C   UNL     1       5.476   3.958  15.614  0.00  0.00    +0.000 C 
ENDBRANCH   1  16
TORSDOF 3
ENDMDL
MODEL 7
REMARK VINA RESULT:      -6.7      4.154      6.323
REMARK  Name = 
REMARK  3 active torsions:
REMARK  status: ('A' for Active; 'I' for Inactive)
REMARK    1  A    between atoms: C_2  and  C_3
REMARK    2  A    between atoms: C_4  and  C_5
REMARK    3  A    between atoms: C_4  and  C_11
REMARK                            x       y       z     vdW  Elec       q    Type
REMARK                         _______ _______ _______ _____ _____    ______ ____
ROOT
ATOM      1  C   UNL     1       4.265   6.258  19.058  0.00  0.00    +0.000 C 
ATOM      2  C   UNL     1       2.915   6.305  19.156  0.00  0.00    +0.000 C 
ENDROOT
BRANCH   2   3
ATOM      3  C   UNL     1       2.160   5.037  19.361  0.00  0.00    +0.000 A 
ATOM      4  C   UNL     1       1.771   4.264  18.259  0.00  0.00    +0.000 A 
ATOM      5  C   UNL     1       1.116   3.044  18.446  0.00  0.00    +0.000 A 
ATOM      6  C   UNL     1       0.845   2.586  19.734  0.00  0.00    +0.000 A 
ATOM      7  C   UNL     1       1.217   3.353  20.837  0.00  0.00    +0.000 A 
ATOM      8  C   UNL     1       1.871   4.576  20.653  0.00  0.00    +0.000 A 
ENDBRANCH   2   3
BRANCH   2   9
ATOM      9  C   UNL     1       2.248   7.636  19.065  0.00  0.00    +0.000 A 
ATOM     10  C   UNL     1       2.261   8.378  17.883  0.00  0.00    +0.000 A 
ATOM     11  C   UNL     1       1.620   9.614  17.849  0.00  0.00    +0.000 A 
ATOM     12  C   UNL     1       0.981  10.080  18.990  0.00  0.00    +0.000 A 
ATOM     13  C   UNL     1       1.012   9.287  20.123  0.00  0.00    +0.000 A 
ATOM     14  N   UNL     1       1.626   8.088  20.184  0.00  0.00    +0.000 NA
ENDBRANCH   2   9
BRANCH   1  16
ATOM     15  N   UNL     1       5.654   3.852  19.178  0.00  0.00    +0.000 NA
ATOM     16  C   UNL     1       5.024   4.943  19.123  0.00  0.00    +0.000 C 
ENDBRANCH   1  16
TORSDOF 3
ENDMDL
MODEL 8
REMARK VINA RESULT:      -6.7      4.136      6.308
REMARK  Name = 
REMARK  3 active torsions:
REMARK  status: ('A' for Active; 'I' for Inactive)
REMARK    1  A    between atoms: C_2  and  C_3
REMARK    2  A    between atoms: C_4  and  C_5
REMARK    3  A    between atoms: C_4  and  C_11
REMARK                            x       y       z     vdW  Elec       q    Type
REMARK                         _______ _______ _______ _____ _____    ______ ____
ROOT
ATOM      1  C   UNL     1       4.317   6.273  19.078  0.00  0.00    +0.000 C 
ATOM      2  C   UNL     1       2.965   6.286  19.149  0.00  0.00    +0.000 C 
ENDROOT
BRANCH   2   3
ATOM      3  C   UNL     1       2.238   4.996  19.315  0.00  0.00    +0.000 A 
ATOM      4  C   UNL     1       1.895   4.542  20.597  0.00  0.00    +0.000 A 
ATOM      5  C   UNL     1       1.161   3.364  20.758  0.00  0.00    +0.000 A 
ATOM      6  C   UNL     1       0.763   2.631  19.641  0.00  0.00    +0.000 A 
ATOM      7  C   UNL     1       1.109   3.066  18.364  0.00  0.00    +0.000 A 
ATOM      8  C   UNL     1       1.846   4.244  18.199  0.00  0.00    +0.000 A 
ENDBRANCH   2   3
BRANCH   2   9
ATOM      9  C   UNL     1       2.267   7.601  19.069  0.00  0.00    +0.000 A 
ATOM     10  C   UNL     1       2.227   8.333  17.882  0.00  0.00    +0.000 A 
ATOM     11  C   UNL     1       1.558   9.555  17.859  0.00  0.00    +0.000 A 
ATOM     12  C   UNL     1       0.947  10.017  19.016  0.00  0.00    +0.000 A 
ATOM     13  C   UNL     1       1.030   9.235  20.153  0.00  0.00    +0.000 A 
ATOM     14  N   UNL     1       1.672   8.050  20.204  0.00  0.00    +0.000 NA
ENDBRANCH   2   9
BRANCH   1  16
ATOM     15  N   UNL     1       5.763   3.900  19.181  0.00  0.00    +0.000 NA
ATOM     16  C   UNL     1       5.107   4.976  19.134  0.00  0.00    +0.000 C 
ENDBRANCH   1  16
TORSDOF 3
ENDMDL
MODEL 9
REMARK VINA RESULT:      -6.7      2.121      5.541
REMARK  Name = 
REMARK  3 active torsions:
REMARK  status: ('A' for Active; 'I' for Inactive)
REMARK    1  A    between atoms: C_2  and  C_3
REMARK    2  A    between atoms: C_4  and  C_5
REMARK    3  A    between atoms: C_4  and  C_11
REMARK                            x       y       z     vdW  Elec       q    Type
REMARK                         _______ _______ _______ _____ _____    ______ ____
ROOT
ATOM      1  C   UNL     1       4.514   4.012  16.404  0.00  0.00    +0.000 C 
ATOM      2  C   UNL     1       4.533   4.726  17.554  0.00  0.00    +0.000 C 
ENDROOT
BRANCH   2   3
ATOM      3  C   UNL     1       5.704   5.603  17.841  0.00  0.00    +0.000 A 
ATOM      4  C   UNL     1       6.707   5.170  18.720  0.00  0.00    +0.000 A 
ATOM      5  C   UNL     1       7.837   5.960  18.947  0.00  0.00    +0.000 A 
ATOM      6  C   UNL     1       7.974   7.187  18.300  0.00  0.00    +0.000 A 
ATOM      7  C   UNL     1       6.976   7.632  17.435  0.00  0.00    +0.000 A 
ATOM      8  C   UNL     1       5.843   6.845  17.207  0.00  0.00    +0.000 A 
ENDBRANCH   2   3
BRANCH   2   9
ATOM      9  C   UNL     1       3.367   4.609  18.476  0.00  0.00    +0.000 A 
ATOM     10  C   UNL     1       2.294   3.764  18.190  0.00  0.00    +0.000 A 
ATOM     11  C   UNL     1       1.231   3.688  19.086  0.00  0.00    +0.000 A 
ATOM     12  C   UNL     1       1.262   4.453  20.244  0.00  0.00    +0.000 A 
ATOM     13  C   UNL     1       2.360   5.266  20.458  0.00  0.00    +0.000 A 
ATOM     14  N   UNL     1       3.401   5.360  19.607  0.00  0.00    +0.000 NA
ENDBRANCH   2   9
BRANCH   1  16
ATOM     15  N   UNL     1       6.625   4.099  14.595  0.00  0.00    +0.000 NA
ATOM     16  C   UNL     1       5.668   4.060  15.416  0.00  0.00    +0.000 C 
ENDBRANCH   1  16
TORSDOF 3
ENDMDL
