MODEL 1
REMARK VINA RESULT:      -7.1      0.000      0.000
REMARK  Name = 
REMARK  14 active torsions:
REMARK  status: ('A' for Active; 'I' for Inactive)
REMARK    1  A    between atoms: C_1  and  N_2
REMARK    2  A    between atoms: N_2  and  C_3
REMARK    3  A    between atoms: N_2  and  C_4
REMARK    4  A    between atoms: C_4  and  C_5
REMARK    5  A    between atoms: C_5  and  C_6
REMARK    6  A    between atoms: C_6  and  C_7
REMARK    7  A    between atoms: C_7  and  C_8
REMARK    8  A    between atoms: C_8  and  C_9
REMARK    9  A    between atoms: C_9  and  C_10
REMARK   10  A    between atoms: C_10  and  C_11
REMARK   11  A    between atoms: C_11  and  C_12
REMARK   12  A    between atoms: C_12  and  C_13
REMARK   13  A    between atoms: C_13  and  N_14
REMARK   14  A    between atoms: N_14  and  C_15
REMARK                            x       y       z     vdW  Elec       q    Type
REMARK                         _______ _______ _______ _____ _____    ______ ____
ROOT
ATOM      1  N   UNL     1       3.062   6.937  19.824  0.00  0.00    +0.000 N 
ATOM      2  H   UNL     1       3.772   7.130  20.539  0.00  0.00    +0.000 HD
ENDROOT
BRANCH   1   3
ATOM      3  C   UNL     1       3.208   5.734  19.041  0.00  0.00    +0.000 A 
ATOM      4  C   UNL     1       3.946   5.661  17.799  0.00  0.00    +0.000 A 
ATOM      5  C   UNL     1       4.079   4.398  17.158  0.00  0.00    +0.000 A 
ATOM      6  N   UNL     1       3.463   3.308  17.664  0.00  0.00    +0.000 NA
ATOM      7  C   UNL     1       2.731   3.332  18.795  0.00  0.00    +0.000 A 
ATOM      8  C   UNL     1       2.122   2.148  19.226  0.00  0.00    +0.000 A 
ATOM      9  C   UNL     1       1.355   2.133  20.387  0.00  0.00    +0.000 A 
ATOM     10  C   UNL     1       1.202   3.297  21.132  0.00  0.00    +0.000 A 
ATOM     11  C   UNL     1       1.809   4.484  20.717  0.00  0.00    +0.000 A 
ATOM     12  C   UNL     1       2.592   4.534  19.532  0.00  0.00    +0.000 A 
ATOM     13  C   UNL     1       4.910   4.192  15.913  0.00  0.00    +0.000 C 
ATOM     14  C   UNL     1       5.876   5.341  15.622  0.00  0.00    +0.000 C 
ATOM     15  C   UNL     1       5.124   6.644  15.725  0.00  0.00    +0.000 C 
ATOM     16  C   UNL     1       4.632   6.862  17.159  0.00  0.00    +0.000 C 
ENDBRANCH   1   3
BRANCH   1  17
ATOM     17  C   UNL     1       1.939   7.863  19.814  0.00  0.00    +0.000 C 
BRANCH  17  18
ATOM     18  C   UNL     1       1.178   7.858  21.152  0.00  0.00    +0.000 C 
BRANCH  18  19
ATOM     19  C   UNL     1       1.295   9.200  21.905  0.00  0.00    +0.000 C 
BRANCH  19  20
ATOM     20  C   UNL     1      -0.065   9.691  22.406  0.00  0.00    +0.000 C 
BRANCH  20  21
ATOM     21  C   UNL     1      -0.585  10.842  21.578  0.00  0.00    +0.000 C 
BRANCH  21  22
ATOM     22  C   UNL     1       0.572  11.413  20.773  0.00  0.00    +0.000 C 
BRANCH  22  23
ATOM     23  C   UNL     1       0.219  11.411  19.302  0.00  0.00    +0.000 C 
BRANCH  23  24
ATOM     24  C   UNL     1      -1.198  10.903  19.127  0.00  0.00    +0.000 C 
BRANCH  24  25
ATOM     25  C   UNL     1      -1.250   9.903  17.976  0.00  0.00    +0.000 C 
BRANCH  25  26
ATOM     26  C   UNL     1      -2.679   9.791  17.438  0.00  0.00    +0.000 C 
BRANCH  26  28
ATOM     27  C   UNL     1      -2.913  10.428  15.069  0.00  0.00    +0.000 C 
ATOM     28  N   UNL     1      -2.990  10.871  16.474  0.00  0.00    +0.000 NA
ATOM     29  C   UNL     1      -4.319  11.427  16.756  0.00  0.00    +0.000 C 
ENDBRANCH  26  28
ENDBRANCH  25  26
ENDBRANCH  24  25
ENDBRANCH  23  24
ENDBRANCH  22  23
ENDBRANCH  21  22
ENDBRANCH  20  21
ENDBRANCH  19  20
ENDBRANCH  18  19
ENDBRANCH  17  18
ENDBRANCH   1  17
TORSDOF 12
ENDMDL
MODEL 2
REMARK VINA RESULT:      -7.1      2.501      3.720
REMARK  Name = 
REMARK  14 active torsions:
REMARK  status: ('A' for Active; 'I' for Inactive)
REMARK    1  A    between atoms: C_1  and  N_2
REMARK    2  A    between atoms: N_2  and  C_3
REMARK    3  A    between atoms: N_2  and  C_4
REMARK    4  A    between atoms: C_4  and  C_5
REMARK    5  A    between atoms: C_5  and  C_6
REMARK    6  A    between atoms: C_6  and  C_7
REMARK    7  A    between atoms: C_7  and  C_8
REMARK    8  A    between atoms: C_8  and  C_9
REMARK    9  A    between atoms: C_9  and  C_10
REMARK   10  A    between atoms: C_10  and  C_11
REMARK   11  A    between atoms: C_11  and  C_12
REMARK   12  A    between atoms: C_12  and  C_13
REMARK   13  A    between atoms: C_13  and  N_14
REMARK   14  A    between atoms: N_14  and  C_15
REMARK                            x       y       z     vdW  Elec       q    Type
REMARK                         _______ _______ _______ _____ _____    ______ ____
ROOT
ATOM      1  N   UNL     1       3.127   7.294  18.322  0.00  0.00    +0.000 N 
ATOM      2  H   UNL     1       3.616   7.738  19.107  0.00  0.00    +0.000 HD
ENDROOT
BRANCH   1   3
ATOM      3  C   UNL     1       3.404   5.903  18.058  0.00  0.00    +0.000 A 
ATOM      4  C   UNL     1       4.322   5.439  17.043  0.00  0.00    +0.000 A 
ATOM      5  C   UNL     1       4.566   4.041  16.930  0.00  0.00    +0.000 A 
ATOM      6  N   UNL     1       3.892   3.167  17.708  0.00  0.00    +0.000 NA
ATOM      7  C   UNL     1       2.997   3.546  18.641  0.00  0.00    +0.000 A 
ATOM      8  C   UNL     1       2.343   2.558  19.386  0.00  0.00    +0.000 A 
ATOM      9  C   UNL     1       1.409   2.909  20.356  0.00  0.00    +0.000 A 
ATOM     10  C   UNL     1       1.132   4.251  20.596  0.00  0.00    +0.000 A 
ATOM     11  C   UNL     1       1.781   5.247  19.865  0.00  0.00    +0.000 A 
ATOM     12  C   UNL     1       2.734   4.921  18.864  0.00  0.00    +0.000 A 
ATOM     13  C   UNL     1       5.577   3.458  15.972  0.00  0.00    +0.000 C 
ATOM     14  C   UNL     1       6.564   4.488  15.418  0.00  0.00    +0.000 C 
ATOM     15  C   UNL     1       5.790   5.688  14.935  0.00  0.00    +0.000 C 
ATOM     16  C   UNL     1       5.084   6.373  16.110  0.00  0.00    +0.000 C 
ENDBRANCH   1   3
BRANCH   1  17
ATOM     17  C   UNL     1       2.121   8.128  17.680  0.00  0.00    +0.000 C 
BRANCH  17  18
ATOM     18  C   UNL     1       1.947   9.477  18.400  0.00  0.00    +0.000 C 
BRANCH  18  19
ATOM     19  C   UNL     1       0.734   9.489  19.353  0.00  0.00    +0.000 C 
BRANCH  19  20
ATOM     20  C   UNL     1       1.054   8.813  20.689  0.00  0.00    +0.000 C 
BRANCH  20  21
ATOM     21  C   UNL     1      -0.168   8.702  21.569  0.00  0.00    +0.000 C 
BRANCH  21  22
ATOM     22  C   UNL     1       0.132   9.386  22.893  0.00  0.00    +0.000 C 
BRANCH  22  23
ATOM     23  C   UNL     1      -0.966  10.376  23.215  0.00  0.00    +0.000 C 
BRANCH  23  24
ATOM     24  C   UNL     1      -0.843  11.577  22.298  0.00  0.00    +0.000 C 
BRANCH  24  25
ATOM     25  C   UNL     1      -1.465  12.801  22.964  0.00  0.00    +0.000 C 
BRANCH  25  26
ATOM     26  C   UNL     1      -2.992  12.707  22.919  0.00  0.00    +0.000 C 
BRANCH  26  28
ATOM     27  C   UNL     1      -3.332  14.329  24.742  0.00  0.00    +0.000 C 
ATOM     28  N   UNL     1      -3.600  12.967  24.244  0.00  0.00    +0.000 NA
ATOM     29  C   UNL     1      -5.046  12.725  24.188  0.00  0.00    +0.000 C 
ENDBRANCH  26  28
ENDBRANCH  25  26
ENDBRANCH  24  25
ENDBRANCH  23  24
ENDBRANCH  22  23
ENDBRANCH  21  22
ENDBRANCH  20  21
ENDBRANCH  19  20
ENDBRANCH  18  19
ENDBRANCH  17  18
ENDBRANCH   1  17
TORSDOF 12
ENDMDL
MODEL 3
REMARK VINA RESULT:      -7.0      2.595      3.584
REMARK  Name = 
REMARK  14 active torsions:
REMARK  status: ('A' for Active; 'I' for Inactive)
REMARK    1  A    between atoms: C_1  and  N_2
REMARK    2  A    between atoms: N_2  and  C_3
REMARK    3  A    between atoms: N_2  and  C_4
REMARK    4  A    between atoms: C_4  and  C_5
REMARK    5  A    between atoms: C_5  and  C_6
REMARK    6  A    between atoms: C_6  and  C_7
REMARK    7  A    between atoms: C_7  and  C_8
REMARK    8  A    between atoms: C_8  and  C_9
REMARK    9  A    between atoms: C_9  and  C_10
REMARK   10  A    between atoms: C_10  and  C_11
REMARK   11  A    between atoms: C_11  and  C_12
REMARK   12  A    between atoms: C_12  and  C_13
REMARK   13  A    between atoms: C_13  and  N_14
REMARK   14  A    between atoms: N_14  and  C_15
REMARK                            x       y       z     vdW  Elec       q    Type
REMARK                         _______ _______ _______ _____ _____    ______ ____
ROOT
ATOM      1  N   UNL     1       2.721   6.858  17.692  0.00  0.00    +0.000 N 
ATOM      2  H   UNL     1       2.382   6.914  16.725  0.00  0.00    +0.000 HD
ENDROOT
BRANCH   1   3
ATOM      3  C   UNL     1       3.668   5.817  18.012  0.00  0.00    +0.000 A 
ATOM      4  C   UNL     1       5.103   5.996  17.993  0.00  0.00    +0.000 A 
ATOM      5  C   UNL     1       5.931   4.913  18.401  0.00  0.00    +0.000 A 
ATOM      6  N   UNL     1       5.384   3.720  18.724  0.00  0.00    +0.000 NA
ATOM      7  C   UNL     1       4.056   3.492  18.717  0.00  0.00    +0.000 A 
ATOM      8  C   UNL     1       3.593   2.215  19.055  0.00  0.00    +0.000 A 
ATOM      9  C   UNL     1       2.230   1.938  19.057  0.00  0.00    +0.000 A 
ATOM     10  C   UNL     1       1.319   2.937  18.732  0.00  0.00    +0.000 A 
ATOM     11  C   UNL     1       1.766   4.217  18.399  0.00  0.00    +0.000 A 
ATOM     12  C   UNL     1       3.152   4.530  18.381  0.00  0.00    +0.000 A 
ATOM     13  C   UNL     1       7.432   5.023  18.514  0.00  0.00    +0.000 C 
ATOM     14  C   UNL     1       7.944   6.466  18.521  0.00  0.00    +0.000 C 
ATOM     15  C   UNL     1       7.294   7.214  17.385  0.00  0.00    +0.000 C 
ATOM     16  C   UNL     1       5.781   7.304  17.603  0.00  0.00    +0.000 C 
ENDBRANCH   1   3
BRANCH   1  17
ATOM     17  C   UNL     1       2.279   7.941  18.558  0.00  0.00    +0.000 C 
BRANCH  17  18
ATOM     18  C   UNL     1       1.766   9.149  17.752  0.00  0.00    +0.000 C 
BRANCH  18  19
ATOM     19  C   UNL     1       0.839  10.063  18.579  0.00  0.00    +0.000 C 
BRANCH  19  20
ATOM     20  C   UNL     1       0.973   9.801  20.081  0.00  0.00    +0.000 C 
BRANCH  20  21
ATOM     21  C   UNL     1      -0.332  10.025  20.808  0.00  0.00    +0.000 C 
BRANCH  21  22
ATOM     22  C   UNL     1      -0.227   9.390  22.185  0.00  0.00    +0.000 C 
BRANCH  22  23
ATOM     23  C   UNL     1      -0.917  10.268  23.205  0.00  0.00    +0.000 C 
BRANCH  23  24
ATOM     24  C   UNL     1      -1.004  11.684  22.672  0.00  0.00    +0.000 C 
BRANCH  24  25
ATOM     25  C   UNL     1      -2.282  12.349  23.175  0.00  0.00    +0.000 C 
BRANCH  25  26
ATOM     26  C   UNL     1      -3.246  12.589  22.011  0.00  0.00    +0.000 C 
BRANCH  26  28
ATOM     27  C   UNL     1      -5.024  13.212  23.598  0.00  0.00    +0.000 C 
ATOM     28  N   UNL     1      -4.658  12.407  22.418  0.00  0.00    +0.000 NA
ATOM     29  C   UNL     1      -5.548  12.723  21.295  0.00  0.00    +0.000 C 
ENDBRANCH  26  28
ENDBRANCH  25  26
ENDBRANCH  24  25
ENDBRANCH  23  24
ENDBRANCH  22  23
ENDBRANCH  21  22
ENDBRANCH  20  21
ENDBRANCH  19  20
ENDBRANCH  18  19
ENDBRANCH  17  18
ENDBRANCH   1  17
TORSDOF 12
ENDMDL
MODEL 4
REMARK VINA RESULT:      -6.8      2.333      4.875
REMARK  Name = 
REMARK  14 active torsions:
REMARK  status: ('A' for Active; 'I' for Inactive)
REMARK    1  A    between atoms: C_1  and  N_2
REMARK    2  A    between atoms: N_2  and  C_3
REMARK    3  A    between atoms: N_2  and  C_4
REMARK    4  A    between atoms: C_4  and  C_5
REMARK    5  A    between atoms: C_5  and  C_6
REMARK    6  A    between atoms: C_6  and  C_7
REMARK    7  A    between atoms: C_7  and  C_8
REMARK    8  A    between atoms: C_8  and  C_9
REMARK    9  A    between atoms: C_9  and  C_10
REMARK   10  A    between atoms: C_10  and  C_11
REMARK   11  A    between atoms: C_11  and  C_12
REMARK   12  A    between atoms: C_12  and  C_13
REMARK   13  A    between atoms: C_13  and  N_14
REMARK   14  A    between atoms: N_14  and  C_15
REMARK                            x       y       z     vdW  Elec       q    Type
REMARK                         _______ _______ _______ _____ _____    ______ ____
ROOT
ATOM      1  N   UNL     1       3.249   6.775  19.596  0.00  0.00    +0.000 N 
ATOM      2  H   UNL     1       3.891   6.961  20.375  0.00  0.00    +0.000 HD
ENDROOT
BRANCH   1   3
ATOM      3  C   UNL     1       3.435   5.552  18.851  0.00  0.00    +0.000 A 
ATOM      4  C   UNL     1       2.616   4.372  19.017  0.00  0.00    +0.000 A 
ATOM      5  C   UNL     1       2.852   3.254  18.170  0.00  0.00    +0.000 A 
ATOM      6  N   UNL     1       3.871   3.272  17.283  0.00  0.00    +0.000 NA
ATOM      7  C   UNL     1       4.687   4.332  17.120  0.00  0.00    +0.000 A 
ATOM      8  C   UNL     1       5.723   4.244  16.182  0.00  0.00    +0.000 A 
ATOM      9  C   UNL     1       6.589   5.315  15.986  0.00  0.00    +0.000 A 
ATOM     10  C   UNL     1       6.419   6.486  16.716  0.00  0.00    +0.000 A 
ATOM     11  C   UNL     1       5.386   6.591  17.650  0.00  0.00    +0.000 A 
ATOM     12  C   UNL     1       4.489   5.512  17.879  0.00  0.00    +0.000 A 
ATOM     13  C   UNL     1       1.994   2.011  18.191  0.00  0.00    +0.000 C 
ATOM     14  C   UNL     1       0.657   2.200  18.910  0.00  0.00    +0.000 C 
ATOM     15  C   UNL     1       0.912   2.868  20.238  0.00  0.00    +0.000 C 
ATOM     16  C   UNL     1       1.477   4.276  20.024  0.00  0.00    +0.000 C 
ENDBRANCH   1   3
BRANCH   1  17
ATOM     17  C   UNL     1       2.160   7.731  19.460  0.00  0.00    +0.000 C 
BRANCH  17  18
ATOM     18  C   UNL     1       2.101   8.337  18.046  0.00  0.00    +0.000 C 
BRANCH  18  19
ATOM     19  C   UNL     1       1.258   9.628  17.989  0.00  0.00    +0.000 C 
BRANCH  19  20
ATOM     20  C   UNL     1       0.781  10.057  19.379  0.00  0.00    +0.000 C 
BRANCH  20  21
ATOM     21  C   UNL     1      -0.725  10.148  19.452  0.00  0.00    +0.000 C 
BRANCH  21  22
ATOM     22  C   UNL     1      -1.198  11.111  18.374  0.00  0.00    +0.000 C 
BRANCH  22  23
ATOM     23  C   UNL     1      -1.307  12.506  18.949  0.00  0.00    +0.000 C 
BRANCH  23  24
ATOM     24  C   UNL     1      -0.349  13.426  18.218  0.00  0.00    +0.000 C 
BRANCH  24  25
ATOM     25  C   UNL     1       0.834  13.762  19.120  0.00  0.00    +0.000 C 
BRANCH  25  26
ATOM     26  C   UNL     1       2.150  13.489  18.388  0.00  0.00    +0.000 C 
BRANCH  26  28
ATOM     27  C   UNL     1       2.393  15.902  18.818  0.00  0.00    +0.000 C 
ATOM     28  N   UNL     1       2.855  14.742  18.034  0.00  0.00    +0.000 NA
ATOM     29  C   UNL     1       4.303  14.566  18.199  0.00  0.00    +0.000 C 
ENDBRANCH  26  28
ENDBRANCH  25  26
ENDBRANCH  24  25
ENDBRANCH  23  24
ENDBRANCH  22  23
ENDBRANCH  21  22
ENDBRANCH  20  21
ENDBRANCH  19  20
ENDBRANCH  18  19
ENDBRANCH  17  18
ENDBRANCH   1  17
TORSDOF 12
ENDMDL
MODEL 5
REMARK VINA RESULT:      -6.8      4.785      8.127
REMARK  Name = 
REMARK  14 active torsions:
REMARK  status: ('A' for Active; 'I' for Inactive)
REMARK    1  A    between atoms: C_1  and  N_2
REMARK    2  A    between atoms: N_2  and  C_3
REMARK    3  A    between atoms: N_2  and  C_4
REMARK    4  A    between atoms: C_4  and  C_5
REMARK    5  A    between atoms: C_5  and  C_6
REMARK    6  A    between atoms: C_6  and  C_7
REMARK    7  A    between atoms: C_7  and  C_8
REMARK    8  A    between atoms: C_8  and  C_9
REMARK    9  A    between atoms: C_9  and  C_10
REMARK   10  A    between atoms: C_10  and  C_11
REMARK   11  A    between atoms: C_11  and  C_12
REMARK   12  A    between atoms: C_12  and  C_13
REMARK   13  A    between atoms: C_13  and  N_14
REMARK   14  A    between atoms: N_14  and  C_15
REMARK                            x       y       z     vdW  Elec       q    Type
REMARK                         _______ _______ _______ _____ _____    ______ ____
ROOT
ATOM      1  N   UNL     1       3.848   6.020  17.051  0.00  0.00    +0.000 N 
ATOM      2  H   UNL     1       3.406   5.583  16.235  0.00  0.00    +0.000 HD
ENDROOT
BRANCH   1   3
ATOM      3  C   UNL     1       3.086   6.079  18.275  0.00  0.00    +0.000 A 
ATOM      4  C   UNL     1       2.888   4.953  19.159  0.00  0.00    +0.000 A 
ATOM      5  C   UNL     1       2.179   5.156  20.376  0.00  0.00    +0.000 A 
ATOM      6  N   UNL     1       1.639   6.362  20.657  0.00  0.00    +0.000 NA
ATOM      7  C   UNL     1       1.761   7.432  19.847  0.00  0.00    +0.000 A 
ATOM      8  C   UNL     1       1.151   8.634  20.225  0.00  0.00    +0.000 A 
ATOM      9  C   UNL     1       1.251   9.760  19.414  0.00  0.00    +0.000 A 
ATOM     10  C   UNL     1       1.971   9.697  18.226  0.00  0.00    +0.000 A 
ATOM     11  C   UNL     1       2.590   8.506  17.840  0.00  0.00    +0.000 A 
ATOM     12  C   UNL     1       2.501   7.337  18.642  0.00  0.00    +0.000 A 
ATOM     13  C   UNL     1       2.001   4.075  21.415  0.00  0.00    +0.000 C 
ATOM     14  C   UNL     1       2.944   2.884  21.230  0.00  0.00    +0.000 C 
ATOM     15  C   UNL     1       2.899   2.450  19.787  0.00  0.00    +0.000 C 
ATOM     16  C   UNL     1       3.440   3.560  18.881  0.00  0.00    +0.000 C 
ENDBRANCH   1   3
BRANCH   1  17
ATOM     17  C   UNL     1       5.242   6.394  16.863  0.00  0.00    +0.000 C 
BRANCH  17  18
ATOM     18  C   UNL     1       6.080   6.141  18.129  0.00  0.00    +0.000 C 
BRANCH  18  19
ATOM     19  C   UNL     1       7.568   6.505  17.938  0.00  0.00    +0.000 C 
BRANCH  19  20
ATOM     20  C   UNL     1       7.754   7.994  17.632  0.00  0.00    +0.000 C 
BRANCH  20  21
ATOM     21  C   UNL     1       8.649   8.666  18.646  0.00  0.00    +0.000 C 
BRANCH  21  22
ATOM     22  C   UNL     1       8.747  10.142  18.292  0.00  0.00    +0.000 C 
BRANCH  22  23
ATOM     23  C   UNL     1       9.671  10.839  19.266  0.00  0.00    +0.000 C 
BRANCH  23  24
ATOM     24  C   UNL     1      10.855  11.412  18.511  0.00  0.00    +0.000 C 
BRANCH  24  25
ATOM     25  C   UNL     1      10.885  12.929  18.672  0.00  0.00    +0.000 C 
BRANCH  25  26
ATOM     26  C   UNL     1       9.969  13.587  17.637  0.00  0.00    +0.000 C 
BRANCH  26  28
ATOM     27  C   UNL     1       9.404  15.984  17.718  0.00  0.00    +0.000 C 
ATOM     28  N   UNL     1       9.117  14.636  18.243  0.00  0.00    +0.000 NA
ATOM     29  C   UNL     1       7.701  14.308  18.046  0.00  0.00    +0.000 C 
ENDBRANCH  26  28
ENDBRANCH  25  26
ENDBRANCH  24  25
ENDBRANCH  23  24
ENDBRANCH  22  23
ENDBRANCH  21  22
ENDBRANCH  20  21
ENDBRANCH  19  20
ENDBRANCH  18  19
ENDBRANCH  17  18
ENDBRANCH   1  17
TORSDOF 12
ENDMDL
MODEL 6
REMARK VINA RESULT:      -6.8      5.109      8.720
REMARK  Name = 
REMARK  14 active torsions:
REMARK  status: ('A' for Active; 'I' for Inactive)
REMARK    1  A    between atoms: C_1  and  N_2
REMARK    2  A    between atoms: N_2  and  C_3
REMARK    3  A    between atoms: N_2  and  C_4
REMARK    4  A    between atoms: C_4  and  C_5
REMARK    5  A    between atoms: C_5  and  C_6
REMARK    6  A    between atoms: C_6  and  C_7
REMARK    7  A    between atoms: C_7  and  C_8
REMARK    8  A    between atoms: C_8  and  C_9
REMARK    9  A    between atoms: C_9  and  C_10
REMARK   10  A    between atoms: C_10  and  C_11
REMARK   11  A    between atoms: C_11  and  C_12
REMARK   12  A    between atoms: C_12  and  C_13
REMARK   13  A    between atoms: C_13  and  N_14
REMARK   14  A    between atoms: N_14  and  C_15
REMARK                            x       y       z     vdW  Elec       q    Type
REMARK                         _______ _______ _______ _____ _____    ______ ____
ROOT
ATOM      1  N   UNL     1       3.930   6.181  17.106  0.00  0.00    +0.000 N 
ATOM      2  H   UNL     1       3.559   5.694  16.282  0.00  0.00    +0.000 HD
ENDROOT
BRANCH   1   3
ATOM      3  C   UNL     1       3.142   6.150  18.315  0.00  0.00    +0.000 A 
ATOM      4  C   UNL     1       2.986   4.979  19.148  0.00  0.00    +0.000 A 
ATOM      5  C   UNL     1       2.243   5.095  20.356  0.00  0.00    +0.000 A 
ATOM      6  N   UNL     1       1.635   6.259  20.673  0.00  0.00    +0.000 NA
ATOM      7  C   UNL     1       1.717   7.367  19.910  0.00  0.00    +0.000 A 
ATOM      8  C   UNL     1       1.037   8.518  20.323  0.00  0.00    +0.000 A 
ATOM      9  C   UNL     1       1.094   9.681  19.560  0.00  0.00    +0.000 A 
ATOM     10  C   UNL     1       1.840   9.704  18.387  0.00  0.00    +0.000 A 
ATOM     11  C   UNL     1       2.528   8.564  17.967  0.00  0.00    +0.000 A 
ATOM     12  C   UNL     1       2.485   7.360  18.719  0.00  0.00    +0.000 A 
ATOM     13  C   UNL     1       2.101   3.964  21.347  0.00  0.00    +0.000 C 
ATOM     14  C   UNL     1       3.109   2.832  21.135  0.00  0.00    +0.000 C 
ATOM     15  C   UNL     1       3.115   2.456  19.675  0.00  0.00    +0.000 C 
ATOM     16  C   UNL     1       3.615   3.629  18.826  0.00  0.00    +0.000 C 
ENDBRANCH   1   3
BRANCH   1  17
ATOM     17  C   UNL     1       5.274   6.716  16.945  0.00  0.00    +0.000 C 
BRANCH  17  18
ATOM     18  C   UNL     1       6.349   5.724  17.426  0.00  0.00    +0.000 C 
BRANCH  18  19
ATOM     19  C   UNL     1       7.638   6.429  17.897  0.00  0.00    +0.000 C 
BRANCH  19  20
ATOM     20  C   UNL     1       7.612   7.928  17.587  0.00  0.00    +0.000 C 
BRANCH  20  21
ATOM     21  C   UNL     1       8.475   8.714  18.546  0.00  0.00    +0.000 C 
BRANCH  21  22
ATOM     22  C   UNL     1       8.491  10.165  18.095  0.00  0.00    +0.000 C 
BRANCH  22  23
ATOM     23  C   UNL     1       9.888  10.729  18.240  0.00  0.00    +0.000 C 
BRANCH  23  24
ATOM     24  C   UNL     1      10.000  11.457  19.565  0.00  0.00    +0.000 C 
BRANCH  24  25
ATOM     25  C   UNL     1      11.444  11.895  19.792  0.00  0.00    +0.000 C 
BRANCH  25  26
ATOM     26  C   UNL     1      11.962  12.658  18.571  0.00  0.00    +0.000 C 
BRANCH  26  28
ATOM     27  C   UNL     1      11.832  14.870  19.649  0.00  0.00    +0.000 C 
ATOM     28  N   UNL     1      11.416  14.034  18.508  0.00  0.00    +0.000 NA
ATOM     29  C   UNL     1      11.808  14.671  17.246  0.00  0.00    +0.000 C 
ENDBRANCH  26  28
ENDBRANCH  25  26
ENDBRANCH  24  25
ENDBRANCH  23  24
ENDBRANCH  22  23
ENDBRANCH  21  22
ENDBRANCH  20  21
ENDBRANCH  19  20
ENDBRANCH  18  19
ENDBRANCH  17  18
ENDBRANCH   1  17
TORSDOF 12
ENDMDL
MODEL 7
REMARK VINA RESULT:      -6.7      2.427      4.651
REMARK  Name = 
REMARK  14 active torsions:
REMARK  status: ('A' for Active; 'I' for Inactive)
REMARK    1  A    between atoms: C_1  and  N_2
REMARK    2  A    between atoms: N_2  and  C_3
REMARK    3  A    between atoms: N_2  and  C_4
REMARK    4  A    between atoms: C_4  and  C_5
REMARK    5  A    between atoms: C_5  and  C_6
REMARK    6  A    between atoms: C_6  and  C_7
REMARK    7  A    between atoms: C_7  and  C_8
REMARK    8  A    between atoms: C_8  and  C_9
REMARK    9  A    between atoms: C_9  and  C_10
REMARK   10  A    between atoms: C_10  and  C_11
REMARK   11  A    between atoms: C_11  and  C_12
REMARK   12  A    between atoms: C_12  and  C_13
REMARK   13  A    between atoms: C_13  and  N_14
REMARK   14  A    between atoms: N_14  and  C_15
REMARK                            x       y       z     vdW  Elec       q    Type
REMARK                         _______ _______ _______ _____ _____    ______ ____
ROOT
ATOM      1  N   UNL     1       3.013   6.969  19.679  0.00  0.00    +0.000 N 
ATOM      2  H   UNL     1       3.796   7.264  20.272  0.00  0.00    +0.000 HD
ENDROOT
BRANCH   1   3
ATOM      3  C   UNL     1       3.140   5.718  18.971  0.00  0.00    +0.000 A 
ATOM      4  C   UNL     1       2.468   4.498  19.358  0.00  0.00    +0.000 A 
ATOM      5  C   UNL     1       2.616   3.347  18.535  0.00  0.00    +0.000 A 
ATOM      6  N   UNL     1       3.432   3.378  17.458  0.00  0.00    +0.000 NA
ATOM      7  C   UNL     1       4.112   4.478  17.080  0.00  0.00    +0.000 A 
ATOM      8  C   UNL     1       4.942   4.401  15.956  0.00  0.00    +0.000 A 
ATOM      9  C   UNL     1       5.663   5.514  15.535  0.00  0.00    +0.000 A 
ATOM     10  C   UNL     1       5.552   6.714  16.228  0.00  0.00    +0.000 A 
ATOM     11  C   UNL     1       4.723   6.808  17.348  0.00  0.00    +0.000 A 
ATOM     12  C   UNL     1       3.978   5.688  17.806  0.00  0.00    +0.000 A 
ATOM     13  C   UNL     1       1.880   2.053  18.791  0.00  0.00    +0.000 C 
ATOM     14  C   UNL     1       0.704   2.196  19.759  0.00  0.00    +0.000 C 
ATOM     15  C   UNL     1       1.167   2.962  20.972  0.00  0.00    +0.000 C 
ATOM     16  C   UNL     1       1.565   4.389  20.581  0.00  0.00    +0.000 C 
ENDBRANCH   1   3
BRANCH   1  17
ATOM     17  C   UNL     1       1.832   7.817  19.760  0.00  0.00    +0.000 C 
BRANCH  17  18
ATOM     18  C   UNL     1       1.441   8.120  21.217  0.00  0.00    +0.000 C 
BRANCH  18  19
ATOM     19  C   UNL     1      -0.001   8.654  21.346  0.00  0.00    +0.000 C 
BRANCH  19  20
ATOM     20  C   UNL     1      -0.035  10.060  21.950  0.00  0.00    +0.000 C 
BRANCH  20  21
ATOM     21  C   UNL     1      -0.363  11.108  20.913  0.00  0.00    +0.000 C 
BRANCH  21  22
ATOM     22  C   UNL     1      -1.400  12.053  21.499  0.00  0.00    +0.000 C 
BRANCH  22  23
ATOM     23  C   UNL     1      -1.520  11.816  22.989  0.00  0.00    +0.000 C 
BRANCH  23  24
ATOM     24  C   UNL     1      -2.949  12.075  23.424  0.00  0.00    +0.000 C 
BRANCH  24  25
ATOM     25  C   UNL     1      -3.651  12.954  22.394  0.00  0.00    +0.000 C 
BRANCH  25  26
ATOM     26  C   UNL     1      -5.117  13.157  22.786  0.00  0.00    +0.000 C 
BRANCH  26  28
ATOM     27  C   UNL     1      -7.443  12.520  22.283  0.00  0.00    +0.000 C 
ATOM     28  N   UNL     1      -6.014  12.227  22.065  0.00  0.00    +0.000 NA
ATOM     29  C   UNL     1      -5.708  12.247  20.630  0.00  0.00    +0.000 C 
ENDBRANCH  26  28
ENDBRANCH  25  26
ENDBRANCH  24  25
ENDBRANCH  23  24
ENDBRANCH  22  23
ENDBRANCH  21  22
ENDBRANCH  20  21
ENDBRANCH  19  20
ENDBRANCH  18  19
ENDBRANCH  17  18
ENDBRANCH   1  17
TORSDOF 12
ENDMDL
MODEL 8
REMARK VINA RESULT:      -6.7      2.413      2.986
REMARK  Name = 
REMARK  14 active torsions:
REMARK  status: ('A' for Active; 'I' for Inactive)
REMARK    1  A    between atoms: C_1  and  N_2
REMARK    2  A    between atoms: N_2  and  C_3
REMARK    3  A    between atoms: N_2  and  C_4
REMARK    4  A    between atoms: C_4  and  C_5
REMARK    5  A    between atoms: C_5  and  C_6
REMARK    6  A    between atoms: C_6  and  C_7
REMARK    7  A    between atoms: C_7  and  C_8
REMARK    8  A    between atoms: C_8  and  C_9
REMARK    9  A    between atoms: C_9  and  C_10
REMARK   10  A    between atoms: C_10  and  C_11
REMARK   11  A    between atoms: C_11  and  C_12
REMARK   12  A    between atoms: C_12  and  C_13
REMARK   13  A    between atoms: C_13  and  N_14
REMARK   14  A    between atoms: N_14  and  C_15
REMARK                            x       y       z     vdW  Elec       q    Type
REMARK                         _______ _______ _______ _____ _____    ______ ____
ROOT
ATOM      1  N   UNL     1       2.964   7.135  18.782  0.00  0.00    +0.000 N 
ATOM      2  H   UNL     1       3.419   7.501  19.626  0.00  0.00    +0.000 HD
ENDROOT
BRANCH   1   3
ATOM      3  C   UNL     1       3.282   5.786  18.379  0.00  0.00    +0.000 A 
ATOM      4  C   UNL     1       4.188   5.456  17.302  0.00  0.00    +0.000 A 
ATOM      5  C   UNL     1       4.477   4.086  17.049  0.00  0.00    +0.000 A 
ATOM      6  N   UNL     1       3.854   3.116  17.754  0.00  0.00    +0.000 NA
ATOM      7  C   UNL     1       2.972   3.371  18.740  0.00  0.00    +0.000 A 
ATOM      8  C   UNL     1       2.372   2.293  19.400  0.00  0.00    +0.000 A 
ATOM      9  C   UNL     1       1.453   2.515  20.421  0.00  0.00    +0.000 A 
ATOM     10  C   UNL     1       1.135   3.815  20.797  0.00  0.00    +0.000 A 
ATOM     11  C   UNL     1       1.731   4.901  20.151  0.00  0.00    +0.000 A 
ATOM     12  C   UNL     1       2.668   4.708  19.100  0.00  0.00    +0.000 A 
ATOM     13  C   UNL     1       5.483   3.635  16.017  0.00  0.00    +0.000 C 
ATOM     14  C   UNL     1       6.418   4.749  15.543  0.00  0.00    +0.000 C 
ATOM     15  C   UNL     1       5.591   5.961  15.196  0.00  0.00    +0.000 C 
ATOM     16  C   UNL     1       4.892   6.503  16.447  0.00  0.00    +0.000 C 
ENDBRANCH   1   3
BRANCH   1  17
ATOM     17  C   UNL     1       1.958   8.013  18.202  0.00  0.00    +0.000 C 
BRANCH  17  18
ATOM     18  C   UNL     1       1.458   9.061  19.213  0.00  0.00    +0.000 C 
BRANCH  18  19
ATOM     19  C   UNL     1       1.244   8.471  20.622  0.00  0.00    +0.000 C 
BRANCH  19  20
ATOM     20  C   UNL     1      -0.099   8.898  21.219  0.00  0.00    +0.000 C 
BRANCH  20  21
ATOM     21  C   UNL     1       0.074   9.592  22.549  0.00  0.00    +0.000 C 
BRANCH  21  22
ATOM     22  C   UNL     1      -0.418  11.024  22.409  0.00  0.00    +0.000 C 
BRANCH  22  23
ATOM     23  C   UNL     1      -1.034  11.219  21.041  0.00  0.00    +0.000 C 
BRANCH  23  24
ATOM     24  C   UNL     1      -0.598  12.560  20.481  0.00  0.00    +0.000 C 
BRANCH  24  25
ATOM     25  C   UNL     1       0.813  12.448  19.912  0.00  0.00    +0.000 C 
BRANCH  25  26
ATOM     26  C   UNL     1       1.712  13.530  20.515  0.00  0.00    +0.000 C 
BRANCH  26  28
ATOM     27  C   UNL     1       2.912  13.552  18.364  0.00  0.00    +0.000 C 
ATOM     28  N   UNL     1       2.359  14.355  19.470  0.00  0.00    +0.000 NA
ATOM     29  C   UNL     1       1.405  15.341  18.949  0.00  0.00    +0.000 C 
ENDBRANCH  26  28
ENDBRANCH  25  26
ENDBRANCH  24  25
ENDBRANCH  23  24
ENDBRANCH  22  23
ENDBRANCH  21  22
ENDBRANCH  20  21
ENDBRANCH  19  20
ENDBRANCH  18  19
ENDBRANCH  17  18
ENDBRANCH   1  17
TORSDOF 12
ENDMDL
MODEL 9
REMARK VINA RESULT:      -6.7      2.156      3.156
REMARK  Name = 
REMARK  14 active torsions:
REMARK  status: ('A' for Active; 'I' for Inactive)
REMARK    1  A    between atoms: C_1  and  N_2
REMARK    2  A    between atoms: N_2  and  C_3
REMARK    3  A    between atoms: N_2  and  C_4
REMARK    4  A    between atoms: C_4  and  C_5
REMARK    5  A    between atoms: C_5  and  C_6
REMARK    6  A    between atoms: C_6  and  C_7
REMARK    7  A    between atoms: C_7  and  C_8
REMARK    8  A    between atoms: C_8  and  C_9
REMARK    9  A    between atoms: C_9  and  C_10
REMARK   10  A    between atoms: C_10  and  C_11
REMARK   11  A    between atoms: C_11  and  C_12
REMARK   12  A    between atoms: C_12  and  C_13
REMARK   13  A    between atoms: C_13  and  N_14
REMARK   14  A    between atoms: N_14  and  C_15
REMARK                            x       y       z     vdW  Elec       q    Type
REMARK                         _______ _______ _______ _____ _____    ______ ____
ROOT
ATOM      1  N   UNL     1       3.629   7.307  18.212  0.00  0.00    +0.000 N 
ATOM      2  H   UNL     1       4.073   7.656  19.068  0.00  0.00    +0.000 HD
ENDROOT
BRANCH   1   3
ATOM      3  C   UNL     1       3.669   5.886  17.966  0.00  0.00    +0.000 A 
ATOM      4  C   UNL     1       4.469   5.265  16.934  0.00  0.00    +0.000 A 
ATOM      5  C   UNL     1       4.480   3.845  16.840  0.00  0.00    +0.000 A 
ATOM      6  N   UNL     1       3.697   3.102  17.653  0.00  0.00    +0.000 NA
ATOM      7  C   UNL     1       2.904   3.635  18.603  0.00  0.00    +0.000 A 
ATOM      8  C   UNL     1       2.122   2.776  19.383  0.00  0.00    +0.000 A 
ATOM      9  C   UNL     1       1.287   3.287  20.372  0.00  0.00    +0.000 A 
ATOM     10  C   UNL     1       1.238   4.658  20.596  0.00  0.00    +0.000 A 
ATOM     11  C   UNL     1       2.017   5.527  19.829  0.00  0.00    +0.000 A 
ATOM     12  C   UNL     1       2.874   5.037  18.808  0.00  0.00    +0.000 A 
ATOM     13  C   UNL     1       5.354   3.093  15.866  0.00  0.00    +0.000 C 
ATOM     14  C   UNL     1       6.477   3.941  15.265  0.00  0.00    +0.000 C 
ATOM     15  C   UNL     1       5.893   5.245  14.783  0.00  0.00    +0.000 C 
ATOM     16  C   UNL     1       5.343   6.050  15.963  0.00  0.00    +0.000 C 
ENDBRANCH   1   3
BRANCH   1  17
ATOM     17  C   UNL     1       2.908   8.312  17.445  0.00  0.00    +0.000 C 
BRANCH  17  18
ATOM     18  C   UNL     1       1.469   8.503  17.958  0.00  0.00    +0.000 C 
BRANCH  18  19
ATOM     19  C   UNL     1       1.198   9.943  18.442  0.00  0.00    +0.000 C 
BRANCH  19  20
ATOM     20  C   UNL     1       0.368   9.964  19.728  0.00  0.00    +0.000 C 
BRANCH  20  21
ATOM     21  C   UNL     1       0.832   8.916  20.711  0.00  0.00    +0.000 C 
BRANCH  21  22
ATOM     22  C   UNL     1      -0.212   8.796  21.810  0.00  0.00    +0.000 C 
BRANCH  22  23
ATOM     23  C   UNL     1       0.083   9.799  22.904  0.00  0.00    +0.000 C 
BRANCH  23  24
ATOM     24  C   UNL     1      -1.208  10.467  23.334  0.00  0.00    +0.000 C 
BRANCH  24  25
ATOM     25  C   UNL     1      -1.268  11.884  22.771  0.00  0.00    +0.000 C 
BRANCH  25  26
ATOM     26  C   UNL     1      -2.669  12.469  22.966  0.00  0.00    +0.000 C 
BRANCH  26  28
ATOM     27  C   UNL     1      -4.273  13.762  21.615  0.00  0.00    +0.000 C 
ATOM     28  N   UNL     1      -3.408  12.570  21.687  0.00  0.00    +0.000 NA
ATOM     29  C   UNL     1      -2.465  12.562  20.562  0.00  0.00    +0.000 C 
ENDBRANCH  26  28
ENDBRANCH  25  26
ENDBRANCH  24  25
ENDBRANCH  23  24
ENDBRANCH  22  23
ENDBRANCH  21  22
ENDBRANCH  20  21
ENDBRANCH  19  20
ENDBRANCH  18  19
ENDBRANCH  17  18
ENDBRANCH   1  17
TORSDOF 12
ENDMDL
