MODEL 1
REMARK VINA RESULT:      -7.8      0.000      0.000
REMARK  Name = 
REMARK  2 active torsions:
REMARK  status: ('A' for Active; 'I' for Inactive)
REMARK    1  A    between atoms: C_2  and  C_3
REMARK    2  A    between atoms: C_9  and  C_10
REMARK                            x       y       z     vdW  Elec       q    Type
REMARK                         _______ _______ _______ _____ _____    ______ ____
ROOT
ATOM      1  C   UNL     1       2.196   7.333  19.344  0.00  0.00    +0.000 A 
ATOM      2  C   UNL     1       1.883   7.271  20.698  0.00  0.00    +0.000 A 
ATOM      3  N   UNL     1       1.177   8.227  21.387  0.00  0.00    +0.000 NA
ATOM      4  C   UNL     1       0.778   9.353  20.735  0.00  0.00    +0.000 A 
ATOM      5  C   UNL     1       1.087   9.508  19.390  0.00  0.00    +0.000 A 
ATOM      6  C   UNL     1       1.779   8.493  18.711  0.00  0.00    +0.000 A 
ATOM      7  C   UNL     1       0.788  10.715  18.575  0.00  0.00    +0.000 C 
ATOM      8  C   UNL     1      -0.001  11.794  19.254  0.00  0.00    +0.000 C 
ATOM      9  C   UNL     1      -0.386  11.567  20.700  0.00  0.00    +0.000 C 
ATOM     10  N   UNL     1       0.046  10.374  21.412  0.00  0.00    +0.000 N 
ATOM     11  C   UNL     1      -0.386  10.345  22.734  0.00  0.00    +0.000 C 
ATOM     12  N   UNL     1      -0.038   9.295  23.501  0.00  0.00    +0.000 N 
ATOM     13  O   UNL     1      -1.068  11.234  23.250  0.00  0.00    +0.000 OA
ATOM     14  H   UNL     1      -0.494   9.231  24.400  0.00  0.00    +0.000 HD
ATOM     15  H   UNL     1       0.286   8.453  23.041  0.00  0.00    +0.000 HD
ENDROOT
BRANCH   1  22
ATOM     16  C   UNL     1       2.650   4.930  18.617  0.00  0.00    +0.000 A 
ATOM     17  C   UNL     1       3.348   4.036  17.793  0.00  0.00    +0.000 A 
ATOM     18 CL   UNL     1       3.054   2.336  17.780  0.00  0.00    +0.000 Cl
ATOM     19  C   UNL     1       4.310   4.549  16.940  0.00  0.00    +0.000 A 
ATOM     20  N   UNL     1       4.605   5.864  16.849  0.00  0.00    +0.000 NA
ATOM     21  C   UNL     1       3.919   6.710  17.657  0.00  0.00    +0.000 A 
ATOM     22  C   UNL     1       2.945   6.319  18.577  0.00  0.00    +0.000 A 
BRANCH  16  24
ATOM     23  N   UNL     1       0.767   3.971  20.131  0.00  0.00    +0.000 NA
ATOM     24  C   UNL     1       1.602   4.425  19.462  0.00  0.00    +0.000 C 
ENDBRANCH  16  24
ENDBRANCH   1  22
TORSDOF 2
ENDMDL
MODEL 2
REMARK VINA RESULT:      -7.6      1.545      2.421
REMARK  Name = 
REMARK  2 active torsions:
REMARK  status: ('A' for Active; 'I' for Inactive)
REMARK    1  A    between atoms: C_2  and  C_3
REMARK    2  A    between atoms: C_9  and  C_10
REMARK                            x       y       z     vdW  Elec       q    Type
REMARK                         _______ _______ _______ _____ _____    ______ ____
ROOT
ATOM      1  C   UNL     1       2.512   7.539  18.460  0.00  0.00    +0.000 A 
ATOM      2  C   UNL     1       1.890   8.521  17.697  0.00  0.00    +0.000 A 
ATOM      3  N   UNL     1       1.078   9.510  18.195  0.00  0.00    +0.000 NA
ATOM      4  C   UNL     1       0.804   9.531  19.529  0.00  0.00    +0.000 A 
ATOM      5  C   UNL     1       1.356   8.560  20.354  0.00  0.00    +0.000 A 
ATOM      6  C   UNL     1       2.210   7.586  19.812  0.00  0.00    +0.000 A 
ATOM      7  C   UNL     1       1.081   8.411  21.807  0.00  0.00    +0.000 C 
ATOM      8  C   UNL     1       0.218   9.469  22.429  0.00  0.00    +0.000 C 
ATOM      9  C   UNL     1      -0.311  10.557  21.519  0.00  0.00    +0.000 C 
ATOM     10  N   UNL     1      -0.037  10.537  20.091  0.00  0.00    +0.000 N 
ATOM     11  C   UNL     1      -0.618  11.604  19.413  0.00  0.00    +0.000 C 
ATOM     12  N   UNL     1      -0.447  11.689  18.081  0.00  0.00    +0.000 N 
ATOM     13  O   UNL     1      -1.291  12.479  19.963  0.00  0.00    +0.000 OA
ATOM     14  H   UNL     1      -0.748  12.551  17.648  0.00  0.00    +0.000 HD
ATOM     15  H   UNL     1       0.298  11.149  17.659  0.00  0.00    +0.000 HD
ENDROOT
BRANCH   1  22
ATOM     16  C   UNL     1       3.147   5.087  18.156  0.00  0.00    +0.000 A 
ATOM     17  C   UNL     1       3.983   4.127  17.567  0.00  0.00    +0.000 A 
ATOM     18 CL   UNL     1       3.755   2.428  17.764  0.00  0.00    +0.000 Cl
ATOM     19  C   UNL     1       5.032   4.568  16.781  0.00  0.00    +0.000 A 
ATOM     20  N   UNL     1       5.289   5.872  16.539  0.00  0.00    +0.000 NA
ATOM     21  C   UNL     1       4.470   6.783  17.119  0.00  0.00    +0.000 A 
ATOM     22  C   UNL     1       3.394   6.471  17.952  0.00  0.00    +0.000 A 
BRANCH  16  24
ATOM     23  N   UNL     1       1.114   4.247  19.541  0.00  0.00    +0.000 NA
ATOM     24  C   UNL     1       2.012   4.647  18.922  0.00  0.00    +0.000 C 
ENDBRANCH  16  24
ENDBRANCH   1  22
TORSDOF 2
ENDMDL
MODEL 3
REMARK VINA RESULT:      -7.5      3.724      7.282
REMARK  Name = 
REMARK  2 active torsions:
REMARK  status: ('A' for Active; 'I' for Inactive)
REMARK    1  A    between atoms: C_2  and  C_3
REMARK    2  A    between atoms: C_9  and  C_10
REMARK                            x       y       z     vdW  Elec       q    Type
REMARK                         _______ _______ _______ _____ _____    ______ ____
ROOT
ATOM      1  C   UNL     1       1.417   7.958  20.458  0.00  0.00    +0.000 A 
ATOM      2  C   UNL     1       2.274   8.083  19.370  0.00  0.00    +0.000 A 
ATOM      3  N   UNL     1       2.886   7.037  18.725  0.00  0.00    +0.000 NA
ATOM      4  C   UNL     1       2.695   5.771  19.189  0.00  0.00    +0.000 A 
ATOM      5  C   UNL     1       1.884   5.566  20.297  0.00  0.00    +0.000 A 
ATOM      6  C   UNL     1       1.247   6.658  20.908  0.00  0.00    +0.000 A 
ATOM      7  C   UNL     1       1.652   4.256  20.960  0.00  0.00    +0.000 C 
ATOM      8  C   UNL     1       2.272   3.061  20.299  0.00  0.00    +0.000 C 
ATOM      9  C   UNL     1       3.092   3.306  19.051  0.00  0.00    +0.000 C 
ATOM     10  N   UNL     1       3.314   4.654  18.553  0.00  0.00    +0.000 N 
ATOM     11  C   UNL     1       4.106   4.686  17.409  0.00  0.00    +0.000 C 
ATOM     12  N   UNL     1       4.394   5.880  16.860  0.00  0.00    +0.000 N 
ATOM     13  O   UNL     1       4.567   3.678  16.869  0.00  0.00    +0.000 OA
ATOM     14  H   UNL     1       4.835   5.858  15.952  0.00  0.00    +0.000 HD
ATOM     15  H   UNL     1       3.825   6.677  17.121  0.00  0.00    +0.000 HD
ENDROOT
BRANCH   1  22
ATOM     16  C   UNL     1      -0.094  10.013  20.517  0.00  0.00    +0.000 A 
ATOM     17  C   UNL     1      -0.775  10.982  21.268  0.00  0.00    +0.000 A 
ATOM     18 CL   UNL     1      -1.805  12.172  20.562  0.00  0.00    +0.000 Cl
ATOM     19  C   UNL     1      -0.619  10.972  22.642  0.00  0.00    +0.000 A 
ATOM     20  N   UNL     1       0.143  10.072  23.302  0.00  0.00    +0.000 NA
ATOM     21  C   UNL     1       0.793   9.145  22.557  0.00  0.00    +0.000 A 
ATOM     22  C   UNL     1       0.740   9.063  21.164  0.00  0.00    +0.000 A 
BRANCH  16  24
ATOM     23  N   UNL     1      -0.485   9.970  17.947  0.00  0.00    +0.000 NA
ATOM     24  C   UNL     1      -0.296   9.966  19.094  0.00  0.00    +0.000 C 
ENDBRANCH  16  24
ENDBRANCH   1  22
TORSDOF 2
ENDMDL
MODEL 4
REMARK VINA RESULT:      -7.4      2.124      3.434
REMARK  Name = 
REMARK  2 active torsions:
REMARK  status: ('A' for Active; 'I' for Inactive)
REMARK    1  A    between atoms: C_2  and  C_3
REMARK    2  A    between atoms: C_9  and  C_10
REMARK                            x       y       z     vdW  Elec       q    Type
REMARK                         _______ _______ _______ _____ _____    ______ ____
ROOT
ATOM      1  C   UNL     1       2.584   7.080  18.319  0.00  0.00    +0.000 A 
ATOM      2  C   UNL     1       2.435   8.255  17.589  0.00  0.00    +0.000 A 
ATOM      3  N   UNL     1       1.948   9.436  18.090  0.00  0.00    +0.000 NA
ATOM      4  C   UNL     1       1.528   9.483  19.385  0.00  0.00    +0.000 A 
ATOM      5  C   UNL     1       1.607   8.340  20.169  0.00  0.00    +0.000 A 
ATOM      6  C   UNL     1       2.145   7.160  19.631  0.00  0.00    +0.000 A 
ATOM      7  C   UNL     1       1.113   8.222  21.566  0.00  0.00    +0.000 C 
ATOM      8  C   UNL     1       0.586   9.480  22.190  0.00  0.00    +0.000 C 
ATOM      9  C   UNL     1       0.578  10.728  21.335  0.00  0.00    +0.000 C 
ATOM     10  N   UNL     1       1.011  10.688  19.946  0.00  0.00    +0.000 N 
ATOM     11  C   UNL     1       0.918  11.924  19.313  0.00  0.00    +0.000 C 
ATOM     12  N   UNL     1       1.278  12.012  18.020  0.00  0.00    +0.000 N 
ATOM     13  O   UNL     1       0.515  12.948  19.870  0.00  0.00    +0.000 OA
ATOM     14  H   UNL     1       1.345  12.946  17.640  0.00  0.00    +0.000 HD
ATOM     15  H   UNL     1       1.845  11.269  17.629  0.00  0.00    +0.000 HD
ENDROOT
BRANCH   1  22
ATOM     16  C   UNL     1       4.426   5.642  17.294  0.00  0.00    +0.000 A 
ATOM     17  C   UNL     1       4.886   4.375  16.910  0.00  0.00    +0.000 A 
ATOM     18 CL   UNL     1       6.467   4.097  16.274  0.00  0.00    +0.000 Cl
ATOM     19  C   UNL     1       4.034   3.296  17.061  0.00  0.00    +0.000 A 
ATOM     20  N   UNL     1       2.786   3.395  17.570  0.00  0.00    +0.000 NA
ATOM     21  C   UNL     1       2.361   4.629  17.933  0.00  0.00    +0.000 A 
ATOM     22  C   UNL     1       3.111   5.799  17.809  0.00  0.00    +0.000 A 
BRANCH  16  24
ATOM     23  N   UNL     1       6.066   7.650  17.098  0.00  0.00    +0.000 NA
ATOM     24  C   UNL     1       5.321   6.765  17.206  0.00  0.00    +0.000 C 
ENDBRANCH  16  24
ENDBRANCH   1  22
TORSDOF 2
ENDMDL
MODEL 5
REMARK VINA RESULT:      -7.1      1.481      2.421
REMARK  Name = 
REMARK  2 active torsions:
REMARK  status: ('A' for Active; 'I' for Inactive)
REMARK    1  A    between atoms: C_2  and  C_3
REMARK    2  A    between atoms: C_9  and  C_10
REMARK                            x       y       z     vdW  Elec       q    Type
REMARK                         _______ _______ _______ _____ _____    ______ ____
ROOT
ATOM      1  C   UNL     1       2.323   6.462  18.820  0.00  0.00    +0.000 A 
ATOM      2  C   UNL     1       1.957   6.552  20.159  0.00  0.00    +0.000 A 
ATOM      3  N   UNL     1       1.495   7.688  20.776  0.00  0.00    +0.000 NA
ATOM      4  C   UNL     1       1.420   8.845  20.061  0.00  0.00    +0.000 A 
ATOM      5  C   UNL     1       1.805   8.847  18.727  0.00  0.00    +0.000 A 
ATOM      6  C   UNL     1       2.238   7.657  18.122  0.00  0.00    +0.000 A 
ATOM      7  C   UNL     1       1.853  10.047  17.850  0.00  0.00    +0.000 C 
ATOM      8  C   UNL     1       1.342  11.324  18.448  0.00  0.00    +0.000 C 
ATOM      9  C   UNL     1       0.861  11.276  19.882  0.00  0.00    +0.000 C 
ATOM     10  N   UNL     1       0.950  10.050  20.661  0.00  0.00    +0.000 N 
ATOM     11  C   UNL     1       0.478  10.199  21.962  0.00  0.00    +0.000 C 
ATOM     12  N   UNL     1       0.520   9.136  22.786  0.00  0.00    +0.000 N 
ATOM     13  O   UNL     1       0.029  11.257  22.409  0.00  0.00    +0.000 OA
ATOM     14  H   UNL     1       0.032   9.236  23.665  0.00  0.00    +0.000 HD
ATOM     15  H   UNL     1       0.634   8.217  22.376  0.00  0.00    +0.000 HD
ENDROOT
BRANCH   1  22
ATOM     16  C   UNL     1       4.073   5.183  17.475  0.00  0.00    +0.000 A 
ATOM     17  C   UNL     1       4.510   3.973  16.918  0.00  0.00    +0.000 A 
ATOM     18 CL   UNL     1       6.022   3.800  16.104  0.00  0.00    +0.000 Cl
ATOM     19  C   UNL     1       3.693   2.864  17.041  0.00  0.00    +0.000 A 
ATOM     20  N   UNL     1       2.502   2.879  17.678  0.00  0.00    +0.000 NA
ATOM     21  C   UNL     1       2.098   4.059  18.208  0.00  0.00    +0.000 A 
ATOM     22  C   UNL     1       2.815   5.254  18.131  0.00  0.00    +0.000 A 
BRANCH  16  24
ATOM     23  N   UNL     1       5.674   7.227  17.362  0.00  0.00    +0.000 NA
ATOM     24  C   UNL     1       4.937   6.330  17.416  0.00  0.00    +0.000 C 
ENDBRANCH  16  24
ENDBRANCH   1  22
TORSDOF 2
ENDMDL
MODEL 6
REMARK VINA RESULT:      -7.0      2.150      3.565
REMARK  Name = 
REMARK  2 active torsions:
REMARK  status: ('A' for Active; 'I' for Inactive)
REMARK    1  A    between atoms: C_2  and  C_3
REMARK    2  A    between atoms: C_9  and  C_10
REMARK                            x       y       z     vdW  Elec       q    Type
REMARK                         _______ _______ _______ _____ _____    ______ ____
ROOT
ATOM      1  C   UNL     1       1.783   6.521  19.961  0.00  0.00    +0.000 A 
ATOM      2  C   UNL     1       2.127   7.311  18.868  0.00  0.00    +0.000 A 
ATOM      3  N   UNL     1       1.945   8.669  18.790  0.00  0.00    +0.000 NA
ATOM      4  C   UNL     1       1.346   9.317  19.827  0.00  0.00    +0.000 A 
ATOM      5  C   UNL     1       0.936   8.593  20.938  0.00  0.00    +0.000 A 
ATOM      6  C   UNL     1       1.172   7.210  20.996  0.00  0.00    +0.000 A 
ATOM      7  C   UNL     1       0.199   9.151  22.102  0.00  0.00    +0.000 C 
ATOM      8  C   UNL     1      -0.018  10.635  22.099  0.00  0.00    +0.000 C 
ATOM      9  C   UNL     1       0.503  11.409  20.907  0.00  0.00    +0.000 C 
ATOM     10  N   UNL     1       1.133  10.727  19.787  0.00  0.00    +0.000 N 
ATOM     11  C   UNL     1       1.531  11.597  18.777  0.00  0.00    +0.000 C 
ATOM     12  N   UNL     1       2.116  11.083  17.680  0.00  0.00    +0.000 N 
ATOM     13  O   UNL     1       1.371  12.819  18.825  0.00  0.00    +0.000 OA
ATOM     14  H   UNL     1       2.529  11.749  17.042  0.00  0.00    +0.000 HD
ATOM     15  H   UNL     1       2.487  10.142  17.732  0.00  0.00    +0.000 HD
ENDROOT
BRANCH   1  22
ATOM     16  C   UNL     1       3.222   4.416  19.871  0.00  0.00    +0.000 A 
ATOM     17  C   UNL     1       3.345   3.036  20.084  0.00  0.00    +0.000 A 
ATOM     18 CL   UNL     1       4.823   2.174  19.859  0.00  0.00    +0.000 Cl
ATOM     19  C   UNL     1       2.229   2.338  20.507  0.00  0.00    +0.000 A 
ATOM     20  N   UNL     1       1.029   2.914  20.738  0.00  0.00    +0.000 NA
ATOM     21  C   UNL     1       0.932   4.249  20.524  0.00  0.00    +0.000 A 
ATOM     22  C   UNL     1       1.974   5.062  20.074  0.00  0.00    +0.000 A 
BRANCH  16  24
ATOM     23  N   UNL     1       5.339   5.746  19.157  0.00  0.00    +0.000 NA
ATOM     24  C   UNL     1       4.388   5.170  19.496  0.00  0.00    +0.000 C 
ENDBRANCH  16  24
ENDBRANCH   1  22
TORSDOF 2
ENDMDL
MODEL 7
REMARK VINA RESULT:      -7.0      3.669      6.936
REMARK  Name = 
REMARK  2 active torsions:
REMARK  status: ('A' for Active; 'I' for Inactive)
REMARK    1  A    between atoms: C_2  and  C_3
REMARK    2  A    between atoms: C_9  and  C_10
REMARK                            x       y       z     vdW  Elec       q    Type
REMARK                         _______ _______ _______ _____ _____    ______ ____
ROOT
ATOM      1  C   UNL     1       1.254   8.018  20.682  0.00  0.00    +0.000 A 
ATOM      2  C   UNL     1       1.149   6.689  21.081  0.00  0.00    +0.000 A 
ATOM      3  N   UNL     1       1.799   5.635  20.489  0.00  0.00    +0.000 NA
ATOM      4  C   UNL     1       2.580   5.868  19.398  0.00  0.00    +0.000 A 
ATOM      5  C   UNL     1       2.705   7.163  18.913  0.00  0.00    +0.000 A 
ATOM      6  C   UNL     1       2.052   8.220  19.567  0.00  0.00    +0.000 A 
ATOM      7  C   UNL     1       3.454   7.552  17.689  0.00  0.00    +0.000 C 
ATOM      8  C   UNL     1       4.210   6.456  16.999  0.00  0.00    +0.000 C 
ATOM      9  C   UNL     1       4.113   5.067  17.592  0.00  0.00    +0.000 C 
ATOM     10  N   UNL     1       3.272   4.803  18.749  0.00  0.00    +0.000 N 
ATOM     11  C   UNL     1       3.294   3.468  19.141  0.00  0.00    +0.000 C 
ATOM     12  N   UNL     1       2.543   3.095  20.195  0.00  0.00    +0.000 N 
ATOM     13  O   UNL     1       3.959   2.599  18.573  0.00  0.00    +0.000 OA
ATOM     14  H   UNL     1       2.701   2.161  20.545  0.00  0.00    +0.000 HD
ATOM     15  H   UNL     1       2.207   3.817  20.821  0.00  0.00    +0.000 HD
ENDROOT
BRANCH   1  22
ATOM     16  C   UNL     1      -0.184  10.122  20.570  0.00  0.00    +0.000 A 
ATOM     17  C   UNL     1      -0.876  11.140  21.241  0.00  0.00    +0.000 A 
ATOM     18 CL   UNL     1      -1.817  12.337  20.427  0.00  0.00    +0.000 Cl
ATOM     19  C   UNL     1      -0.810  11.176  22.622  0.00  0.00    +0.000 A 
ATOM     20  N   UNL     1      -0.125  10.276  23.361  0.00  0.00    +0.000 NA
ATOM     21  C   UNL     1       0.538   9.301  22.693  0.00  0.00    +0.000 A 
ATOM     22  C   UNL     1       0.573   9.170  21.304  0.00  0.00    +0.000 A 
BRANCH  16  24
ATOM     23  N   UNL     1      -0.411   9.995  17.983  0.00  0.00    +0.000 NA
ATOM     24  C   UNL     1      -0.295  10.029  19.139  0.00  0.00    +0.000 C 
ENDBRANCH  16  24
ENDBRANCH   1  22
TORSDOF 2
ENDMDL
MODEL 8
REMARK VINA RESULT:      -6.9      4.232      6.266
REMARK  Name = 
REMARK  2 active torsions:
REMARK  status: ('A' for Active; 'I' for Inactive)
REMARK    1  A    between atoms: C_2  and  C_3
REMARK    2  A    between atoms: C_9  and  C_10
REMARK                            x       y       z     vdW  Elec       q    Type
REMARK                         _______ _______ _______ _____ _____    ______ ____
ROOT
ATOM      1  C   UNL     1       4.834   4.325  16.346  0.00  0.00    +0.000 A 
ATOM      2  C   UNL     1       4.800   3.253  17.232  0.00  0.00    +0.000 A 
ATOM      3  N   UNL     1       4.151   3.251  18.442  0.00  0.00    +0.000 NA
ATOM      4  C   UNL     1       3.518   4.383  18.855  0.00  0.00    +0.000 A 
ATOM      5  C   UNL     1       3.539   5.511  18.045  0.00  0.00    +0.000 A 
ATOM      6  C   UNL     1       4.184   5.463  16.799  0.00  0.00    +0.000 A 
ATOM      7  C   UNL     1       2.965   6.834  18.402  0.00  0.00    +0.000 C 
ATOM      8  C   UNL     1       2.219   6.904  19.701  0.00  0.00    +0.000 C 
ATOM      9  C   UNL     1       2.151   5.640  20.531  0.00  0.00    +0.000 C 
ATOM     10  N   UNL     1       2.834   4.428  20.107  0.00  0.00    +0.000 N 
ATOM     11  C   UNL     1       2.676   3.374  21.002  0.00  0.00    +0.000 C 
ATOM     12  N   UNL     1       3.273   2.200  20.725  0.00  0.00    +0.000 N 
ATOM     13  O   UNL     1       2.022   3.456  22.044  0.00  0.00    +0.000 OA
ATOM     14  H   UNL     1       3.012   1.420  21.311  0.00  0.00    +0.000 HD
ATOM     15  H   UNL     1       3.584   2.034  19.776  0.00  0.00    +0.000 HD
ENDROOT
BRANCH   1  22
ATOM     16  C   UNL     1       6.699   5.099  14.787  0.00  0.00    +0.000 A 
ATOM     17  C   UNL     1       7.340   5.006  13.544  0.00  0.00    +0.000 A 
ATOM     18 CL   UNL     1       8.778   5.879  13.156  0.00  0.00    +0.000 Cl
ATOM     19  C   UNL     1       6.799   4.164  12.590  0.00  0.00    +0.000 A 
ATOM     20  N   UNL     1       5.692   3.416  12.794  0.00  0.00    +0.000 NA
ATOM     21  C   UNL     1       5.087   3.522  14.002  0.00  0.00    +0.000 A 
ATOM     22  C   UNL     1       5.516   4.353  15.038  0.00  0.00    +0.000 A 
BRANCH  16  24
ATOM     23  N   UNL     1       7.721   6.613  16.637  0.00  0.00    +0.000 NA
ATOM     24  C   UNL     1       7.284   5.918  15.814  0.00  0.00    +0.000 C 
ENDBRANCH  16  24
ENDBRANCH   1  22
TORSDOF 2
ENDMDL
MODEL 9
REMARK VINA RESULT:      -6.9      3.810      7.223
REMARK  Name = 
REMARK  2 active torsions:
REMARK  status: ('A' for Active; 'I' for Inactive)
REMARK    1  A    between atoms: C_2  and  C_3
REMARK    2  A    between atoms: C_9  and  C_10
REMARK                            x       y       z     vdW  Elec       q    Type
REMARK                         _______ _______ _______ _____ _____    ______ ____
ROOT
ATOM      1  C   UNL     1       1.422   8.979  19.566  0.00  0.00    +0.000 A 
ATOM      2  C   UNL     1       2.249   9.048  18.449  0.00  0.00    +0.000 A 
ATOM      3  N   UNL     1       2.988   8.004  17.950  0.00  0.00    +0.000 NA
ATOM      4  C   UNL     1       2.965   6.808  18.600  0.00  0.00    +0.000 A 
ATOM      5  C   UNL     1       2.195   6.669  19.747  0.00  0.00    +0.000 A 
ATOM      6  C   UNL     1       1.425   7.750  20.206  0.00  0.00    +0.000 A 
ATOM      7  C   UNL     1       2.138   5.454  20.601  0.00  0.00    +0.000 C 
ATOM      8  C   UNL     1       2.904   4.262  20.108  0.00  0.00    +0.000 C 
ATOM      9  C   UNL     1       3.677   4.420  18.817  0.00  0.00    +0.000 C 
ATOM     10  N   UNL     1       3.720   5.696  18.120  0.00  0.00    +0.000 N 
ATOM     11  C   UNL     1       4.493   5.657  16.964  0.00  0.00    +0.000 C 
ATOM     12  N   UNL     1       4.620   6.783  16.238  0.00  0.00    +0.000 N 
ATOM     13  O   UNL     1       5.078   4.647  16.567  0.00  0.00    +0.000 OA
ATOM     14  H   UNL     1       5.056   6.681  15.332  0.00  0.00    +0.000 HD
ATOM     15  H   UNL     1       3.955   7.531  16.394  0.00  0.00    +0.000 HD
ENDROOT
BRANCH   1  22
ATOM     16  C   UNL     1      -0.545  10.601  19.481  0.00  0.00    +0.000 A 
ATOM     17  C   UNL     1      -1.315  11.590  20.110  0.00  0.00    +0.000 A 
ATOM     18 CL   UNL     1      -2.733  12.275  19.405  0.00  0.00    +0.000 Cl
ATOM     19  C   UNL     1      -0.921  12.025  21.362  0.00  0.00    +0.000 A 
ATOM     20  N   UNL     1       0.157  11.542  22.018  0.00  0.00    +0.000 NA
ATOM     21  C   UNL     1       0.887  10.588  21.390  0.00  0.00    +0.000 A 
ATOM     22  C   UNL     1       0.613  10.082  20.119  0.00  0.00    +0.000 A 
BRANCH  16  24
ATOM     23  N   UNL     1      -1.353   9.713  17.174  0.00  0.00    +0.000 NA
ATOM     24  C   UNL     1      -0.976  10.088  18.208  0.00  0.00    +0.000 C 
ENDBRANCH  16  24
ENDBRANCH   1  22
TORSDOF 2
ENDMDL
