MODEL 1
REMARK VINA RESULT:      -6.2      0.000      0.000
REMARK  Name = 
REMARK  8 active torsions:
REMARK  status: ('A' for Active; 'I' for Inactive)
REMARK    1  A    between atoms: C_1  and  C_2
REMARK    2  A    between atoms: C_2  and  N_3
REMARK    3  A    between atoms: N_3  and  C_4
REMARK    4  A    between atoms: C_4  and  C_5
REMARK    5  A    between atoms: N_8  and  C_9
REMARK    6  A    between atoms: C_17  and  C_18
REMARK    7  A    between atoms: C_18  and  O_20
REMARK    8  A    between atoms: N_22  and  C_23
REMARK                            x       y       z     vdW  Elec       q    Type
REMARK                         _______ _______ _______ _____ _____    ______ ____
ROOT
ATOM      1  C   UNL     1      -4.290  11.768  18.287  0.00  0.00    +0.000 A 
ATOM      2  C   UNL     1      -5.640  12.181  18.334  0.00  0.00    +0.000 A 
ATOM      3  F   UNL     1      -6.475  11.841  17.335  0.00  0.00    +0.000 F 
ATOM      4  C   UNL     1      -6.187  12.955  19.364  0.00  0.00    +0.000 A 
ATOM      5 CL   UNL     1      -7.855  13.402  19.152  0.00  0.00    +0.000 Cl
ATOM      6  C   UNL     1      -5.399  13.330  20.460  0.00  0.00    +0.000 A 
ATOM      7  C   UNL     1      -5.999  14.114  21.586  0.00  0.00    +0.000 A 
ATOM      8  O   UNL     1      -7.178  14.468  21.618  0.00  0.00    +0.000 OA
ATOM      9  C   UNL     1      -5.160  14.499  22.725  0.00  0.00    +0.000 A 
ATOM     10  C   UNL     1      -3.883  14.118  22.677  0.00  0.00    +0.000 A 
ATOM     11  N   UNL     1      -3.269  13.364  21.692  0.00  0.00    +0.000 N 
ATOM     12  C   UNL     1      -4.023  12.948  20.520  0.00  0.00    +0.000 A 
ATOM     13  C   UNL     1      -3.498  12.170  19.417  0.00  0.00    +0.000 A 
ATOM     14 CL   UNL     1      -1.859  11.586  19.464  0.00  0.00    +0.000 Cl
ENDROOT
BRANCH   1  18
ATOM     15  C   UNL     1      -2.881  10.463  15.057  0.00  0.00    +0.000 C 
ATOM     16  C   UNL     1      -2.375   9.497  16.118  0.00  0.00    +0.000 C 
ATOM     17  C   UNL     1      -3.390   9.619  17.241  0.00  0.00    +0.000 C 
ATOM     18  N   UNL     1      -3.822  11.018  17.202  0.00  0.00    +0.000 N 
ATOM     19  C   UNL     1      -3.477  11.606  15.896  0.00  0.00    +0.000 C 
BRANCH  15  20
ATOM     20  C   UNL     1      -3.865   9.809  14.078  0.00  0.00    +0.000 C 
BRANCH  20  21
ATOM     21  N   UNL     1      -3.322   9.842  12.717  0.00  0.00    +0.000 NA
ATOM     22  H   UNL     1      -2.727  10.660  12.595  0.00  0.00    +0.000 HD
BRANCH  21  24
ATOM     23  C   UNL     1      -5.645   9.285  12.301  0.00  0.00    +0.000 C 
ATOM     24  C   UNL     1      -4.376   9.878  11.707  0.00  0.00    +0.000 C 
ENDBRANCH  21  24
ENDBRANCH  20  21
ENDBRANCH  15  20
ENDBRANCH   1  18
BRANCH  11  25
ATOM     25  C   UNL     1      -1.807  13.156  21.860  0.00  0.00    +0.000 C 
ATOM     26  C   UNL     1      -0.971  13.578  23.050  0.00  0.00    +0.000 C 
ATOM     27  C   UNL     1      -1.301  12.140  22.870  0.00  0.00    +0.000 C 
ENDBRANCH  11  25
BRANCH   9  28
ATOM     28  C   UNL     1      -5.647  15.260  23.897  0.00  0.00    +0.000 C 
ATOM     29  O   UNL     1      -5.024  16.189  24.399  0.00  0.00    +0.000 OA
BRANCH  28  30
ATOM     30  O   UNL     1      -6.841  14.856  24.381  0.00  0.00    +0.000 OA
ATOM     31  H   UNL     1      -6.776  14.132  25.054  0.00  0.00    +0.000 HD
ENDBRANCH  28  30
ENDBRANCH   9  28
TORSDOF 7
ENDMDL
MODEL 2
REMARK VINA RESULT:      -5.9      1.124      1.170
REMARK  Name = 
REMARK  8 active torsions:
REMARK  status: ('A' for Active; 'I' for Inactive)
REMARK    1  A    between atoms: C_1  and  C_2
REMARK    2  A    between atoms: C_2  and  N_3
REMARK    3  A    between atoms: N_3  and  C_4
REMARK    4  A    between atoms: C_4  and  C_5
REMARK    5  A    between atoms: N_8  and  C_9
REMARK    6  A    between atoms: C_17  and  C_18
REMARK    7  A    between atoms: C_18  and  O_20
REMARK    8  A    between atoms: N_22  and  C_23
REMARK                            x       y       z     vdW  Elec       q    Type
REMARK                         _______ _______ _______ _____ _____    ______ ____
ROOT
ATOM      1  C   UNL     1      -3.886  11.444  18.217  0.00  0.00    +0.000 A 
ATOM      2  C   UNL     1      -5.209  11.448  18.711  0.00  0.00    +0.000 A 
ATOM      3  F   UNL     1      -6.181  10.830  18.016  0.00  0.00    +0.000 F 
ATOM      4  C   UNL     1      -5.601  12.081  19.897  0.00  0.00    +0.000 A 
ATOM      5 CL   UNL     1      -7.303  12.013  20.248  0.00  0.00    +0.000 Cl
ATOM      6  C   UNL     1      -4.650  12.725  20.701  0.00  0.00    +0.000 A 
ATOM      7  C   UNL     1      -5.063  13.355  21.995  0.00  0.00    +0.000 A 
ATOM      8  O   UNL     1      -6.219  13.354  22.417  0.00  0.00    +0.000 OA
ATOM      9  C   UNL     1      -4.055  14.026  22.824  0.00  0.00    +0.000 A 
ATOM     10  C   UNL     1      -2.807  14.030  22.354  0.00  0.00    +0.000 A 
ATOM     11  N   UNL     1      -2.347  13.438  21.191  0.00  0.00    +0.000 N 
ATOM     12  C   UNL     1      -3.279  12.762  20.302  0.00  0.00    +0.000 A 
ATOM     13  C   UNL     1      -2.928  12.115  19.054  0.00  0.00    +0.000 A 
ATOM     14 CL   UNL     1      -1.265  12.037  18.549  0.00  0.00    +0.000 Cl
ENDROOT
BRANCH   1  18
ATOM     15  C   UNL     1      -3.021  10.476  14.691  0.00  0.00    +0.000 C 
ATOM     16  C   UNL     1      -2.303   9.453  15.560  0.00  0.00    +0.000 C 
ATOM     17  C   UNL     1      -3.110   9.434  16.847  0.00  0.00    +0.000 C 
ATOM     18  N   UNL     1      -3.590  10.808  17.007  0.00  0.00    +0.000 N 
ATOM     19  C   UNL     1      -3.500  11.517  15.718  0.00  0.00    +0.000 C 
BRANCH  15  20
ATOM     20  C   UNL     1      -4.138   9.857  13.841  0.00  0.00    +0.000 C 
BRANCH  20  21
ATOM     21  N   UNL     1      -3.693   9.703  12.454  0.00  0.00    +0.000 NA
ATOM     22  H   UNL     1      -2.915  10.332  12.262  0.00  0.00    +0.000 HD
BRANCH  21  24
ATOM     23  C   UNL     1      -6.007   9.209  11.922  0.00  0.00    +0.000 C 
ATOM     24  C   UNL     1      -4.763   9.979  11.500  0.00  0.00    +0.000 C 
ENDBRANCH  21  24
ENDBRANCH  20  21
ENDBRANCH  15  20
ENDBRANCH   1  18
BRANCH  11  25
ATOM     25  C   UNL     1      -0.914  13.672  20.874  0.00  0.00    +0.000 C 
ATOM     26  C   UNL     1       0.121  14.285  21.796  0.00  0.00    +0.000 C 
ATOM     27  C   UNL     1       0.154  12.821  21.539  0.00  0.00    +0.000 C 
ENDBRANCH  11  25
BRANCH   9  28
ATOM     28  C   UNL     1      -4.344  14.671  24.124  0.00  0.00    +0.000 C 
ATOM     29  O   UNL     1      -3.572  14.637  25.075  0.00  0.00    +0.000 OA
BRANCH  28  30
ATOM     30  O   UNL     1      -5.534  15.306  24.191  0.00  0.00    +0.000 OA
ATOM     31  H   UNL     1      -6.313  14.696  24.216  0.00  0.00    +0.000 HD
ENDBRANCH  28  30
ENDBRANCH   9  28
TORSDOF 7
ENDMDL
MODEL 3
REMARK VINA RESULT:      -5.9      3.719      8.330
REMARK  Name = 
REMARK  8 active torsions:
REMARK  status: ('A' for Active; 'I' for Inactive)
REMARK    1  A    between atoms: C_1  and  C_2
REMARK    2  A    between atoms: C_2  and  N_3
REMARK    3  A    between atoms: N_3  and  C_4
REMARK    4  A    between atoms: C_4  and  C_5
REMARK    5  A    between atoms: N_8  and  C_9
REMARK    6  A    between atoms: C_17  and  C_18
REMARK    7  A    between atoms: C_18  and  O_20
REMARK    8  A    between atoms: N_22  and  C_23
REMARK                            x       y       z     vdW  Elec       q    Type
REMARK                         _______ _______ _______ _____ _____    ______ ____
ROOT
ATOM      1  C   UNL     1      -3.275  12.943  21.225  0.00  0.00    +0.000 A 
ATOM      2  C   UNL     1      -4.482  13.188  20.533  0.00  0.00    +0.000 A 
ATOM      3  F   UNL     1      -5.444  13.927  21.116  0.00  0.00    +0.000 F 
ATOM      4  C   UNL     1      -4.768  12.692  19.256  0.00  0.00    +0.000 A 
ATOM      5 CL   UNL     1      -6.355  13.067  18.652  0.00  0.00    +0.000 Cl
ATOM      6  C   UNL     1      -3.813  11.938  18.561  0.00  0.00    +0.000 A 
ATOM      7  C   UNL     1      -4.101  11.453  17.174  0.00  0.00    +0.000 A 
ATOM      8  O   UNL     1      -5.156  11.672  16.580  0.00  0.00    +0.000 OA
ATOM      9  C   UNL     1      -3.090  10.663  16.462  0.00  0.00    +0.000 A 
ATOM     10  C   UNL     1      -1.954  10.423  17.117  0.00  0.00    +0.000 A 
ATOM     11  N   UNL     1      -1.604  10.868  18.380  0.00  0.00    +0.000 N 
ATOM     12  C   UNL     1      -2.550  11.647  19.164  0.00  0.00    +0.000 A 
ATOM     13  C   UNL     1      -2.312  12.161  20.497  0.00  0.00    +0.000 A 
ATOM     14 CL   UNL     1      -0.764  11.930  21.258  0.00  0.00    +0.000 Cl
ENDROOT
BRANCH   1  18
ATOM     15  C   UNL     1      -2.846  15.023  24.325  0.00  0.00    +0.000 C 
ATOM     16  C   UNL     1      -3.653  13.815  24.778  0.00  0.00    +0.000 C 
ATOM     17  C   UNL     1      -3.298  12.737  23.770  0.00  0.00    +0.000 C 
ATOM     18  N   UNL     1      -3.085  13.456  22.512  0.00  0.00    +0.000 N 
ATOM     19  C   UNL     1      -2.861  14.885  22.792  0.00  0.00    +0.000 C 
BRANCH  15  20
ATOM     20  C   UNL     1      -1.444  15.071  24.947  0.00  0.00    +0.000 C 
BRANCH  20  21
ATOM     21  N   UNL     1      -1.532  15.421  26.366  0.00  0.00    +0.000 NA
ATOM     22  H   UNL     1      -2.478  15.722  26.597  0.00  0.00    +0.000 HD
BRANCH  21  24
ATOM     23  C   UNL     1      -1.093  17.793  26.111  0.00  0.00    +0.000 C 
ATOM     24  C   UNL     1      -0.603  16.490  26.726  0.00  0.00    +0.000 C 
ENDBRANCH  21  24
ENDBRANCH  20  21
ENDBRANCH  15  20
ENDBRANCH   1  18
BRANCH  11  25
ATOM     25  C   UNL     1      -0.299  10.378  18.896  0.00  0.00    +0.000 C 
ATOM     26  C   UNL     1       0.776   9.674  18.093  0.00  0.00    +0.000 C 
ATOM     27  C   UNL     1       0.984  11.089  18.499  0.00  0.00    +0.000 C 
ENDBRANCH  11  25
BRANCH   9  28
ATOM     28  C   UNL     1      -3.260  10.144  15.087  0.00  0.00    +0.000 C 
ATOM     29  O   UNL     1      -2.330  10.024  14.296  0.00  0.00    +0.000 OA
BRANCH  28  30
ATOM     30  O   UNL     1      -4.525   9.806  14.758  0.00  0.00    +0.000 OA
ATOM     31  H   UNL     1      -4.608   9.373  13.872  0.00  0.00    +0.000 HD
ENDBRANCH  28  30
ENDBRANCH   9  28
TORSDOF 7
ENDMDL
MODEL 4
REMARK VINA RESULT:      -5.8      4.053      7.981
REMARK  Name = 
REMARK  8 active torsions:
REMARK  status: ('A' for Active; 'I' for Inactive)
REMARK    1  A    between atoms: C_1  and  C_2
REMARK    2  A    between atoms: C_2  and  N_3
REMARK    3  A    between atoms: N_3  and  C_4
REMARK    4  A    between atoms: C_4  and  C_5
REMARK    5  A    between atoms: N_8  and  C_9
REMARK    6  A    between atoms: C_17  and  C_18
REMARK    7  A    between atoms: C_18  and  O_20
REMARK    8  A    between atoms: N_22  and  C_23
REMARK                            x       y       z     vdW  Elec       q    Type
REMARK                         _______ _______ _______ _____ _____    ______ ____
ROOT
ATOM      1  C   UNL     1      -4.296  13.031  20.612  0.00  0.00    +0.000 A 
ATOM      2  C   UNL     1      -3.239  13.093  21.547  0.00  0.00    +0.000 A 
ATOM      3  F   UNL     1      -3.425  13.727  22.720  0.00  0.00    +0.000 F 
ATOM      4  C   UNL     1      -1.970  12.543  21.333  0.00  0.00    +0.000 A 
ATOM      5 CL   UNL     1      -0.816  12.822  22.604  0.00  0.00    +0.000 Cl
ATOM      6  C   UNL     1      -1.696  11.838  20.153  0.00  0.00    +0.000 A 
ATOM      7  C   UNL     1      -0.354  11.206  19.948  0.00  0.00    +0.000 A 
ATOM      8  O   UNL     1       0.561  11.265  20.770  0.00  0.00    +0.000 OA
ATOM      9  C   UNL     1      -0.084  10.473  18.707  0.00  0.00    +0.000 A 
ATOM     10  C   UNL     1      -1.077  10.422  17.819  0.00  0.00    +0.000 A 
ATOM     11  N   UNL     1      -2.350  10.949  17.954  0.00  0.00    +0.000 N 
ATOM     12  C   UNL     1      -2.702  11.701  19.148  0.00  0.00    +0.000 A 
ATOM     13  C   UNL     1      -3.991  12.310  19.406  0.00  0.00    +0.000 A 
ATOM     14 CL   UNL     1      -5.296  12.104  18.273  0.00  0.00    +0.000 Cl
ENDROOT
BRANCH   1  18
ATOM     15  C   UNL     1      -7.412  15.125  20.778  0.00  0.00    +0.000 C 
ATOM     16  C   UNL     1      -7.880  13.710  21.086  0.00  0.00    +0.000 C 
ATOM     17  C   UNL     1      -6.639  13.022  21.628  0.00  0.00    +0.000 C 
ATOM     18  N   UNL     1      -5.525  13.634  20.899  0.00  0.00    +0.000 N 
ATOM     19  C   UNL     1      -5.965  14.907  20.302  0.00  0.00    +0.000 C 
BRANCH  15  20
ATOM     20  C   UNL     1      -7.554  16.074  21.975  0.00  0.00    +0.000 C 
BRANCH  20  21
ATOM     21  N   UNL     1      -6.487  17.078  21.954  0.00  0.00    +0.000 NA
ATOM     22  H   UNL     1      -5.763  16.808  21.289  0.00  0.00    +0.000 HD
BRANCH  21  24
ATOM     23  C   UNL     1      -5.877  15.913  23.992  0.00  0.00    +0.000 C 
ATOM     24  C   UNL     1      -5.871  17.251  23.267  0.00  0.00    +0.000 C 
ENDBRANCH  21  24
ENDBRANCH  20  21
ENDBRANCH  15  20
ENDBRANCH   1  18
BRANCH  11  25
ATOM     25  C   UNL     1      -3.232  10.810  16.766  0.00  0.00    +0.000 C 
ATOM     26  C   UNL     1      -2.794  10.829  15.316  0.00  0.00    +0.000 C 
ATOM     27  C   UNL     1      -3.187   9.537  15.937  0.00  0.00    +0.000 C 
ENDBRANCH  11  25
BRANCH   9  28
ATOM     28  C   UNL     1       1.198   9.799  18.403  0.00  0.00    +0.000 C 
ATOM     29  O   UNL     1       1.582   8.793  18.990  0.00  0.00    +0.000 OA
BRANCH  28  30
ATOM     30  O   UNL     1       1.925  10.375  17.422  0.00  0.00    +0.000 OA
ATOM     31  H   UNL     1       1.794  11.353  17.348  0.00  0.00    +0.000 HD
ENDBRANCH  28  30
ENDBRANCH   9  28
TORSDOF 7
ENDMDL
MODEL 5
REMARK VINA RESULT:      -5.6      5.354      6.596
REMARK  Name = 
REMARK  8 active torsions:
REMARK  status: ('A' for Active; 'I' for Inactive)
REMARK    1  A    between atoms: C_1  and  C_2
REMARK    2  A    between atoms: C_2  and  N_3
REMARK    3  A    between atoms: N_3  and  C_4
REMARK    4  A    between atoms: C_4  and  C_5
REMARK    5  A    between atoms: N_8  and  C_9
REMARK    6  A    between atoms: C_17  and  C_18
REMARK    7  A    between atoms: C_18  and  O_20
REMARK    8  A    between atoms: N_22  and  C_23
REMARK                            x       y       z     vdW  Elec       q    Type
REMARK                         _______ _______ _______ _____ _____    ______ ____
ROOT
ATOM      1  C   UNL     1       0.271  13.975  20.321  0.00  0.00    +0.000 A 
ATOM      2  C   UNL     1       0.423  12.753  21.012  0.00  0.00    +0.000 A 
ATOM      3  F   UNL     1       1.555  12.040  20.862  0.00  0.00    +0.000 F 
ATOM      4  C   UNL     1      -0.551  12.202  21.853  0.00  0.00    +0.000 A 
ATOM      5 CL   UNL     1      -0.158  10.646  22.525  0.00  0.00    +0.000 Cl
ATOM      6  C   UNL     1      -1.748  12.889  22.092  0.00  0.00    +0.000 A 
ATOM      7  C   UNL     1      -2.766  12.323  23.033  0.00  0.00    +0.000 A 
ATOM      8  O   UNL     1      -2.624  11.256  23.631  0.00  0.00    +0.000 OA
ATOM      9  C   UNL     1      -4.015  13.055  23.270  0.00  0.00    +0.000 A 
ATOM     10  C   UNL     1      -4.164  14.204  22.611  0.00  0.00    +0.000 A 
ATOM     11  N   UNL     1      -3.255  14.806  21.758  0.00  0.00    +0.000 N 
ATOM     12  C   UNL     1      -1.995  14.145  21.456  0.00  0.00    +0.000 A 
ATOM     13  C   UNL     1      -0.968  14.660  20.574  0.00  0.00    +0.000 A 
ATOM     14 CL   UNL     1      -1.154  16.226  19.840  0.00  0.00    +0.000 Cl
ENDROOT
BRANCH   1  18
ATOM     15  C   UNL     1       3.198  15.665  18.676  0.00  0.00    +0.000 C 
ATOM     16  C   UNL     1       3.249  14.228  18.176  0.00  0.00    +0.000 C 
ATOM     17  C   UNL     1       1.815  13.744  18.300  0.00  0.00    +0.000 C 
ATOM     18  N   UNL     1       1.287  14.437  19.477  0.00  0.00    +0.000 N 
ATOM     19  C   UNL     1       2.139  15.597  19.791  0.00  0.00    +0.000 C 
BRANCH  15  20
ATOM     20  C   UNL     1       2.887  16.672  17.562  0.00  0.00    +0.000 C 
BRANCH  20  21
ATOM     21  N   UNL     1       1.842  17.602  17.997  0.00  0.00    +0.000 NA
ATOM     22  H   UNL     1       1.108  17.099  18.494  0.00  0.00    +0.000 HD
BRANCH  21  24
ATOM     23  C   UNL     1      -0.275  18.259  17.013  0.00  0.00    +0.000 C 
ATOM     24  C   UNL     1       1.240  18.315  16.874  0.00  0.00    +0.000 C 
ENDBRANCH  21  24
ENDBRANCH  20  21
ENDBRANCH  15  20
ENDBRANCH   1  18
BRANCH  11  25
ATOM     25  C   UNL     1      -3.722  16.052  21.097  0.00  0.00    +0.000 C 
ATOM     26  C   UNL     1      -5.026  16.775  21.363  0.00  0.00    +0.000 C 
ATOM     27  C   UNL     1      -3.758  17.353  21.881  0.00  0.00    +0.000 C 
ENDBRANCH  11  25
BRANCH   9  28
ATOM     28  C   UNL     1      -5.084  12.599  24.187  0.00  0.00    +0.000 C 
ATOM     29  O   UNL     1      -6.238  12.400  23.824  0.00  0.00    +0.000 OA
BRANCH  28  30
ATOM     30  O   UNL     1      -4.695  12.415  25.467  0.00  0.00    +0.000 OA
ATOM     31  H   UNL     1      -4.613  13.254  25.985  0.00  0.00    +0.000 HD
ENDBRANCH  28  30
ENDBRANCH   9  28
TORSDOF 7
ENDMDL
MODEL 6
REMARK VINA RESULT:      -5.6      4.013      8.331
REMARK  Name = 
REMARK  8 active torsions:
REMARK  status: ('A' for Active; 'I' for Inactive)
REMARK    1  A    between atoms: C_1  and  C_2
REMARK    2  A    between atoms: C_2  and  N_3
REMARK    3  A    between atoms: N_3  and  C_4
REMARK    4  A    between atoms: C_4  and  C_5
REMARK    5  A    between atoms: N_8  and  C_9
REMARK    6  A    between atoms: C_17  and  C_18
REMARK    7  A    between atoms: C_18  and  O_20
REMARK    8  A    between atoms: N_22  and  C_23
REMARK                            x       y       z     vdW  Elec       q    Type
REMARK                         _______ _______ _______ _____ _____    ______ ____
ROOT
ATOM      1  C   UNL     1      -2.467  12.463  20.708  0.00  0.00    +0.000 A 
ATOM      2  C   UNL     1      -1.403  11.655  20.247  0.00  0.00    +0.000 A 
ATOM      3  F   UNL     1      -0.337  11.445  21.040  0.00  0.00    +0.000 F 
ATOM      4  C   UNL     1      -1.367  11.053  18.985  0.00  0.00    +0.000 A 
ATOM      5 CL   UNL     1       0.089  10.172  18.623  0.00  0.00    +0.000 Cl
ATOM      6  C   UNL     1      -2.448  11.193  18.104  0.00  0.00    +0.000 A 
ATOM      7  C   UNL     1      -2.430  10.504  16.774  0.00  0.00    +0.000 A 
ATOM      8  O   UNL     1      -1.499   9.801  16.382  0.00  0.00    +0.000 OA
ATOM      9  C   UNL     1      -3.570  10.662  15.865  0.00  0.00    +0.000 A 
ATOM     10  C   UNL     1      -4.570  11.433  16.294  0.00  0.00    +0.000 A 
ATOM     11  N   UNL     1      -4.673  12.068  17.519  0.00  0.00    +0.000 N 
ATOM     12  C   UNL     1      -3.584  11.975  18.479  0.00  0.00    +0.000 A 
ATOM     13  C   UNL     1      -3.562  12.600  19.786  0.00  0.00    +0.000 A 
ATOM     14 CL   UNL     1      -4.948  13.488  20.352  0.00  0.00    +0.000 Cl
ENDROOT
BRANCH   1  18
ATOM     15  C   UNL     1      -2.519  13.319  24.367  0.00  0.00    +0.000 C 
ATOM     16  C   UNL     1      -1.326  14.081  23.808  0.00  0.00    +0.000 C 
ATOM     17  C   UNL     1      -1.657  14.255  22.336  0.00  0.00    +0.000 C 
ATOM     18  N   UNL     1      -2.406  13.049  21.976  0.00  0.00    +0.000 N 
ATOM     19  C   UNL     1      -2.910  12.398  23.198  0.00  0.00    +0.000 C 
BRANCH  15  20
ATOM     20  C   UNL     1      -3.642  14.245  24.852  0.00  0.00    +0.000 C 
BRANCH  20  21
ATOM     21  N   UNL     1      -4.929  13.809  24.304  0.00  0.00    +0.000 NA
ATOM     22  H   UNL     1      -4.791  13.042  23.648  0.00  0.00    +0.000 HD
BRANCH  21  24
ATOM     23  C   UNL     1      -7.118  14.768  23.889  0.00  0.00    +0.000 C 
ATOM     24  C   UNL     1      -5.626  14.892  23.614  0.00  0.00    +0.000 C 
ENDBRANCH  21  24
ENDBRANCH  20  21
ENDBRANCH  15  20
ENDBRANCH   1  18
BRANCH  11  25
ATOM     25  C   UNL     1      -5.870  12.931  17.697  0.00  0.00    +0.000 C 
ATOM     26  C   UNL     1      -7.012  13.095  16.716  0.00  0.00    +0.000 C 
ATOM     27  C   UNL     1      -7.226  12.296  17.951  0.00  0.00    +0.000 C 
ENDBRANCH  11  25
BRANCH   9  28
ATOM     28  C   UNL     1      -3.666  10.020  14.535  0.00  0.00    +0.000 C 
ATOM     29  O   UNL     1      -4.704   9.531  14.101  0.00  0.00    +0.000 OA
BRANCH  28  30
ATOM     30  O   UNL     1      -2.519  10.010  13.824  0.00  0.00    +0.000 OA
ATOM     31  H   UNL     1      -2.211  10.908  13.545  0.00  0.00    +0.000 HD
ENDBRANCH  28  30
ENDBRANCH   9  28
TORSDOF 7
ENDMDL
MODEL 7
REMARK VINA RESULT:      -5.6      4.020      8.771
REMARK  Name = 
REMARK  8 active torsions:
REMARK  status: ('A' for Active; 'I' for Inactive)
REMARK    1  A    between atoms: C_1  and  C_2
REMARK    2  A    between atoms: C_2  and  N_3
REMARK    3  A    between atoms: N_3  and  C_4
REMARK    4  A    between atoms: C_4  and  C_5
REMARK    5  A    between atoms: N_8  and  C_9
REMARK    6  A    between atoms: C_17  and  C_18
REMARK    7  A    between atoms: C_18  and  O_20
REMARK    8  A    between atoms: N_22  and  C_23
REMARK                            x       y       z     vdW  Elec       q    Type
REMARK                         _______ _______ _______ _____ _____    ______ ____
ROOT
ATOM      1  C   UNL     1      -2.719  12.599  21.109  0.00  0.00    +0.000 A 
ATOM      2  C   UNL     1      -1.597  11.845  20.698  0.00  0.00    +0.000 A 
ATOM      3  F   UNL     1      -0.564  11.676  21.543  0.00  0.00    +0.000 F 
ATOM      4  C   UNL     1      -1.468  11.257  19.435  0.00  0.00    +0.000 A 
ATOM      5 CL   UNL     1       0.044  10.447  19.143  0.00  0.00    +0.000 Cl
ATOM      6  C   UNL     1      -2.508  11.356  18.500  0.00  0.00    +0.000 A 
ATOM      7  C   UNL     1      -2.390  10.682  17.168  0.00  0.00    +0.000 A 
ATOM      8  O   UNL     1      -1.408  10.026  16.820  0.00  0.00    +0.000 OA
ATOM      9  C   UNL     1      -3.487  10.797  16.202  0.00  0.00    +0.000 A 
ATOM     10  C   UNL     1      -4.542  11.516  16.584  0.00  0.00    +0.000 A 
ATOM     11  N   UNL     1      -4.737  12.134  17.808  0.00  0.00    +0.000 N 
ATOM     12  C   UNL     1      -3.696  12.081  18.822  0.00  0.00    +0.000 A 
ATOM     13  C   UNL     1      -3.770  12.694  20.133  0.00  0.00    +0.000 A 
ATOM     14 CL   UNL     1      -5.223  13.512  20.632  0.00  0.00    +0.000 Cl
ENDROOT
BRANCH   1  18
ATOM     15  C   UNL     1      -2.832  14.828  24.132  0.00  0.00    +0.000 C 
ATOM     16  C   UNL     1      -3.688  13.626  24.505  0.00  0.00    +0.000 C 
ATOM     17  C   UNL     1      -3.159  12.509  23.622  0.00  0.00    +0.000 C 
ATOM     18  N   UNL     1      -2.750  13.174  22.383  0.00  0.00    +0.000 N 
ATOM     19  C   UNL     1      -2.593  14.619  22.626  0.00  0.00    +0.000 C 
BRANCH  15  20
ATOM     20  C   UNL     1      -1.552  14.931  24.973  0.00  0.00    +0.000 C 
BRANCH  20  21
ATOM     21  N   UNL     1      -1.708  15.958  26.006  0.00  0.00    +0.000 NA
ATOM     22  H   UNL     1      -2.514  16.546  25.800  0.00  0.00    +0.000 HD
BRANCH  21  24
ATOM     23  C   UNL     1       0.107  16.948  24.738  0.00  0.00    +0.000 C 
ATOM     24  C   UNL     1      -0.526  16.810  26.115  0.00  0.00    +0.000 C 
ENDBRANCH  21  24
ENDBRANCH  20  21
ENDBRANCH  15  20
ENDBRANCH   1  18
BRANCH  11  25
ATOM     25  C   UNL     1      -5.980  12.940  17.930  0.00  0.00    +0.000 C 
ATOM     26  C   UNL     1      -7.089  13.041  16.903  0.00  0.00    +0.000 C 
ATOM     27  C   UNL     1      -7.314  12.242  18.136  0.00  0.00    +0.000 C 
ENDBRANCH  11  25
BRANCH   9  28
ATOM     28  C   UNL     1      -3.485  10.164  14.864  0.00  0.00    +0.000 C 
ATOM     29  O   UNL     1      -2.470  10.019  14.192  0.00  0.00    +0.000 OA
BRANCH  28  30
ATOM     30  O   UNL     1      -4.695   9.753  14.428  0.00  0.00    +0.000 OA
ATOM     31  H   UNL     1      -5.436   9.954  15.053  0.00  0.00    +0.000 HD
ENDBRANCH  28  30
ENDBRANCH   9  28
TORSDOF 7
ENDMDL
MODEL 8
REMARK VINA RESULT:      -5.6     13.091     15.287
REMARK  Name = 
REMARK  8 active torsions:
REMARK  status: ('A' for Active; 'I' for Inactive)
REMARK    1  A    between atoms: C_1  and  C_2
REMARK    2  A    between atoms: C_2  and  N_3
REMARK    3  A    between atoms: N_3  and  C_4
REMARK    4  A    between atoms: C_4  and  C_5
REMARK    5  A    between atoms: N_8  and  C_9
REMARK    6  A    between atoms: C_17  and  C_18
REMARK    7  A    between atoms: C_18  and  O_20
REMARK    8  A    between atoms: N_22  and  C_23
REMARK                            x       y       z     vdW  Elec       q    Type
REMARK                         _______ _______ _______ _____ _____    ______ ____
ROOT
ATOM      1  C   UNL     1       8.121  14.365  22.724  0.00  0.00    +0.000 A 
ATOM      2  C   UNL     1       7.827  15.723  22.472  0.00  0.00    +0.000 A 
ATOM      3  F   UNL     1       7.075  16.414  23.348  0.00  0.00    +0.000 F 
ATOM      4  C   UNL     1       8.258  16.421  21.338  0.00  0.00    +0.000 A 
ATOM      5 CL   UNL     1       7.696  18.063  21.219  0.00  0.00    +0.000 Cl
ATOM      6  C   UNL     1       9.071  15.790  20.387  0.00  0.00    +0.000 A 
ATOM      7  C   UNL     1       9.574  16.553  19.201  0.00  0.00    +0.000 A 
ATOM      8  O   UNL     1       9.312  17.737  18.991  0.00  0.00    +0.000 OA
ATOM      9  C   UNL     1      10.423  15.877  18.215  0.00  0.00    +0.000 A 
ATOM     10  C   UNL     1      10.693  14.591  18.446  0.00  0.00    +0.000 A 
ATOM     11  N   UNL     1      10.297  13.833  19.534  0.00  0.00    +0.000 N 
ATOM     12  C   UNL     1       9.443  14.420  20.556  0.00  0.00    +0.000 A 
ATOM     13  C   UNL     1       8.950  13.734  21.733  0.00  0.00    +0.000 A 
ATOM     14 CL   UNL     1       9.439  12.096  22.056  0.00  0.00    +0.000 Cl
ENDROOT
BRANCH   1  18
ATOM     15  C   UNL     1       6.302  12.321  25.300  0.00  0.00    +0.000 C 
ATOM     16  C   UNL     1       7.750  12.331  25.767  0.00  0.00    +0.000 C 
ATOM     17  C   UNL     1       8.327  13.594  25.150  0.00  0.00    +0.000 C 
ATOM     18  N   UNL     1       7.625  13.739  23.872  0.00  0.00    +0.000 N 
ATOM     19  C   UNL     1       6.397  12.925  23.888  0.00  0.00    +0.000 C 
BRANCH  15  20
ATOM     20  C   UNL     1       5.363  13.073  26.254  0.00  0.00    +0.000 C 
BRANCH  20  21
ATOM     21  N   UNL     1       4.862  12.166  27.289  0.00  0.00    +0.000 NA
ATOM     22  H   UNL     1       5.520  12.119  28.065  0.00  0.00    +0.000 HD
BRANCH  21  24
ATOM     23  C   UNL     1       5.180   9.816  27.795  0.00  0.00    +0.000 C 
ATOM     24  C   UNL     1       4.648  10.815  26.777  0.00  0.00    +0.000 C 
ENDBRANCH  21  24
ENDBRANCH  20  21
ENDBRANCH  15  20
ENDBRANCH   1  18
BRANCH  11  25
ATOM     25  C   UNL     1      10.679  12.398  19.492  0.00  0.00    +0.000 C 
ATOM     26  C   UNL     1      11.584  11.741  18.470  0.00  0.00    +0.000 C 
ATOM     27  C   UNL     1      12.098  11.985  19.844  0.00  0.00    +0.000 C 
ENDBRANCH  11  25
BRANCH   9  28
ATOM     28  C   UNL     1      10.986  16.533  17.014  0.00  0.00    +0.000 C 
ATOM     29  O   UNL     1      11.709  17.522  17.068  0.00  0.00    +0.000 OA
BRANCH  28  30
ATOM     30  O   UNL     1      10.643  15.961  15.840  0.00  0.00    +0.000 OA
ATOM     31  H   UNL     1      10.367  15.014  15.921  0.00  0.00    +0.000 HD
ENDBRANCH  28  30
ENDBRANCH   9  28
TORSDOF 7
ENDMDL
MODEL 9
REMARK VINA RESULT:      -5.6      1.935      3.433
REMARK  Name = 
REMARK  8 active torsions:
REMARK  status: ('A' for Active; 'I' for Inactive)
REMARK    1  A    between atoms: C_1  and  C_2
REMARK    2  A    between atoms: C_2  and  N_3
REMARK    3  A    between atoms: N_3  and  C_4
REMARK    4  A    between atoms: C_4  and  C_5
REMARK    5  A    between atoms: N_8  and  C_9
REMARK    6  A    between atoms: C_17  and  C_18
REMARK    7  A    between atoms: C_18  and  O_20
REMARK    8  A    between atoms: N_22  and  C_23
REMARK                            x       y       z     vdW  Elec       q    Type
REMARK                         _______ _______ _______ _____ _____    ______ ____
ROOT
ATOM      1  C   UNL     1      -3.075  11.669  18.446  0.00  0.00    +0.000 A 
ATOM      2  C   UNL     1      -1.886  12.257  18.929  0.00  0.00    +0.000 A 
ATOM      3  F   UNL     1      -0.740  12.105  18.239  0.00  0.00    +0.000 F 
ATOM      4  C   UNL     1      -1.802  12.995  20.115  0.00  0.00    +0.000 A 
ATOM      5 CL   UNL     1      -0.207  13.549  20.535  0.00  0.00    +0.000 Cl
ATOM      6  C   UNL     1      -2.951  13.231  20.883  0.00  0.00    +0.000 A 
ATOM      7  C   UNL     1      -2.869  14.065  22.124  0.00  0.00    +0.000 A 
ATOM      8  O   UNL     1      -1.827  14.575  22.536  0.00  0.00    +0.000 OA
ATOM      9  C   UNL     1      -4.081  14.300  22.916  0.00  0.00    +0.000 A 
ATOM     10  C   UNL     1      -5.203  13.737  22.466  0.00  0.00    +0.000 A 
ATOM     11  N   UNL     1      -5.362  12.988  21.313  0.00  0.00    +0.000 N 
ATOM     12  C   UNL     1      -4.211  12.695  20.474  0.00  0.00    +0.000 A 
ATOM     13  C   UNL     1      -4.240  11.916  19.252  0.00  0.00    +0.000 A 
ATOM     14 CL   UNL     1      -5.753  11.312  18.639  0.00  0.00    +0.000 Cl
ENDROOT
BRANCH   1  18
ATOM     15  C   UNL     1      -2.763  10.334  14.947  0.00  0.00    +0.000 C 
ATOM     16  C   UNL     1      -2.337   9.179  15.841  0.00  0.00    +0.000 C 
ATOM     17  C   UNL     1      -3.030   9.462  17.163  0.00  0.00    +0.000 C 
ATOM     18  N   UNL     1      -3.061  10.922  17.263  0.00  0.00    +0.000 N 
ATOM     19  C   UNL     1      -2.840  11.514  15.932  0.00  0.00    +0.000 C 
BRANCH  15  20
ATOM     20  C   UNL     1      -4.066  10.050  14.188  0.00  0.00    +0.000 C 
BRANCH  20  21
ATOM     21  N   UNL     1      -3.781   9.783  12.776  0.00  0.00    +0.000 NA
ATOM     22  H   UNL     1      -2.967  10.317  12.474  0.00  0.00    +0.000 HD
BRANCH  21  24
ATOM     23  C   UNL     1      -5.968   9.039  12.039  0.00  0.00    +0.000 C 
ATOM     24  C   UNL     1      -4.909  10.125  11.914  0.00  0.00    +0.000 C 
ENDBRANCH  21  24
ENDBRANCH  20  21
ENDBRANCH  15  20
ENDBRANCH   1  18
BRANCH  11  25
ATOM     25  C   UNL     1      -6.716  12.415  21.101  0.00  0.00    +0.000 C 
ATOM     26  C   UNL     1      -7.915  12.583  22.011  0.00  0.00    +0.000 C 
ATOM     27  C   UNL     1      -7.871  13.328  20.726  0.00  0.00    +0.000 C 
ENDBRANCH  11  25
BRANCH   9  28
ATOM     28  C   UNL     1      -4.121  15.117  24.150  0.00  0.00    +0.000 C 
ATOM     29  O   UNL     1      -4.664  16.215  24.209  0.00  0.00    +0.000 OA
BRANCH  28  30
ATOM     30  O   UNL     1      -3.511  14.562  25.219  0.00  0.00    +0.000 OA
ATOM     31  H   UNL     1      -3.520  13.572  25.217  0.00  0.00    +0.000 HD
ENDBRANCH  28  30
ENDBRANCH   9  28
TORSDOF 7
ENDMDL
