MODEL 1
REMARK VINA RESULT:      -7.4      0.000      0.000
REMARK  Name = 
REMARK  9 active torsions:
REMARK  status: ('A' for Active; 'I' for Inactive)
REMARK    1  A    between atoms: C_1  and  O_2
REMARK    2  A    between atoms: O_2  and  N_3
REMARK    3  A    between atoms: N_3  and  C_4
REMARK    4  A    between atoms: C_5  and  O_7
REMARK    5  A    between atoms: O_7  and  C_8
REMARK    6  A    between atoms: C_12  and  C_13
REMARK    7  A    between atoms: C_14  and  C_15
REMARK    8  A    between atoms: C_15  and  C_17
REMARK    9  A    between atoms: C_22  and  O_23
REMARK                            x       y       z     vdW  Elec       q    Type
REMARK                         _______ _______ _______ _____ _____    ______ ____
ROOT
ATOM      1  C   UNL     1       3.923   4.304  17.642  0.00  0.00    +0.000 A 
ATOM      2  C   UNL     1       5.072   4.307  16.855  0.00  0.00    +0.000 A 
ATOM      3  C   UNL     1       5.522   5.508  16.306  0.00  0.00    +0.000 A 
ATOM      4  C   UNL     1       4.821   6.696  16.547  0.00  0.00    +0.000 A 
ATOM      5  C   UNL     1       3.673   6.697  17.354  0.00  0.00    +0.000 A 
ATOM      6  C   UNL     1       3.255   5.491  17.931  0.00  0.00    +0.000 A 
ENDROOT
BRANCH   5   7
ATOM      7  C   UNL     1       2.952   7.958  17.603  0.00  0.00    +0.000 C 
ATOM      8  C   UNL     1       2.163   8.138  18.673  0.00  0.00    +0.000 C 
BRANCH   8   9
ATOM      9  C   UNL     1       1.405   9.400  18.869  0.00  0.00    +0.000 C 
ATOM     10  O   UNL     1       1.331  10.252  17.989  0.00  0.00    +0.000 OA
BRANCH   9  11
ATOM     11  C   UNL     1       0.787   9.636  20.207  0.00  0.00    +0.000 A 
ATOM     12  C   UNL     1       1.221   8.835  21.274  0.00  0.00    +0.000 A 
ATOM     13  C   UNL     1       0.696   9.018  22.555  0.00  0.00    +0.000 A 
ATOM     14  C   UNL     1      -0.260  10.007  22.784  0.00  0.00    +0.000 A 
ATOM     15  C   UNL     1      -0.691  10.816  21.734  0.00  0.00    +0.000 A 
ATOM     16  C   UNL     1      -0.165  10.636  20.452  0.00  0.00    +0.000 A 
BRANCH  16  17
ATOM     17  O   UNL     1      -0.575  11.476  19.453  0.00  0.00    +0.000 OA
ATOM     18  H   UNL     1       0.033  12.230  19.385  0.00  0.00    +0.000 HD
ENDBRANCH  16  17
ENDBRANCH   9  11
ENDBRANCH   8   9
ENDBRANCH   5   7
BRANCH   1  19
ATOM     19  O   UNL     1       3.530   3.066  18.181  0.00  0.00    +0.000 OA
BRANCH  19  22
ATOM     20  N   UNL     1       2.517   2.457  20.175  0.00  0.00    +0.000 N 
ATOM     21  C   UNL     1       2.487   2.525  21.619  0.00  0.00    +0.000 C 
ATOM     22  C   UNL     1       3.720   2.737  19.532  0.00  0.00    +0.000 C 
ATOM     23  O   UNL     1       4.812   2.660  20.090  0.00  0.00    +0.000 OA
BRANCH  20  25
ATOM     24  C   UNL     1       1.000   4.173  20.507  0.00  0.00    +0.000 C 
ATOM     25  O   UNL     1       1.407   3.144  19.606  0.00  0.00    +0.000 OA
ENDBRANCH  20  25
ENDBRANCH  19  22
ENDBRANCH   1  19
TORSDOF 7
ENDMDL
MODEL 2
REMARK VINA RESULT:      -7.3      7.438     10.246
REMARK  Name = 
REMARK  9 active torsions:
REMARK  status: ('A' for Active; 'I' for Inactive)
REMARK    1  A    between atoms: C_1  and  O_2
REMARK    2  A    between atoms: O_2  and  N_3
REMARK    3  A    between atoms: N_3  and  C_4
REMARK    4  A    between atoms: C_5  and  O_7
REMARK    5  A    between atoms: O_7  and  C_8
REMARK    6  A    between atoms: C_12  and  C_13
REMARK    7  A    between atoms: C_14  and  C_15
REMARK    8  A    between atoms: C_15  and  C_17
REMARK    9  A    between atoms: C_22  and  O_23
REMARK                            x       y       z     vdW  Elec       q    Type
REMARK                         _______ _______ _______ _____ _____    ______ ____
ROOT
ATOM      1  C   UNL     1       9.524  12.344  18.351  0.00  0.00    +0.000 A 
ATOM      2  C   UNL     1       9.748  12.586  19.704  0.00  0.00    +0.000 A 
ATOM      3  C   UNL     1       9.592  11.545  20.620  0.00  0.00    +0.000 A 
ATOM      4  C   UNL     1       9.214  10.272  20.177  0.00  0.00    +0.000 A 
ATOM      5  C   UNL     1       9.004  10.023  18.812  0.00  0.00    +0.000 A 
ATOM      6  C   UNL     1       9.202  11.067  17.899  0.00  0.00    +0.000 A 
ENDROOT
BRANCH   5   7
ATOM      7  C   UNL     1       8.613   8.675  18.364  0.00  0.00    +0.000 C 
ATOM      8  C   UNL     1       7.515   8.451  17.626  0.00  0.00    +0.000 C 
BRANCH   8   9
ATOM      9  C   UNL     1       7.116   7.075  17.235  0.00  0.00    +0.000 C 
ATOM     10  O   UNL     1       7.746   6.432  16.401  0.00  0.00    +0.000 OA
BRANCH   9  11
ATOM     11  C   UNL     1       5.871   6.516  17.840  0.00  0.00    +0.000 A 
ATOM     12  C   UNL     1       4.643   6.982  17.346  0.00  0.00    +0.000 A 
ATOM     13  C   UNL     1       3.441   6.487  17.857  0.00  0.00    +0.000 A 
ATOM     14  C   UNL     1       3.454   5.517  18.858  0.00  0.00    +0.000 A 
ATOM     15  C   UNL     1       4.668   5.039  19.350  0.00  0.00    +0.000 A 
ATOM     16  C   UNL     1       5.872   5.533  18.839  0.00  0.00    +0.000 A 
BRANCH  16  17
ATOM     17  O   UNL     1       7.045   5.010  19.310  0.00  0.00    +0.000 OA
ATOM     18  H   UNL     1       7.039   5.007  20.281  0.00  0.00    +0.000 HD
ENDBRANCH  16  17
ENDBRANCH   9  11
ENDBRANCH   8   9
ENDBRANCH   5   7
BRANCH   1  19
ATOM     19  O   UNL     1       9.713  13.429  17.476  0.00  0.00    +0.000 OA
BRANCH  19  22
ATOM     20  N   UNL     1      11.280  15.114  17.753  0.00  0.00    +0.000 N 
ATOM     21  C   UNL     1      12.330  15.933  17.189  0.00  0.00    +0.000 C 
ATOM     22  C   UNL     1      10.987  13.905  17.129  0.00  0.00    +0.000 C 
ATOM     23  O   UNL     1      11.780  13.319  16.396  0.00  0.00    +0.000 OA
BRANCH  20  25
ATOM     24  C   UNL     1      10.200  17.111  17.299  0.00  0.00    +0.000 C 
ATOM     25  O   UNL     1      10.120  15.892  18.037  0.00  0.00    +0.000 OA
ENDBRANCH  20  25
ENDBRANCH  19  22
ENDBRANCH   1  19
TORSDOF 7
ENDMDL
MODEL 3
REMARK VINA RESULT:      -7.2      2.412      4.134
REMARK  Name = 
REMARK  9 active torsions:
REMARK  status: ('A' for Active; 'I' for Inactive)
REMARK    1  A    between atoms: C_1  and  O_2
REMARK    2  A    between atoms: O_2  and  N_3
REMARK    3  A    between atoms: N_3  and  C_4
REMARK    4  A    between atoms: C_5  and  O_7
REMARK    5  A    between atoms: O_7  and  C_8
REMARK    6  A    between atoms: C_12  and  C_13
REMARK    7  A    between atoms: C_14  and  C_15
REMARK    8  A    between atoms: C_15  and  C_17
REMARK    9  A    between atoms: C_22  and  O_23
REMARK                            x       y       z     vdW  Elec       q    Type
REMARK                         _______ _______ _______ _____ _____    ______ ____
ROOT
ATOM      1  C   UNL     1       2.929   4.450  18.520  0.00  0.00    +0.000 A 
ATOM      2  C   UNL     1       2.170   3.294  18.691  0.00  0.00    +0.000 A 
ATOM      3  C   UNL     1       1.178   3.266  19.671  0.00  0.00    +0.000 A 
ATOM      4  C   UNL     1       0.951   4.391  20.472  0.00  0.00    +0.000 A 
ATOM      5  C   UNL     1       1.704   5.562  20.290  0.00  0.00    +0.000 A 
ATOM      6  C   UNL     1       2.670   5.590  19.276  0.00  0.00    +0.000 A 
ENDROOT
BRANCH   5   7
ATOM      7  C   UNL     1       1.447   6.739  21.138  0.00  0.00    +0.000 C 
ATOM      8  C   UNL     1       1.376   7.983  20.642  0.00  0.00    +0.000 C 
BRANCH   8   9
ATOM      9  C   UNL     1       1.171   9.158  21.528  0.00  0.00    +0.000 C 
ATOM     10  O   UNL     1       1.745   9.259  22.608  0.00  0.00    +0.000 OA
BRANCH   9  11
ATOM     11  C   UNL     1       0.182  10.188  21.096  0.00  0.00    +0.000 A 
ATOM     12  C   UNL     1      -0.036  10.344  19.719  0.00  0.00    +0.000 A 
ATOM     13  C   UNL     1      -0.962  11.278  19.250  0.00  0.00    +0.000 A 
ATOM     14  C   UNL     1      -1.684  12.059  20.151  0.00  0.00    +0.000 A 
ATOM     15  C   UNL     1      -1.484  11.907  21.522  0.00  0.00    +0.000 A 
ATOM     16  C   UNL     1      -0.559  10.971  21.994  0.00  0.00    +0.000 A 
BRANCH  16  17
ATOM     17  O   UNL     1      -0.419  10.814  23.345  0.00  0.00    +0.000 OA
ATOM     18  H   UNL     1      -0.252   9.880  23.554  0.00  0.00    +0.000 HD
ENDBRANCH  16  17
ENDBRANCH   9  11
ENDBRANCH   8   9
ENDBRANCH   5   7
BRANCH   1  19
ATOM     19  O   UNL     1       3.902   4.422  17.505  0.00  0.00    +0.000 OA
BRANCH  19  22
ATOM     20  N   UNL     1       6.026   4.887  16.701  0.00  0.00    +0.000 N 
ATOM     21  C   UNL     1       7.432   4.553  16.656  0.00  0.00    +0.000 C 
ATOM     22  C   UNL     1       5.278   4.422  17.779  0.00  0.00    +0.000 C 
ATOM     23  O   UNL     1       5.780   4.093  18.852  0.00  0.00    +0.000 OA
BRANCH  20  25
ATOM     24  C   UNL     1       6.366   4.078  14.559  0.00  0.00    +0.000 C 
ATOM     25  O   UNL     1       5.401   4.647  15.444  0.00  0.00    +0.000 OA
ENDBRANCH  20  25
ENDBRANCH  19  22
ENDBRANCH   1  19
TORSDOF 7
ENDMDL
MODEL 4
REMARK VINA RESULT:      -7.2      1.140      1.642
REMARK  Name = 
REMARK  9 active torsions:
REMARK  status: ('A' for Active; 'I' for Inactive)
REMARK    1  A    between atoms: C_1  and  O_2
REMARK    2  A    between atoms: O_2  and  N_3
REMARK    3  A    between atoms: N_3  and  C_4
REMARK    4  A    between atoms: C_5  and  O_7
REMARK    5  A    between atoms: O_7  and  C_8
REMARK    6  A    between atoms: C_12  and  C_13
REMARK    7  A    between atoms: C_14  and  C_15
REMARK    8  A    between atoms: C_15  and  C_17
REMARK    9  A    between atoms: C_22  and  O_23
REMARK                            x       y       z     vdW  Elec       q    Type
REMARK                         _______ _______ _______ _____ _____    ______ ____
ROOT
ATOM      1  C   UNL     1       4.298   3.975  17.375  0.00  0.00    +0.000 A 
ATOM      2  C   UNL     1       5.248   3.891  16.360  0.00  0.00    +0.000 A 
ATOM      3  C   UNL     1       5.660   5.056  15.712  0.00  0.00    +0.000 A 
ATOM      4  C   UNL     1       5.121   6.293  16.081  0.00  0.00    +0.000 A 
ATOM      5  C   UNL     1       4.175   6.381  17.114  0.00  0.00    +0.000 A 
ATOM      6  C   UNL     1       3.799   5.210  17.784  0.00  0.00    +0.000 A 
ENDROOT
BRANCH   5   7
ATOM      7  C   UNL     1       3.623   7.693  17.494  0.00  0.00    +0.000 C 
ATOM      8  C   UNL     1       2.376   7.841  17.967  0.00  0.00    +0.000 C 
BRANCH   8   9
ATOM      9  C   UNL     1       1.826   9.183  18.289  0.00  0.00    +0.000 C 
ATOM     10  O   UNL     1       1.992  10.144  17.544  0.00  0.00    +0.000 OA
BRANCH   9  11
ATOM     11  C   UNL     1       1.121   9.347  19.594  0.00  0.00    +0.000 A 
ATOM     12  C   UNL     1       0.168  10.373  19.693  0.00  0.00    +0.000 A 
ATOM     13  C   UNL     1      -0.540  10.569  20.881  0.00  0.00    +0.000 A 
ATOM     14  C   UNL     1      -0.310   9.738  21.977  0.00  0.00    +0.000 A 
ATOM     15  C   UNL     1       0.627   8.709  21.887  0.00  0.00    +0.000 A 
ATOM     16  C   UNL     1       1.336   8.511  20.699  0.00  0.00    +0.000 A 
BRANCH  16  17
ATOM     17  O   UNL     1       2.214   7.465  20.629  0.00  0.00    +0.000 OA
ATOM     18  H   UNL     1       1.951   6.860  19.916  0.00  0.00    +0.000 HD
ENDBRANCH  16  17
ENDBRANCH   9  11
ENDBRANCH   8   9
ENDBRANCH   5   7
BRANCH   1  19
ATOM     19  O   UNL     1       3.935   2.769  18.002  0.00  0.00    +0.000 OA
BRANCH  19  22
ATOM     20  N   UNL     1       2.711   2.478  19.948  0.00  0.00    +0.000 N 
ATOM     21  C   UNL     1       2.561   2.728  21.364  0.00  0.00    +0.000 C 
ATOM     22  C   UNL     1       3.982   2.600  19.394  0.00  0.00    +0.000 C 
ATOM     23  O   UNL     1       5.013   2.524  20.058  0.00  0.00    +0.000 OA
BRANCH  20  25
ATOM     24  C   UNL     1       0.672   2.229  18.880  0.00  0.00    +0.000 C 
ATOM     25  O   UNL     1       1.708   3.158  19.199  0.00  0.00    +0.000 OA
ENDBRANCH  20  25
ENDBRANCH  19  22
ENDBRANCH   1  19
TORSDOF 7
ENDMDL
MODEL 5
REMARK VINA RESULT:      -7.2      2.632      4.112
REMARK  Name = 
REMARK  9 active torsions:
REMARK  status: ('A' for Active; 'I' for Inactive)
REMARK    1  A    between atoms: C_1  and  O_2
REMARK    2  A    between atoms: O_2  and  N_3
REMARK    3  A    between atoms: N_3  and  C_4
REMARK    4  A    between atoms: C_5  and  O_7
REMARK    5  A    between atoms: O_7  and  C_8
REMARK    6  A    between atoms: C_12  and  C_13
REMARK    7  A    between atoms: C_14  and  C_15
REMARK    8  A    between atoms: C_15  and  C_17
REMARK    9  A    between atoms: C_22  and  O_23
REMARK                            x       y       z     vdW  Elec       q    Type
REMARK                         _______ _______ _______ _____ _____    ______ ____
ROOT
ATOM      1  C   UNL     1       4.770   4.485  17.219  0.00  0.00    +0.000 A 
ATOM      2  C   UNL     1       4.771   3.719  18.383  0.00  0.00    +0.000 A 
ATOM      3  C   UNL     1       4.126   4.204  19.521  0.00  0.00    +0.000 A 
ATOM      4  C   UNL     1       3.486   5.448  19.489  0.00  0.00    +0.000 A 
ATOM      5  C   UNL     1       3.471   6.213  18.313  0.00  0.00    +0.000 A 
ATOM      6  C   UNL     1       4.088   5.698  17.165  0.00  0.00    +0.000 A 
ENDROOT
BRANCH   5   7
ATOM      7  C   UNL     1       2.786   7.519  18.295  0.00  0.00    +0.000 C 
ATOM      8  C   UNL     1       1.991   7.929  19.294  0.00  0.00    +0.000 C 
BRANCH   8   9
ATOM      9  C   UNL     1       1.270   9.226  19.224  0.00  0.00    +0.000 C 
ATOM     10  O   UNL     1       1.282   9.917  18.209  0.00  0.00    +0.000 OA
BRANCH   9  11
ATOM     11  C   UNL     1       0.582   9.704  20.459  0.00  0.00    +0.000 A 
ATOM     12  C   UNL     1       0.220   8.743  21.415  0.00  0.00    +0.000 A 
ATOM     13  C   UNL     1      -0.411   9.127  22.600  0.00  0.00    +0.000 A 
ATOM     14  C   UNL     1      -0.679  10.474  22.845  0.00  0.00    +0.000 A 
ATOM     15  C   UNL     1      -0.315  11.439  21.907  0.00  0.00    +0.000 A 
ATOM     16  C   UNL     1       0.318  11.056  20.721  0.00  0.00    +0.000 A 
BRANCH  16  17
ATOM     17  O   UNL     1       0.704  12.031  19.842  0.00  0.00    +0.000 OA
ATOM     18  H   UNL     1       0.165  11.981  19.035  0.00  0.00    +0.000 HD
ENDBRANCH  16  17
ENDBRANCH   9  11
ENDBRANCH   8   9
ENDBRANCH   5   7
BRANCH   1  19
ATOM     19  O   UNL     1       5.422   3.935  16.101  0.00  0.00    +0.000 OA
BRANCH  19  22
ATOM     20  N   UNL     1       6.456   4.805  14.217  0.00  0.00    +0.000 N 
ATOM     21  C   UNL     1       7.657   4.969  13.430  0.00  0.00    +0.000 C 
ATOM     22  C   UNL     1       6.596   4.488  15.565  0.00  0.00    +0.000 C 
ATOM     23  O   UNL     1       7.622   4.711  16.204  0.00  0.00    +0.000 OA
BRANCH  20  25
ATOM     24  C   UNL     1       6.148   3.395  12.408  0.00  0.00    +0.000 C 
ATOM     25  O   UNL     1       5.511   3.978  13.544  0.00  0.00    +0.000 OA
ENDBRANCH  20  25
ENDBRANCH  19  22
ENDBRANCH   1  19
TORSDOF 7
ENDMDL
MODEL 6
REMARK VINA RESULT:      -7.2      3.002      8.026
REMARK  Name = 
REMARK  9 active torsions:
REMARK  status: ('A' for Active; 'I' for Inactive)
REMARK    1  A    between atoms: C_1  and  O_2
REMARK    2  A    between atoms: O_2  and  N_3
REMARK    3  A    between atoms: N_3  and  C_4
REMARK    4  A    between atoms: C_5  and  O_7
REMARK    5  A    between atoms: O_7  and  C_8
REMARK    6  A    between atoms: C_12  and  C_13
REMARK    7  A    between atoms: C_14  and  C_15
REMARK    8  A    between atoms: C_15  and  C_17
REMARK    9  A    between atoms: C_22  and  O_23
REMARK                            x       y       z     vdW  Elec       q    Type
REMARK                         _______ _______ _______ _____ _____    ______ ____
ROOT
ATOM      1  C   UNL     1       0.135  10.067  19.589  0.00  0.00    +0.000 A 
ATOM      2  C   UNL     1      -0.209  10.125  20.938  0.00  0.00    +0.000 A 
ATOM      3  C   UNL     1       0.345   9.203  21.825  0.00  0.00    +0.000 A 
ATOM      4  C   UNL     1       1.238   8.230  21.360  0.00  0.00    +0.000 A 
ATOM      5  C   UNL     1       1.599   8.181  20.005  0.00  0.00    +0.000 A 
ATOM      6  C   UNL     1       1.066   9.138  19.131  0.00  0.00    +0.000 A 
ENDROOT
BRANCH   5   7
ATOM      7  C   UNL     1       2.546   7.155  19.534  0.00  0.00    +0.000 C 
ATOM      8  C   UNL     1       2.684   6.843  18.237  0.00  0.00    +0.000 C 
BRANCH   8   9
ATOM      9  C   UNL     1       3.606   5.765  17.796  0.00  0.00    +0.000 C 
ATOM     10  O   UNL     1       4.592   6.001  17.105  0.00  0.00    +0.000 OA
BRANCH   9  11
ATOM     11  C   UNL     1       3.257   4.361  18.163  0.00  0.00    +0.000 A 
ATOM     12  C   UNL     1       1.929   3.950  17.973  0.00  0.00    +0.000 A 
ATOM     13  C   UNL     1       1.541   2.644  18.280  0.00  0.00    +0.000 A 
ATOM     14  C   UNL     1       2.476   1.735  18.771  0.00  0.00    +0.000 A 
ATOM     15  C   UNL     1       3.801   2.128  18.956  0.00  0.00    +0.000 A 
ATOM     16  C   UNL     1       4.191   3.434  18.648  0.00  0.00    +0.000 A 
BRANCH  16  17
ATOM     17  O   UNL     1       5.507   3.775  18.796  0.00  0.00    +0.000 OA
ATOM     18  H   UNL     1       5.816   3.523  19.682  0.00  0.00    +0.000 HD
ENDBRANCH  16  17
ENDBRANCH   9  11
ENDBRANCH   8   9
ENDBRANCH   5   7
BRANCH   1  19
ATOM     19  O   UNL     1      -0.443  11.034  18.748  0.00  0.00    +0.000 OA
BRANCH  19  22
ATOM     20  N   UNL     1      -2.589  11.695  18.172  0.00  0.00    +0.000 N 
ATOM     21  C   UNL     1      -3.933  11.331  17.782  0.00  0.00    +0.000 C 
ATOM     22  C   UNL     1      -1.573  10.768  17.959  0.00  0.00    +0.000 C 
ATOM     23  O   UNL     1      -1.659   9.854  17.141  0.00  0.00    +0.000 OA
BRANCH  20  25
ATOM     24  C   UNL     1      -3.909  12.561  19.865  0.00  0.00    +0.000 C 
ATOM     25  O   UNL     1      -2.569  12.254  19.482  0.00  0.00    +0.000 OA
ENDBRANCH  20  25
ENDBRANCH  19  22
ENDBRANCH   1  19
TORSDOF 7
ENDMDL
MODEL 7
REMARK VINA RESULT:      -7.1      2.538      4.031
REMARK  Name = 
REMARK  9 active torsions:
REMARK  status: ('A' for Active; 'I' for Inactive)
REMARK    1  A    between atoms: C_1  and  O_2
REMARK    2  A    between atoms: O_2  and  N_3
REMARK    3  A    between atoms: N_3  and  C_4
REMARK    4  A    between atoms: C_5  and  O_7
REMARK    5  A    between atoms: O_7  and  C_8
REMARK    6  A    between atoms: C_12  and  C_13
REMARK    7  A    between atoms: C_14  and  C_15
REMARK    8  A    between atoms: C_15  and  C_17
REMARK    9  A    between atoms: C_22  and  O_23
REMARK                            x       y       z     vdW  Elec       q    Type
REMARK                         _______ _______ _______ _____ _____    ______ ____
ROOT
ATOM      1  C   UNL     1       4.193   4.168  19.173  0.00  0.00    +0.000 A 
ATOM      2  C   UNL     1       3.419   3.184  18.562  0.00  0.00    +0.000 A 
ATOM      3  C   UNL     1       2.029   3.258  18.647  0.00  0.00    +0.000 A 
ATOM      4  C   UNL     1       1.422   4.312  19.340  0.00  0.00    +0.000 A 
ATOM      5  C   UNL     1       2.200   5.312  19.942  0.00  0.00    +0.000 A 
ATOM      6  C   UNL     1       3.594   5.249  19.817  0.00  0.00    +0.000 A 
ENDROOT
BRANCH   5   7
ATOM      7  C   UNL     1       1.545   6.418  20.663  0.00  0.00    +0.000 C 
ATOM      8  C   UNL     1       1.834   7.706  20.424  0.00  0.00    +0.000 C 
BRANCH   8   9
ATOM      9  C   UNL     1       1.198   8.798  21.204  0.00  0.00    +0.000 C 
ATOM     10  O   UNL     1       1.288   8.854  22.427  0.00  0.00    +0.000 OA
BRANCH   9  11
ATOM     11  C   UNL     1       0.377   9.796  20.458  0.00  0.00    +0.000 A 
ATOM     12  C   UNL     1       0.146   9.559  19.094  0.00  0.00    +0.000 A 
ATOM     13  C   UNL     1      -0.628  10.445  18.343  0.00  0.00    +0.000 A 
ATOM     14  C   UNL     1      -1.186  11.571  18.948  0.00  0.00    +0.000 A 
ATOM     15  C   UNL     1      -0.972  11.812  20.304  0.00  0.00    +0.000 A 
ATOM     16  C   UNL     1      -0.198  10.925  21.058  0.00  0.00    +0.000 A 
BRANCH  16  17
ATOM     17  O   UNL     1      -0.046  11.166  22.395  0.00  0.00    +0.000 OA
ATOM     18  H   UNL     1       0.811  10.822  22.698  0.00  0.00    +0.000 HD
ENDBRANCH  16  17
ENDBRANCH   9  11
ENDBRANCH   8   9
ENDBRANCH   5   7
BRANCH   1  19
ATOM     19  O   UNL     1       5.588   4.048  19.039  0.00  0.00    +0.000 OA
BRANCH  19  22
ATOM     20  N   UNL     1       6.325   5.899  17.854  0.00  0.00    +0.000 N 
ATOM     21  C   UNL     1       7.405   6.793  17.502  0.00  0.00    +0.000 C 
ATOM     22  C   UNL     1       6.443   5.161  19.028  0.00  0.00    +0.000 C 
ATOM     23  O   UNL     1       7.185   5.486  19.953  0.00  0.00    +0.000 OA
BRANCH  20  25
ATOM     24  C   UNL     1       7.088   4.806  15.962  0.00  0.00    +0.000 C 
ATOM     25  O   UNL     1       5.929   5.110  16.736  0.00  0.00    +0.000 OA
ENDBRANCH  20  25
ENDBRANCH  19  22
ENDBRANCH   1  19
TORSDOF 7
ENDMDL
MODEL 8
REMARK VINA RESULT:      -7.1      2.334      4.108
REMARK  Name = 
REMARK  9 active torsions:
REMARK  status: ('A' for Active; 'I' for Inactive)
REMARK    1  A    between atoms: C_1  and  O_2
REMARK    2  A    between atoms: O_2  and  N_3
REMARK    3  A    between atoms: N_3  and  C_4
REMARK    4  A    between atoms: C_5  and  O_7
REMARK    5  A    between atoms: O_7  and  C_8
REMARK    6  A    between atoms: C_12  and  C_13
REMARK    7  A    between atoms: C_14  and  C_15
REMARK    8  A    between atoms: C_15  and  C_17
REMARK    9  A    between atoms: C_22  and  O_23
REMARK                            x       y       z     vdW  Elec       q    Type
REMARK                         _______ _______ _______ _____ _____    ______ ____
ROOT
ATOM      1  C   UNL     1       3.352   4.034  19.097  0.00  0.00    +0.000 A 
ATOM      2  C   UNL     1       2.365   3.053  19.036  0.00  0.00    +0.000 A 
ATOM      3  C   UNL     1       1.154   3.261  19.697  0.00  0.00    +0.000 A 
ATOM      4  C   UNL     1       0.938   4.445  20.412  0.00  0.00    +0.000 A 
ATOM      5  C   UNL     1       1.926   5.440  20.460  0.00  0.00    +0.000 A 
ATOM      6  C   UNL     1       3.122   5.237  19.759  0.00  0.00    +0.000 A 
ENDROOT
BRANCH   5   7
ATOM      7  C   UNL     1       1.679   6.684  21.212  0.00  0.00    +0.000 C 
ATOM      8  C   UNL     1       1.344   7.835  20.610  0.00  0.00    +0.000 C 
BRANCH   8   9
ATOM      9  C   UNL     1       1.156   9.086  21.389  0.00  0.00    +0.000 C 
ATOM     10  O   UNL     1       1.721   9.268  22.464  0.00  0.00    +0.000 OA
BRANCH   9  11
ATOM     11  C   UNL     1       0.195  10.096  20.857  0.00  0.00    +0.000 A 
ATOM     12  C   UNL     1      -0.064  10.083  19.478  0.00  0.00    +0.000 A 
ATOM     13  C   UNL     1      -0.967  10.991  18.919  0.00  0.00    +0.000 A 
ATOM     14  C   UNL     1      -1.624  11.913  19.732  0.00  0.00    +0.000 A 
ATOM     15  C   UNL     1      -1.382  11.929  21.105  0.00  0.00    +0.000 A 
ATOM     16  C   UNL     1      -0.480  11.021  21.666  0.00  0.00    +0.000 A 
BRANCH  16  17
ATOM     17  O   UNL     1      -0.300  11.032  23.022  0.00  0.00    +0.000 OA
ATOM     18  H   UNL     1       0.527  11.493  23.241  0.00  0.00    +0.000 HD
ENDBRANCH  16  17
ENDBRANCH   9  11
ENDBRANCH   8   9
ENDBRANCH   5   7
BRANCH   1  19
ATOM     19  O   UNL     1       4.544   3.774  18.396  0.00  0.00    +0.000 OA
BRANCH  19  22
ATOM     20  N   UNL     1       6.427   4.955  17.740  0.00  0.00    +0.000 N 
ATOM     21  C   UNL     1       6.999   6.156  17.173  0.00  0.00    +0.000 C 
ATOM     22  C   UNL     1       5.089   4.679  17.473  0.00  0.00    +0.000 C 
ATOM     23  O   UNL     1       4.485   5.151  16.512  0.00  0.00    +0.000 OA
BRANCH  20  25
ATOM     24  C   UNL     1       7.797   5.763  19.422  0.00  0.00    +0.000 C 
ATOM     25  O   UNL     1       6.757   4.833  19.120  0.00  0.00    +0.000 OA
ENDBRANCH  20  25
ENDBRANCH  19  22
ENDBRANCH   1  19
TORSDOF 7
ENDMDL
MODEL 9
REMARK VINA RESULT:      -7.1      2.843      4.349
REMARK  Name = 
REMARK  9 active torsions:
REMARK  status: ('A' for Active; 'I' for Inactive)
REMARK    1  A    between atoms: C_1  and  O_2
REMARK    2  A    between atoms: O_2  and  N_3
REMARK    3  A    between atoms: N_3  and  C_4
REMARK    4  A    between atoms: C_5  and  O_7
REMARK    5  A    between atoms: O_7  and  C_8
REMARK    6  A    between atoms: C_12  and  C_13
REMARK    7  A    between atoms: C_14  and  C_15
REMARK    8  A    between atoms: C_15  and  C_17
REMARK    9  A    between atoms: C_22  and  O_23
REMARK                            x       y       z     vdW  Elec       q    Type
REMARK                         _______ _______ _______ _____ _____    ______ ____
ROOT
ATOM      1  C   UNL     1       4.937   4.152  16.658  0.00  0.00    +0.000 A 
ATOM      2  C   UNL     1       4.348   3.129  17.399  0.00  0.00    +0.000 A 
ATOM      3  C   UNL     1       3.430   3.451  18.398  0.00  0.00    +0.000 A 
ATOM      4  C   UNL     1       3.105   4.789  18.649  0.00  0.00    +0.000 A 
ATOM      5  C   UNL     1       3.684   5.819  17.892  0.00  0.00    +0.000 A 
ATOM      6  C   UNL     1       4.576   5.481  16.866  0.00  0.00    +0.000 A 
ENDROOT
BRANCH   5   7
ATOM      7  C   UNL     1       3.326   7.222  18.166  0.00  0.00    +0.000 C 
ATOM      8  C   UNL     1       2.129   7.736  17.846  0.00  0.00    +0.000 C 
BRANCH   8   9
ATOM      9  C   UNL     1       1.816   9.168  18.083  0.00  0.00    +0.000 C 
ATOM     10  O   UNL     1       2.233  10.052  17.340  0.00  0.00    +0.000 OA
BRANCH   9  11
ATOM     11  C   UNL     1       1.030   9.513  19.304  0.00  0.00    +0.000 A 
ATOM     12  C   UNL     1       1.245   8.740  20.455  0.00  0.00    +0.000 A 
ATOM     13  C   UNL     1       0.554   9.022  21.636  0.00  0.00    +0.000 A 
ATOM     14  C   UNL     1      -0.350  10.082  21.680  0.00  0.00    +0.000 A 
ATOM     15  C   UNL     1      -0.565  10.864  20.546  0.00  0.00    +0.000 A 
ATOM     16  C   UNL     1       0.127  10.584  19.364  0.00  0.00    +0.000 A 
BRANCH  16  17
ATOM     17  O   UNL     1      -0.072  11.398  18.283  0.00  0.00    +0.000 OA
ATOM     18  H   UNL     1       0.318  10.995  17.489  0.00  0.00    +0.000 HD
ENDBRANCH  16  17
ENDBRANCH   9  11
ENDBRANCH   8   9
ENDBRANCH   5   7
BRANCH   1  19
ATOM     19  O   UNL     1       5.842   3.763  15.654  0.00  0.00    +0.000 OA
BRANCH  19  22
ATOM     20  N   UNL     1       6.646   4.611  13.652  0.00  0.00    +0.000 N 
ATOM     21  C   UNL     1       7.753   5.141  12.888  0.00  0.00    +0.000 C 
ATOM     22  C   UNL     1       6.722   4.669  15.040  0.00  0.00    +0.000 C 
ATOM     23  O   UNL     1       7.451   5.456  15.640  0.00  0.00    +0.000 OA
BRANCH  20  25
ATOM     24  C   UNL     1       5.335   3.511  12.092  0.00  0.00    +0.000 C 
ATOM     25  O   UNL     1       6.256   3.329  13.167  0.00  0.00    +0.000 OA
ENDBRANCH  20  25
ENDBRANCH  19  22
ENDBRANCH   1  19
TORSDOF 7
ENDMDL
