MODEL 1
REMARK VINA RESULT:      -6.1      0.000      0.000
REMARK  Name = 
REMARK  6 active torsions:
REMARK  status: ('A' for Active; 'I' for Inactive)
REMARK    1  A    between atoms: C_1  and  S_2
REMARK    2  A    between atoms: S_2  and  C_5
REMARK    3  A    between atoms: C_5  and  C_6
REMARK    4  A    between atoms: C_6  and  S_7
REMARK    5  A    between atoms: S_7  and  C_8
REMARK    6  A    between atoms: C_12  and  C_13
REMARK                            x       y       z     vdW  Elec       q    Type
REMARK                         _______ _______ _______ _____ _____    ______ ____
ROOT
ATOM      1  C   UNL     1       3.263   4.905  18.379  0.00  0.00    +0.000 A 
ATOM      2  C   UNL     1       2.102   4.321  17.860  0.00  0.00    +0.000 A 
ATOM      3  C   UNL     1       1.770   3.002  18.170  0.00  0.00    +0.000 A 
ATOM      4  C   UNL     1       2.590   2.261  19.021  0.00  0.00    +0.000 A 
ATOM      5  C   UNL     1       3.747   2.839  19.557  0.00  0.00    +0.000 A 
ATOM      6  C   UNL     1       4.088   4.158  19.228  0.00  0.00    +0.000 A 
ENDROOT
BRANCH   5   7
ATOM      7  C   UNL     1       4.565   2.087  20.466  0.00  0.00    +0.000 C 
ATOM      8  N   UNL     1       5.234   1.478  21.193  0.00  0.00    +0.000 NA
ENDBRANCH   5   7
BRANCH   1   9
ATOM      9  S   UNL     1       3.597   6.617  18.006  0.00  0.00    +0.000 S 
BRANCH   9  10
ATOM     10  C   UNL     1       4.786   6.467  16.622  0.00  0.00    +0.000 C 
BRANCH  10  11
ATOM     11  C   UNL     1       6.212   6.316  17.123  0.00  0.00    +0.000 C 
BRANCH  11  13
ATOM     12  C   UNL     1       5.729   3.896  15.827  0.00  0.00    +0.000 C 
ATOM     13  S   UNL     1       7.043   5.024  16.222  0.00  0.00    +0.000 S 
ATOM     14  O   UNL     1       7.939   4.349  17.143  0.00  0.00    +0.000 OA
ATOM     15  O   UNL     1       7.533   5.585  14.980  0.00  0.00    +0.000 OA
ENDBRANCH  11  13
ENDBRANCH  10  11
ENDBRANCH   9  10
ENDBRANCH   1   9
TORSDOF 5
ENDMDL
MODEL 2
REMARK VINA RESULT:      -5.6      1.112      1.262
REMARK  Name = 
REMARK  6 active torsions:
REMARK  status: ('A' for Active; 'I' for Inactive)
REMARK    1  A    between atoms: C_1  and  S_2
REMARK    2  A    between atoms: S_2  and  C_5
REMARK    3  A    between atoms: C_5  and  C_6
REMARK    4  A    between atoms: C_6  and  S_7
REMARK    5  A    between atoms: S_7  and  C_8
REMARK    6  A    between atoms: C_12  and  C_13
REMARK                            x       y       z     vdW  Elec       q    Type
REMARK                         _______ _______ _______ _____ _____    ______ ____
ROOT
ATOM      1  C   UNL     1       3.588   4.487  18.455  0.00  0.00    +0.000 A 
ATOM      2  C   UNL     1       2.808   3.762  17.547  0.00  0.00    +0.000 A 
ATOM      3  C   UNL     1       2.733   2.371  17.627  0.00  0.00    +0.000 A 
ATOM      4  C   UNL     1       3.422   1.695  18.634  0.00  0.00    +0.000 A 
ATOM      5  C   UNL     1       4.193   2.411  19.557  0.00  0.00    +0.000 A 
ATOM      6  C   UNL     1       4.284   3.807  19.461  0.00  0.00    +0.000 A 
ENDROOT
BRANCH   5   7
ATOM      7  C   UNL     1       4.866   1.714  20.616  0.00  0.00    +0.000 C 
ATOM      8  N   UNL     1       5.405   1.157  21.480  0.00  0.00    +0.000 NA
ENDBRANCH   5   7
BRANCH   1   9
ATOM      9  S   UNL     1       3.588   6.268  18.348  0.00  0.00    +0.000 S 
BRANCH   9  10
ATOM     10  C   UNL     1       4.386   6.538  16.723  0.00  0.00    +0.000 C 
BRANCH  10  11
ATOM     11  C   UNL     1       5.892   6.690  16.857  0.00  0.00    +0.000 C 
BRANCH  11  13
ATOM     12  C   UNL     1       7.561   4.567  17.549  0.00  0.00    +0.000 C 
ATOM     13  S   UNL     1       6.714   5.274  16.156  0.00  0.00    +0.000 S 
ATOM     14  O   UNL     1       7.721   5.760  15.231  0.00  0.00    +0.000 OA
ATOM     15  O   UNL     1       5.701   4.331  15.730  0.00  0.00    +0.000 OA
ENDBRANCH  11  13
ENDBRANCH  10  11
ENDBRANCH   9  10
ENDBRANCH   1   9
TORSDOF 5
ENDMDL
MODEL 3
REMARK VINA RESULT:      -5.6      3.933      5.775
REMARK  Name = 
REMARK  6 active torsions:
REMARK  status: ('A' for Active; 'I' for Inactive)
REMARK    1  A    between atoms: C_1  and  S_2
REMARK    2  A    between atoms: S_2  and  C_5
REMARK    3  A    between atoms: C_5  and  C_6
REMARK    4  A    between atoms: C_6  and  S_7
REMARK    5  A    between atoms: S_7  and  C_8
REMARK    6  A    between atoms: C_12  and  C_13
REMARK                            x       y       z     vdW  Elec       q    Type
REMARK                         _______ _______ _______ _____ _____    ______ ____
ROOT
ATOM      1  C   UNL     1       5.058   4.595  17.669  0.00  0.00    +0.000 A 
ATOM      2  C   UNL     1       4.789   5.968  17.692  0.00  0.00    +0.000 A 
ATOM      3  C   UNL     1       4.941   6.741  16.540  0.00  0.00    +0.000 A 
ATOM      4  C   UNL     1       5.345   6.139  15.348  0.00  0.00    +0.000 A 
ATOM      5  C   UNL     1       5.603   4.764  15.310  0.00  0.00    +0.000 A 
ATOM      6  C   UNL     1       5.469   3.994  16.474  0.00  0.00    +0.000 A 
ENDROOT
BRANCH   5   7
ATOM      7  C   UNL     1       5.977   4.142  14.072  0.00  0.00    +0.000 C 
ATOM      8  N   UNL     1       6.273   3.647  13.065  0.00  0.00    +0.000 NA
ENDBRANCH   5   7
BRANCH   1   9
ATOM      9  S   UNL     1       4.777   3.646  19.153  0.00  0.00    +0.000 S 
BRANCH   9  10
ATOM     10  C   UNL     1       3.836   2.217  18.504  0.00  0.00    +0.000 C 
BRANCH  10  11
ATOM     11  C   UNL     1       2.592   1.941  19.332  0.00  0.00    +0.000 C 
BRANCH  11  13
ATOM     12  C   UNL     1       1.077   4.177  20.023  0.00  0.00    +0.000 C 
ATOM     13  S   UNL     1       1.238   2.944  18.755  0.00  0.00    +0.000 S 
ATOM     14  O   UNL     1       0.040   2.126  18.783  0.00  0.00    +0.000 OA
ATOM     15  O   UNL     1       1.659   3.611  17.541  0.00  0.00    +0.000 OA
ENDBRANCH  11  13
ENDBRANCH  10  11
ENDBRANCH   9  10
ENDBRANCH   1   9
TORSDOF 5
ENDMDL
MODEL 4
REMARK VINA RESULT:      -5.6      1.004      1.118
REMARK  Name = 
REMARK  6 active torsions:
REMARK  status: ('A' for Active; 'I' for Inactive)
REMARK    1  A    between atoms: C_1  and  S_2
REMARK    2  A    between atoms: S_2  and  C_5
REMARK    3  A    between atoms: C_5  and  C_6
REMARK    4  A    between atoms: C_6  and  S_7
REMARK    5  A    between atoms: S_7  and  C_8
REMARK    6  A    between atoms: C_12  and  C_13
REMARK                            x       y       z     vdW  Elec       q    Type
REMARK                         _______ _______ _______ _____ _____    ______ ____
ROOT
ATOM      1  C   UNL     1       2.889   4.797  18.404  0.00  0.00    +0.000 A 
ATOM      2  C   UNL     1       1.859   4.070  17.797  0.00  0.00    +0.000 A 
ATOM      3  C   UNL     1       1.734   2.697  18.016  0.00  0.00    +0.000 A 
ATOM      4  C   UNL     1       2.630   2.044  18.862  0.00  0.00    +0.000 A 
ATOM      5  C   UNL     1       3.656   2.764  19.486  0.00  0.00    +0.000 A 
ATOM      6  C   UNL     1       3.791   4.139  19.248  0.00  0.00    +0.000 A 
ENDROOT
BRANCH   5   7
ATOM      7  C   UNL     1       4.548   2.095  20.389  0.00  0.00    +0.000 C 
ATOM      8  N   UNL     1       5.275   1.549  21.111  0.00  0.00    +0.000 NA
ENDBRANCH   5   7
BRANCH   1   9
ATOM      9  S   UNL     1       2.956   6.561  18.145  0.00  0.00    +0.000 S 
BRANCH   9  10
ATOM     10  C   UNL     1       4.684   6.786  17.586  0.00  0.00    +0.000 C 
BRANCH  10  11
ATOM     11  C   UNL     1       5.082   5.737  16.561  0.00  0.00    +0.000 C 
BRANCH  11  13
ATOM     12  C   UNL     1       7.442   4.549  17.448  0.00  0.00    +0.000 C 
ATOM     13  S   UNL     1       6.843   5.770  16.304  0.00  0.00    +0.000 S 
ATOM     14  O   UNL     1       7.330   7.063  16.747  0.00  0.00    +0.000 OA
ATOM     15  O   UNL     1       7.112   5.290  14.965  0.00  0.00    +0.000 OA
ENDBRANCH  11  13
ENDBRANCH  10  11
ENDBRANCH   9  10
ENDBRANCH   1   9
TORSDOF 5
ENDMDL
MODEL 5
REMARK VINA RESULT:      -5.5      3.830      5.706
REMARK  Name = 
REMARK  6 active torsions:
REMARK  status: ('A' for Active; 'I' for Inactive)
REMARK    1  A    between atoms: C_1  and  S_2
REMARK    2  A    between atoms: S_2  and  C_5
REMARK    3  A    between atoms: C_5  and  C_6
REMARK    4  A    between atoms: C_6  and  S_7
REMARK    5  A    between atoms: S_7  and  C_8
REMARK    6  A    between atoms: C_12  and  C_13
REMARK                            x       y       z     vdW  Elec       q    Type
REMARK                         _______ _______ _______ _____ _____    ______ ____
ROOT
ATOM      1  C   UNL     1       4.354   5.378  17.321  0.00  0.00    +0.000 A 
ATOM      2  C   UNL     1       4.826   4.354  16.492  0.00  0.00    +0.000 A 
ATOM      3  C   UNL     1       6.114   4.409  15.959  0.00  0.00    +0.000 A 
ATOM      4  C   UNL     1       6.950   5.481  16.270  0.00  0.00    +0.000 A 
ATOM      5  C   UNL     1       6.494   6.504  17.110  0.00  0.00    +0.000 A 
ATOM      6  C   UNL     1       5.192   6.457  17.627  0.00  0.00    +0.000 A 
ENDROOT
BRANCH   5   7
ATOM      7  C   UNL     1       7.372   7.583  17.461  0.00  0.00    +0.000 C 
ATOM      8  N   UNL     1       8.091   8.450  17.743  0.00  0.00    +0.000 NA
ENDBRANCH   5   7
BRANCH   1   9
ATOM      9  S   UNL     1       2.725   5.219  18.030  0.00  0.00    +0.000 S 
BRANCH   9  10
ATOM     10  C   UNL     1       3.094   5.300  19.821  0.00  0.00    +0.000 C 
BRANCH  10  11
ATOM     11  C   UNL     1       1.952   4.740  20.654  0.00  0.00    +0.000 C 
BRANCH  11  13
ATOM     12  C   UNL     1       1.140   2.304  19.571  0.00  0.00    +0.000 C 
ATOM     13  S   UNL     1       2.152   2.983  20.863  0.00  0.00    +0.000 S 
ATOM     14  O   UNL     1       1.549   2.617  22.131  0.00  0.00    +0.000 OA
ATOM     15  O   UNL     1       3.530   2.649  20.567  0.00  0.00    +0.000 OA
ENDBRANCH  11  13
ENDBRANCH  10  11
ENDBRANCH   9  10
ENDBRANCH   1   9
TORSDOF 5
ENDMDL
MODEL 6
REMARK VINA RESULT:      -5.5      2.167      2.593
REMARK  Name = 
REMARK  6 active torsions:
REMARK  status: ('A' for Active; 'I' for Inactive)
REMARK    1  A    between atoms: C_1  and  S_2
REMARK    2  A    between atoms: S_2  and  C_5
REMARK    3  A    between atoms: C_5  and  C_6
REMARK    4  A    between atoms: C_6  and  S_7
REMARK    5  A    between atoms: S_7  and  C_8
REMARK    6  A    between atoms: C_12  and  C_13
REMARK                            x       y       z     vdW  Elec       q    Type
REMARK                         _______ _______ _______ _____ _____    ______ ____
ROOT
ATOM      1  C   UNL     1       3.036   4.659  18.462  0.00  0.00    +0.000 A 
ATOM      2  C   UNL     1       2.778   6.009  18.728  0.00  0.00    +0.000 A 
ATOM      3  C   UNL     1       2.121   6.389  19.899  0.00  0.00    +0.000 A 
ATOM      4  C   UNL     1       1.735   5.420  20.825  0.00  0.00    +0.000 A 
ATOM      5  C   UNL     1       2.000   4.068  20.576  0.00  0.00    +0.000 A 
ATOM      6  C   UNL     1       2.642   3.688  19.389  0.00  0.00    +0.000 A 
ENDROOT
BRANCH   5   7
ATOM      7  C   UNL     1       1.639   3.079  21.551  0.00  0.00    +0.000 C 
ATOM      8  N   UNL     1       1.338   2.284  22.341  0.00  0.00    +0.000 NA
ENDBRANCH   5   7
BRANCH   1   9
ATOM      9  S   UNL     1       3.942   4.240  16.983  0.00  0.00    +0.000 S 
BRANCH   9  10
ATOM     10  C   UNL     1       4.948   5.747  16.729  0.00  0.00    +0.000 C 
BRANCH  10  11
ATOM     11  C   UNL     1       5.420   5.869  15.289  0.00  0.00    +0.000 C 
BRANCH  11  13
ATOM     12  C   UNL     1       7.428   4.507  16.661  0.00  0.00    +0.000 C 
ATOM     13  S   UNL     1       6.830   4.816  15.017  0.00  0.00    +0.000 S 
ATOM     14  O   UNL     1       7.837   5.596  14.323  0.00  0.00    +0.000 OA
ATOM     15  O   UNL     1       6.355   3.559  14.477  0.00  0.00    +0.000 OA
ENDBRANCH  11  13
ENDBRANCH  10  11
ENDBRANCH   9  10
ENDBRANCH   1   9
TORSDOF 5
ENDMDL
MODEL 7
REMARK VINA RESULT:      -5.5      3.912      5.539
REMARK  Name = 
REMARK  6 active torsions:
REMARK  status: ('A' for Active; 'I' for Inactive)
REMARK    1  A    between atoms: C_1  and  S_2
REMARK    2  A    between atoms: S_2  and  C_5
REMARK    3  A    between atoms: C_5  and  C_6
REMARK    4  A    between atoms: C_6  and  S_7
REMARK    5  A    between atoms: S_7  and  C_8
REMARK    6  A    between atoms: C_12  and  C_13
REMARK                            x       y       z     vdW  Elec       q    Type
REMARK                         _______ _______ _______ _____ _____    ______ ____
ROOT
ATOM      1  C   UNL     1       4.851   5.696  17.581  0.00  0.00    +0.000 A 
ATOM      2  C   UNL     1       5.954   5.575  18.433  0.00  0.00    +0.000 A 
ATOM      3  C   UNL     1       7.130   4.965  17.992  0.00  0.00    +0.000 A 
ATOM      4  C   UNL     1       7.216   4.489  16.684  0.00  0.00    +0.000 A 
ATOM      5  C   UNL     1       6.124   4.618  15.817  0.00  0.00    +0.000 A 
ATOM      6  C   UNL     1       4.938   5.212  16.270  0.00  0.00    +0.000 A 
ENDROOT
BRANCH   5   7
ATOM      7  C   UNL     1       6.233   4.165  14.460  0.00  0.00    +0.000 C 
ATOM      8  N   UNL     1       6.331   3.803  13.361  0.00  0.00    +0.000 NA
ENDBRANCH   5   7
BRANCH   1   9
ATOM      9  S   UNL     1       3.402   6.548  18.177  0.00  0.00    +0.000 S 
BRANCH   9  10
ATOM     10  C   UNL     1       2.559   5.225  19.120  0.00  0.00    +0.000 C 
BRANCH  10  11
ATOM     11  C   UNL     1       1.723   4.338  18.213  0.00  0.00    +0.000 C 
BRANCH  11  13
ATOM     12  C   UNL     1       2.939   1.830  18.166  0.00  0.00    +0.000 C 
ATOM     13  S   UNL     1       1.585   2.706  18.913  0.00  0.00    +0.000 S 
ATOM     14  O   UNL     1       0.355   2.116  18.420  0.00  0.00    +0.000 OA
ATOM     15  O   UNL     1       1.851   2.802  20.333  0.00  0.00    +0.000 OA
ENDBRANCH  11  13
ENDBRANCH  10  11
ENDBRANCH   9  10
ENDBRANCH   1   9
TORSDOF 5
ENDMDL
MODEL 8
REMARK VINA RESULT:      -5.4      1.892      2.040
REMARK  Name = 
REMARK  6 active torsions:
REMARK  status: ('A' for Active; 'I' for Inactive)
REMARK    1  A    between atoms: C_1  and  S_2
REMARK    2  A    between atoms: S_2  and  C_5
REMARK    3  A    between atoms: C_5  and  C_6
REMARK    4  A    between atoms: C_6  and  S_7
REMARK    5  A    between atoms: S_7  and  C_8
REMARK    6  A    between atoms: C_12  and  C_13
REMARK                            x       y       z     vdW  Elec       q    Type
REMARK                         _______ _______ _______ _____ _____    ______ ____
ROOT
ATOM      1  C   UNL     1       2.391   5.318  18.773  0.00  0.00    +0.000 A 
ATOM      2  C   UNL     1       1.975   4.644  17.619  0.00  0.00    +0.000 A 
ATOM      3  C   UNL     1       1.409   3.372  17.706  0.00  0.00    +0.000 A 
ATOM      4  C   UNL     1       1.236   2.771  18.953  0.00  0.00    +0.000 A 
ATOM      5  C   UNL     1       1.634   3.442  20.115  0.00  0.00    +0.000 A 
ATOM      6  C   UNL     1       2.222   4.712  20.023  0.00  0.00    +0.000 A 
ENDROOT
BRANCH   5   7
ATOM      7  C   UNL     1       1.415   2.839  21.398  0.00  0.00    +0.000 C 
ATOM      8  N   UNL     1       1.247   2.353  22.439  0.00  0.00    +0.000 NA
ENDBRANCH   5   7
BRANCH   1   9
ATOM      9  S   UNL     1       3.041   6.971  18.608  0.00  0.00    +0.000 S 
BRANCH   9  10
ATOM     10  C   UNL     1       4.317   6.737  17.316  0.00  0.00    +0.000 C 
BRANCH  10  11
ATOM     11  C   UNL     1       5.519   5.976  17.848  0.00  0.00    +0.000 C 
BRANCH  11  13
ATOM     12  C   UNL     1       5.622   5.473  15.108  0.00  0.00    +0.000 C 
ATOM     13  S   UNL     1       6.025   4.736  16.674  0.00  0.00    +0.000 S 
ATOM     14  O   UNL     1       5.165   3.582  16.851  0.00  0.00    +0.000 OA
ATOM     15  O   UNL     1       7.466   4.612  16.745  0.00  0.00    +0.000 OA
ENDBRANCH  11  13
ENDBRANCH  10  11
ENDBRANCH   9  10
ENDBRANCH   1   9
TORSDOF 5
ENDMDL
MODEL 9
REMARK VINA RESULT:      -5.4      4.033      5.817
REMARK  Name = 
REMARK  6 active torsions:
REMARK  status: ('A' for Active; 'I' for Inactive)
REMARK    1  A    between atoms: C_1  and  S_2
REMARK    2  A    between atoms: S_2  and  C_5
REMARK    3  A    between atoms: C_5  and  C_6
REMARK    4  A    between atoms: C_6  and  S_7
REMARK    5  A    between atoms: S_7  and  C_8
REMARK    6  A    between atoms: C_12  and  C_13
REMARK                            x       y       z     vdW  Elec       q    Type
REMARK                         _______ _______ _______ _____ _____    ______ ____
ROOT
ATOM      1  C   UNL     1       4.496   4.963  17.044  0.00  0.00    +0.000 A 
ATOM      2  C   UNL     1       5.064   4.032  16.167  0.00  0.00    +0.000 A 
ATOM      3  C   UNL     1       6.361   4.212  15.683  0.00  0.00    +0.000 A 
ATOM      4  C   UNL     1       7.108   5.317  16.091  0.00  0.00    +0.000 A 
ATOM      5  C   UNL     1       6.554   6.247  16.979  0.00  0.00    +0.000 A 
ATOM      6  C   UNL     1       5.244   6.074  17.447  0.00  0.00    +0.000 A 
ENDROOT
BRANCH   5   7
ATOM      7  C   UNL     1       7.341   7.360  17.429  0.00  0.00    +0.000 C 
ATOM      8  N   UNL     1       7.982   8.253  17.800  0.00  0.00    +0.000 NA
ENDBRANCH   5   7
BRANCH   1   9
ATOM      9  S   UNL     1       2.862   4.643  17.685  0.00  0.00    +0.000 S 
BRANCH   9  10
ATOM     10  C   UNL     1       3.056   2.952  18.360  0.00  0.00    +0.000 C 
BRANCH  10  11
ATOM     11  C   UNL     1       3.422   2.977  19.834  0.00  0.00    +0.000 C 
BRANCH  11  13
ATOM     12  C   UNL     1       1.896   4.978  21.032  0.00  0.00    +0.000 C 
ATOM     13  S   UNL     1       1.960   3.215  20.823  0.00  0.00    +0.000 S 
ATOM     14  O   UNL     1       2.207   2.627  22.126  0.00  0.00    +0.000 OA
ATOM     15  O   UNL     1       0.813   2.822  20.031  0.00  0.00    +0.000 OA
ENDBRANCH  11  13
ENDBRANCH  10  11
ENDBRANCH   9  10
ENDBRANCH   1   9
TORSDOF 5
ENDMDL
