MODEL 1
REMARK VINA RESULT:      -7.9      0.000      0.000
REMARK  Name = 
REMARK  6 active torsions:
REMARK  status: ('A' for Active; 'I' for Inactive)
REMARK    1  A    between atoms: C_1  and  C_2
REMARK    2  A    between atoms: C_2  and  C_3
REMARK    3  A    between atoms: C_3  and  C_4
REMARK    4  A    between atoms: N_6  and  C_7
REMARK    5  A    between atoms: N_15  and  N_16
REMARK    6  A    between atoms: C_17  and  C_19
REMARK                            x       y       z     vdW  Elec       q    Type
REMARK                         _______ _______ _______ _____ _____    ______ ____
ROOT
ATOM      1  C   UNL     1      -0.136   8.931  21.951  0.00  0.00    +0.000 C 
ATOM      2  C   UNL     1       0.661   9.517  20.807  0.00  0.00    +0.000 C 
ATOM      3  N   UNL     1       1.523   8.848  20.096  0.00  0.00    +0.000 NA
ENDROOT
BRANCH   3   4
ATOM      4  N   UNL     1       1.734   7.537  20.401  0.00  0.00    +0.000 N 
ATOM      5  C   UNL     1       2.275   6.658  19.477  0.00  0.00    +0.000 C 
ATOM      6  O   UNL     1       2.646   6.969  18.348  0.00  0.00    +0.000 OA
ATOM      7  H   UNL     1       1.474   7.187  21.314  0.00  0.00    +0.000 HD
BRANCH   5   8
ATOM      8  C   UNL     1       2.479   5.250  19.955  0.00  0.00    +0.000 A 
ATOM      9  C   UNL     1       1.406   4.680  20.657  0.00  0.00    +0.000 A 
ATOM     10  C   UNL     1       1.475   3.362  21.127  0.00  0.00    +0.000 A 
ATOM     11  C   UNL     1       2.617   2.600  20.905  0.00  0.00    +0.000 A 
ATOM     12  C   UNL     1       3.695   3.160  20.224  0.00  0.00    +0.000 A 
ATOM     13  C   UNL     1       3.643   4.483  19.758  0.00  0.00    +0.000 A 
ATOM     14 BR   UNL     1       5.234   5.114  18.930  0.00  0.00    +0.000 Br
ENDBRANCH   5   8
ENDBRANCH   3   4
BRANCH   2  15
ATOM     15  C   UNL     1       0.482  10.982  20.488  0.00  0.00    +0.000 C 
BRANCH  15  16
ATOM     16  C   UNL     1      -0.372  11.269  19.282  0.00  0.00    +0.000 C 
ATOM     17  O   UNL     1      -0.152  12.249  18.574  0.00  0.00    +0.000 OA
ATOM     18  N   UNL     1      -1.409  10.371  19.083  0.00  0.00    +0.000 N 
ATOM     19  H   UNL     1      -1.807   9.964  19.926  0.00  0.00    +0.000 HD
BRANCH  18  20
ATOM     20  C   UNL     1      -2.295  10.516  17.982  0.00  0.00    +0.000 A 
ATOM     21  C   UNL     1      -2.011   9.878  16.766  0.00  0.00    +0.000 A 
ATOM     22  C   UNL     1      -2.843  10.058  15.661  0.00  0.00    +0.000 A 
ATOM     23  C   UNL     1      -3.951  10.897  15.757  0.00  0.00    +0.000 A 
ATOM     24  C   UNL     1      -4.257  11.521  16.972  0.00  0.00    +0.000 A 
ATOM     25 CL   UNL     1      -5.625  12.578  16.999  0.00  0.00    +0.000 Cl
ATOM     26  C   UNL     1      -3.450  11.306  18.100  0.00  0.00    +0.000 A 
ATOM     27 CL   UNL     1      -3.797  12.073  19.618  0.00  0.00    +0.000 Cl
ENDBRANCH  18  20
ENDBRANCH  15  16
ENDBRANCH   2  15
TORSDOF 5
ENDMDL
MODEL 2
REMARK VINA RESULT:      -7.4      4.149      8.100
REMARK  Name = 
REMARK  6 active torsions:
REMARK  status: ('A' for Active; 'I' for Inactive)
REMARK    1  A    between atoms: C_1  and  C_2
REMARK    2  A    between atoms: C_2  and  C_3
REMARK    3  A    between atoms: C_3  and  C_4
REMARK    4  A    between atoms: N_6  and  C_7
REMARK    5  A    between atoms: N_15  and  N_16
REMARK    6  A    between atoms: C_17  and  C_19
REMARK                            x       y       z     vdW  Elec       q    Type
REMARK                         _______ _______ _______ _____ _____    ______ ____
ROOT
ATOM      1  C   UNL     1       0.583   9.552  17.522  0.00  0.00    +0.000 C 
ATOM      2  C   UNL     1       1.609   8.937  18.446  0.00  0.00    +0.000 C 
ATOM      3  N   UNL     1       1.525   8.946  19.746  0.00  0.00    +0.000 NA
ENDROOT
BRANCH   3   4
ATOM      4  N   UNL     1       0.449   9.556  20.319  0.00  0.00    +0.000 N 
ATOM      5  C   UNL     1       0.558  10.804  20.912  0.00  0.00    +0.000 C 
ATOM      6  O   UNL     1       1.583  11.479  20.942  0.00  0.00    +0.000 OA
ATOM      7  H   UNL     1      -0.446   9.085  20.333  0.00  0.00    +0.000 HD
BRANCH   5   8
ATOM      8  C   UNL     1      -0.711  11.370  21.480  0.00  0.00    +0.000 A 
ATOM      9  C   UNL     1      -0.959  11.084  22.831  0.00  0.00    +0.000 A 
ATOM     10  C   UNL     1      -2.099  11.583  23.473  0.00  0.00    +0.000 A 
ATOM     11  C   UNL     1      -3.007  12.371  22.773  0.00  0.00    +0.000 A 
ATOM     12  C   UNL     1      -2.780  12.649  21.427  0.00  0.00    +0.000 A 
ATOM     13  C   UNL     1      -1.647  12.145  20.770  0.00  0.00    +0.000 A 
ATOM     14 BR   UNL     1      -1.541  12.547  18.914  0.00  0.00    +0.000 Br
ENDBRANCH   5   8
ENDBRANCH   3   4
BRANCH   2  15
ATOM     15  C   UNL     1       2.835   8.304  17.833  0.00  0.00    +0.000 C 
BRANCH  15  16
ATOM     16  C   UNL     1       3.072   6.869  18.224  0.00  0.00    +0.000 C 
ATOM     17  O   UNL     1       4.195   6.478  18.532  0.00  0.00    +0.000 OA
ATOM     18  N   UNL     1       1.946   6.063  18.166  0.00  0.00    +0.000 N 
ATOM     19  H   UNL     1       1.263   6.310  17.453  0.00  0.00    +0.000 HD
BRANCH  18  20
ATOM     20  C   UNL     1       2.018   4.687  18.510  0.00  0.00    +0.000 A 
ATOM     21  C   UNL     1       2.235   3.726  17.512  0.00  0.00    +0.000 A 
ATOM     22  C   UNL     1       2.251   2.368  17.829  0.00  0.00    +0.000 A 
ATOM     23  C   UNL     1       2.026   1.960  19.142  0.00  0.00    +0.000 A 
ATOM     24  C   UNL     1       1.832   2.911  20.150  0.00  0.00    +0.000 A 
ATOM     25 CL   UNL     1       1.519   2.323  21.746  0.00  0.00    +0.000 Cl
ATOM     26  C   UNL     1       1.861   4.280  19.846  0.00  0.00    +0.000 A 
ATOM     27 CL   UNL     1       1.612   5.484  21.071  0.00  0.00    +0.000 Cl
ENDBRANCH  18  20
ENDBRANCH  15  16
ENDBRANCH   2  15
TORSDOF 5
ENDMDL
MODEL 3
REMARK VINA RESULT:      -7.4      4.643      8.748
REMARK  Name = 
REMARK  6 active torsions:
REMARK  status: ('A' for Active; 'I' for Inactive)
REMARK    1  A    between atoms: C_1  and  C_2
REMARK    2  A    between atoms: C_2  and  C_3
REMARK    3  A    between atoms: C_3  and  C_4
REMARK    4  A    between atoms: N_6  and  C_7
REMARK    5  A    between atoms: N_15  and  N_16
REMARK    6  A    between atoms: C_17  and  C_19
REMARK                            x       y       z     vdW  Elec       q    Type
REMARK                         _______ _______ _______ _____ _____    ______ ____
ROOT
ATOM      1  C   UNL     1       0.641   4.254  20.137  0.00  0.00    +0.000 C 
ATOM      2  C   UNL     1       2.009   4.469  20.746  0.00  0.00    +0.000 C 
ATOM      3  N   UNL     1       2.493   5.634  21.069  0.00  0.00    +0.000 NA
ENDROOT
BRANCH   3   4
ATOM      4  N   UNL     1       1.728   6.738  20.840  0.00  0.00    +0.000 N 
ATOM      5  C   UNL     1       1.994   7.595  19.784  0.00  0.00    +0.000 C 
ATOM      6  O   UNL     1       2.885   7.429  18.955  0.00  0.00    +0.000 OA
ATOM      7  H   UNL     1       0.959   6.954  21.462  0.00  0.00    +0.000 HD
BRANCH   5   8
ATOM      8  C   UNL     1       1.056   8.756  19.631  0.00  0.00    +0.000 A 
ATOM      9  C   UNL     1       0.738   9.118  18.313  0.00  0.00    +0.000 A 
ATOM     10  C   UNL     1      -0.149  10.170  18.052  0.00  0.00    +0.000 A 
ATOM     11  C   UNL     1      -0.726  10.875  19.103  0.00  0.00    +0.000 A 
ATOM     12  C   UNL     1      -0.407  10.536  20.415  0.00  0.00    +0.000 A 
ATOM     13  C   UNL     1       0.490   9.491  20.690  0.00  0.00    +0.000 A 
ATOM     14 BR   UNL     1       0.882   9.223  22.531  0.00  0.00    +0.000 Br
ENDBRANCH   5   8
ENDBRANCH   3   4
BRANCH   2  15
ATOM     15  C   UNL     1       2.894   3.264  20.957  0.00  0.00    +0.000 C 
BRANCH  15  16
ATOM     16  C   UNL     1       4.070   3.169  20.022  0.00  0.00    +0.000 C 
ATOM     17  O   UNL     1       4.798   2.179  20.025  0.00  0.00    +0.000 OA
ATOM     18  N   UNL     1       4.260   4.283  19.220  0.00  0.00    +0.000 N 
ATOM     19  H   UNL     1       3.980   5.173  19.627  0.00  0.00    +0.000 HD
BRANCH  18  20
ATOM     20  C   UNL     1       5.330   4.334  18.287  0.00  0.00    +0.000 A 
ATOM     21  C   UNL     1       6.604   4.744  18.704  0.00  0.00    +0.000 A 
ATOM     22  C   UNL     1       7.649   4.853  17.787  0.00  0.00    +0.000 A 
ATOM     23  C   UNL     1       7.420   4.576  16.440  0.00  0.00    +0.000 A 
ATOM     24  C   UNL     1       6.159   4.144  16.016  0.00  0.00    +0.000 A 
ATOM     25 CL   UNL     1       5.944   3.859  14.324  0.00  0.00    +0.000 Cl
ATOM     26  C   UNL     1       5.116   3.987  16.942  0.00  0.00    +0.000 A 
ATOM     27 CL   UNL     1       3.537   3.463  16.447  0.00  0.00    +0.000 Cl
ENDBRANCH  18  20
ENDBRANCH  15  16
ENDBRANCH   2  15
TORSDOF 5
ENDMDL
MODEL 4
REMARK VINA RESULT:      -7.3      1.487      2.069
REMARK  Name = 
REMARK  6 active torsions:
REMARK  status: ('A' for Active; 'I' for Inactive)
REMARK    1  A    between atoms: C_1  and  C_2
REMARK    2  A    between atoms: C_2  and  C_3
REMARK    3  A    between atoms: C_3  and  C_4
REMARK    4  A    between atoms: N_6  and  C_7
REMARK    5  A    between atoms: N_15  and  N_16
REMARK    6  A    between atoms: C_17  and  C_19
REMARK                            x       y       z     vdW  Elec       q    Type
REMARK                         _______ _______ _______ _____ _____    ______ ____
ROOT
ATOM      1  C   UNL     1       1.398   9.270  21.950  0.00  0.00    +0.000 C 
ATOM      2  C   UNL     1       0.911   9.850  20.641  0.00  0.00    +0.000 C 
ATOM      3  N   UNL     1       1.161   9.333  19.472  0.00  0.00    +0.000 NA
ENDROOT
BRANCH   3   4
ATOM      4  N   UNL     1       1.918   8.200  19.414  0.00  0.00    +0.000 N 
ATOM      5  C   UNL     1       2.557   7.818  18.246  0.00  0.00    +0.000 C 
ATOM      6  O   UNL     1       2.543   8.458  17.198  0.00  0.00    +0.000 OA
ATOM      7  H   UNL     1       2.002   7.612  20.233  0.00  0.00    +0.000 HD
BRANCH   5   8
ATOM      8  C   UNL     1       3.380   6.565  18.332  0.00  0.00    +0.000 A 
ATOM      9  C   UNL     1       4.415   6.447  17.392  0.00  0.00    +0.000 A 
ATOM     10  C   UNL     1       5.263   5.332  17.394  0.00  0.00    +0.000 A 
ATOM     11  C   UNL     1       5.085   4.322  18.333  0.00  0.00    +0.000 A 
ATOM     12  C   UNL     1       4.052   4.420  19.261  0.00  0.00    +0.000 A 
ATOM     13  C   UNL     1       3.188   5.526  19.261  0.00  0.00    +0.000 A 
ATOM     14 BR   UNL     1       1.779   5.455  20.537  0.00  0.00    +0.000 Br
ENDBRANCH   5   8
ENDBRANCH   3   4
BRANCH   2  15
ATOM     15  C   UNL     1       0.118  11.134  20.679  0.00  0.00    +0.000 C 
BRANCH  15  16
ATOM     16  C   UNL     1      -0.685  11.421  19.438  0.00  0.00    +0.000 C 
ATOM     17  O   UNL     1      -0.486  12.441  18.783  0.00  0.00    +0.000 OA
ATOM     18  N   UNL     1      -1.654  10.474  19.146  0.00  0.00    +0.000 N 
ATOM     19  H   UNL     1      -2.072  10.009  19.949  0.00  0.00    +0.000 HD
BRANCH  18  20
ATOM     20  C   UNL     1      -2.485  10.612  18.003  0.00  0.00    +0.000 A 
ATOM     21  C   UNL     1      -2.124   9.999  16.795  0.00  0.00    +0.000 A 
ATOM     22  C   UNL     1      -2.902  10.174  15.651  0.00  0.00    +0.000 A 
ATOM     23  C   UNL     1      -4.034  10.985  15.701  0.00  0.00    +0.000 A 
ATOM     24  C   UNL     1      -4.418  11.584  16.906  0.00  0.00    +0.000 A 
ATOM     25 CL   UNL     1      -5.810  12.608  16.877  0.00  0.00    +0.000 Cl
ATOM     26  C   UNL     1      -3.664  11.374  18.072  0.00  0.00    +0.000 A 
ATOM     27 CL   UNL     1      -4.107  12.111  19.580  0.00  0.00    +0.000 Cl
ENDBRANCH  18  20
ENDBRANCH  15  16
ENDBRANCH   2  15
TORSDOF 5
ENDMDL
MODEL 5
REMARK VINA RESULT:      -7.2      4.676      8.444
REMARK  Name = 
REMARK  6 active torsions:
REMARK  status: ('A' for Active; 'I' for Inactive)
REMARK    1  A    between atoms: C_1  and  C_2
REMARK    2  A    between atoms: C_2  and  C_3
REMARK    3  A    between atoms: C_3  and  C_4
REMARK    4  A    between atoms: N_6  and  C_7
REMARK    5  A    between atoms: N_15  and  N_16
REMARK    6  A    between atoms: C_17  and  C_19
REMARK                            x       y       z     vdW  Elec       q    Type
REMARK                         _______ _______ _______ _____ _____    ______ ____
ROOT
ATOM      1  C   UNL     1       0.770   3.763  20.793  0.00  0.00    +0.000 C 
ATOM      2  C   UNL     1       2.152   4.054  20.251  0.00  0.00    +0.000 C 
ATOM      3  N   UNL     1       2.700   5.235  20.237  0.00  0.00    +0.000 NA
ENDROOT
BRANCH   3   4
ATOM      4  N   UNL     1       1.986   6.285  20.734  0.00  0.00    +0.000 N 
ATOM      5  C   UNL     1       1.944   7.504  20.077  0.00  0.00    +0.000 C 
ATOM      6  O   UNL     1       2.488   7.741  19.002  0.00  0.00    +0.000 OA
ATOM      7  H   UNL     1       1.490   6.184  21.610  0.00  0.00    +0.000 HD
BRANCH   5   8
ATOM      8  C   UNL     1       1.097   8.564  20.720  0.00  0.00    +0.000 A 
ATOM      9  C   UNL     1       0.982   8.491  22.117  0.00  0.00    +0.000 A 
ATOM     10  C   UNL     1       0.238   9.443  22.826  0.00  0.00    +0.000 A 
ATOM     11  C   UNL     1      -0.401  10.476  22.149  0.00  0.00    +0.000 A 
ATOM     12  C   UNL     1      -0.307  10.550  20.761  0.00  0.00    +0.000 A 
ATOM     13  C   UNL     1       0.425   9.596  20.039  0.00  0.00    +0.000 A 
ATOM     14 BR   UNL     1       0.374   9.795  18.148  0.00  0.00    +0.000 Br
ENDBRANCH   5   8
ENDBRANCH   3   4
BRANCH   2  15
ATOM     15  C   UNL     1       2.937   2.915  19.647  0.00  0.00    +0.000 C 
BRANCH  15  16
ATOM     16  C   UNL     1       4.184   3.325  18.910  0.00  0.00    +0.000 C 
ATOM     17  O   UNL     1       5.297   3.093  19.378  0.00  0.00    +0.000 OA
ATOM     18  N   UNL     1       3.956   3.994  17.718  0.00  0.00    +0.000 N 
ATOM     19  H   UNL     1       3.114   4.564  17.687  0.00  0.00    +0.000 HD
BRANCH  18  20
ATOM     20  C   UNL     1       5.039   4.439  16.914  0.00  0.00    +0.000 A 
ATOM     21  C   UNL     1       5.418   3.706  15.781  0.00  0.00    +0.000 A 
ATOM     22  C   UNL     1       6.516   4.101  15.016  0.00  0.00    +0.000 A 
ATOM     23  C   UNL     1       7.257   5.219  15.394  0.00  0.00    +0.000 A 
ATOM     24  C   UNL     1       6.875   5.972  16.510  0.00  0.00    +0.000 A 
ATOM     25 CL   UNL     1       7.870   7.320  16.937  0.00  0.00    +0.000 Cl
ATOM     26  C   UNL     1       5.744   5.606  17.256  0.00  0.00    +0.000 A 
ATOM     27 CL   UNL     1       5.249   6.512  18.651  0.00  0.00    +0.000 Cl
ENDBRANCH  18  20
ENDBRANCH  15  16
ENDBRANCH   2  15
TORSDOF 5
ENDMDL
MODEL 6
REMARK VINA RESULT:      -7.2      6.982      9.272
REMARK  Name = 
REMARK  6 active torsions:
REMARK  status: ('A' for Active; 'I' for Inactive)
REMARK    1  A    between atoms: C_1  and  C_2
REMARK    2  A    between atoms: C_2  and  C_3
REMARK    3  A    between atoms: C_3  and  C_4
REMARK    4  A    between atoms: N_6  and  C_7
REMARK    5  A    between atoms: N_15  and  N_16
REMARK    6  A    between atoms: C_17  and  C_19
REMARK                            x       y       z     vdW  Elec       q    Type
REMARK                         _______ _______ _______ _____ _____    ______ ____
ROOT
ATOM      1  C   UNL     1       7.698   6.032  19.166  0.00  0.00    +0.000 C 
ATOM      2  C   UNL     1       7.195   6.949  18.074  0.00  0.00    +0.000 C 
ATOM      3  N   UNL     1       5.973   6.950  17.622  0.00  0.00    +0.000 NA
ENDROOT
BRANCH   3   4
ATOM      4  N   UNL     1       5.086   6.065  18.156  0.00  0.00    +0.000 N 
ATOM      5  C   UNL     1       3.738   6.368  18.261  0.00  0.00    +0.000 C 
ATOM      6  O   UNL     1       3.220   7.406  17.860  0.00  0.00    +0.000 OA
ATOM      7  H   UNL     1       5.415   5.173  18.503  0.00  0.00    +0.000 HD
BRANCH   5   8
ATOM      8  C   UNL     1       2.869   5.290  18.842  0.00  0.00    +0.000 A 
ATOM      9  C   UNL     1       2.155   5.638  19.999  0.00  0.00    +0.000 A 
ATOM     10  C   UNL     1       1.293   4.720  20.613  0.00  0.00    +0.000 A 
ATOM     11  C   UNL     1       1.136   3.444  20.081  0.00  0.00    +0.000 A 
ATOM     12  C   UNL     1       1.852   3.082  18.942  0.00  0.00    +0.000 A 
ATOM     13  C   UNL     1       2.728   3.989  18.325  0.00  0.00    +0.000 A 
ATOM     14 BR   UNL     1       3.691   3.301  16.837  0.00  0.00    +0.000 Br
ENDBRANCH   5   8
ENDBRANCH   3   4
BRANCH   2  15
ATOM     15  C   UNL     1       8.177   7.899  17.431  0.00  0.00    +0.000 C 
BRANCH  15  16
ATOM     16  C   UNL     1       8.273   9.251  18.088  0.00  0.00    +0.000 C 
ATOM     17  O   UNL     1       7.530  10.169  17.749  0.00  0.00    +0.000 OA
ATOM     18  N   UNL     1       9.269   9.357  19.045  0.00  0.00    +0.000 N 
ATOM     19  H   UNL     1      10.098   8.788  18.884  0.00  0.00    +0.000 HD
BRANCH  18  20
ATOM     20  C   UNL     1       9.476  10.573  19.749  0.00  0.00    +0.000 A 
ATOM     21  C   UNL     1       8.953  10.733  21.040  0.00  0.00    +0.000 A 
ATOM     22  C   UNL     1       9.099  11.942  21.719  0.00  0.00    +0.000 A 
ATOM     23  C   UNL     1       9.749  13.009  21.102  0.00  0.00    +0.000 A 
ATOM     24  C   UNL     1      10.295  12.854  19.823  0.00  0.00    +0.000 A 
ATOM     25 CL   UNL     1      11.049  14.237  19.109  0.00  0.00    +0.000 Cl
ATOM     26  C   UNL     1      10.191  11.625  19.153  0.00  0.00    +0.000 A 
ATOM     27 CL   UNL     1      10.849  11.404  17.562  0.00  0.00    +0.000 Cl
ENDBRANCH  18  20
ENDBRANCH  15  16
ENDBRANCH   2  15
TORSDOF 5
ENDMDL
MODEL 7
REMARK VINA RESULT:      -7.2      6.828      9.481
REMARK  Name = 
REMARK  6 active torsions:
REMARK  status: ('A' for Active; 'I' for Inactive)
REMARK    1  A    between atoms: C_1  and  C_2
REMARK    2  A    between atoms: C_2  and  C_3
REMARK    3  A    between atoms: C_3  and  C_4
REMARK    4  A    between atoms: N_6  and  C_7
REMARK    5  A    between atoms: N_15  and  N_16
REMARK    6  A    between atoms: C_17  and  C_19
REMARK                            x       y       z     vdW  Elec       q    Type
REMARK                         _______ _______ _______ _____ _____    ______ ____
ROOT
ATOM      1  C   UNL     1       8.069   6.568  18.850  0.00  0.00    +0.000 C 
ATOM      2  C   UNL     1       7.561   7.243  17.595  0.00  0.00    +0.000 C 
ATOM      3  N   UNL     1       7.777   8.492  17.296  0.00  0.00    +0.000 NA
ENDROOT
BRANCH   3   4
ATOM      4  N   UNL     1       8.497   9.251  18.169  0.00  0.00    +0.000 N 
ATOM      5  C   UNL     1       8.540  10.631  18.061  0.00  0.00    +0.000 C 
ATOM      6  O   UNL     1       7.922  11.288  17.228  0.00  0.00    +0.000 OA
ATOM      7  H   UNL     1       9.031   8.801  18.902  0.00  0.00    +0.000 HD
BRANCH   5   8
ATOM      8  C   UNL     1       9.349  11.344  19.106  0.00  0.00    +0.000 A 
ATOM      9  C   UNL     1       8.998  11.079  20.438  0.00  0.00    +0.000 A 
ATOM     10  C   UNL     1       9.702  11.668  21.496  0.00  0.00    +0.000 A 
ATOM     11  C   UNL     1      10.762  12.530  21.236  0.00  0.00    +0.000 A 
ATOM     12  C   UNL     1      11.111  12.813  19.917  0.00  0.00    +0.000 A 
ATOM     13  C   UNL     1      10.405  12.238  18.849  0.00  0.00    +0.000 A 
ATOM     14 BR   UNL     1      10.954  12.803  17.118  0.00  0.00    +0.000 Br
ENDBRANCH   5   8
ENDBRANCH   3   4
BRANCH   2  15
ATOM     15  C   UNL     1       6.714   6.434  16.642  0.00  0.00    +0.000 C 
BRANCH  15  16
ATOM     16  C   UNL     1       5.918   5.328  17.283  0.00  0.00    +0.000 C 
ATOM     17  O   UNL     1       6.482   4.376  17.818  0.00  0.00    +0.000 OA
ATOM     18  N   UNL     1       4.544   5.472  17.179  0.00  0.00    +0.000 N 
ATOM     19  H   UNL     1       4.212   5.942  16.340  0.00  0.00    +0.000 HD
BRANCH  18  20
ATOM     20  C   UNL     1       3.667   4.505  17.739  0.00  0.00    +0.000 A 
ATOM     21  C   UNL     1       3.607   3.215  17.196  0.00  0.00    +0.000 A 
ATOM     22  C   UNL     1       2.709   2.274  17.700  0.00  0.00    +0.000 A 
ATOM     23  C   UNL     1       1.847   2.626  18.737  0.00  0.00    +0.000 A 
ATOM     24  C   UNL     1       1.914   3.904  19.304  0.00  0.00    +0.000 A 
ATOM     25 CL   UNL     1       0.784   4.277  20.559  0.00  0.00    +0.000 Cl
ATOM     26  C   UNL     1       2.848   4.840  18.831  0.00  0.00    +0.000 A 
ATOM     27 CL   UNL     1       2.949   6.436  19.505  0.00  0.00    +0.000 Cl
ENDBRANCH  18  20
ENDBRANCH  15  16
ENDBRANCH   2  15
TORSDOF 5
ENDMDL
MODEL 8
REMARK VINA RESULT:      -7.1      4.626      8.469
REMARK  Name = 
REMARK  6 active torsions:
REMARK  status: ('A' for Active; 'I' for Inactive)
REMARK    1  A    between atoms: C_1  and  C_2
REMARK    2  A    between atoms: C_2  and  C_3
REMARK    3  A    between atoms: C_3  and  C_4
REMARK    4  A    between atoms: N_6  and  C_7
REMARK    5  A    between atoms: N_15  and  N_16
REMARK    6  A    between atoms: C_17  and  C_19
REMARK                            x       y       z     vdW  Elec       q    Type
REMARK                         _______ _______ _______ _____ _____    ______ ____
ROOT
ATOM      1  C   UNL     1       0.898   9.906  17.708  0.00  0.00    +0.000 C 
ATOM      2  C   UNL     1       1.557   8.941  18.670  0.00  0.00    +0.000 C 
ATOM      3  N   UNL     1       1.202   8.790  19.914  0.00  0.00    +0.000 NA
ENDROOT
BRANCH   3   4
ATOM      4  N   UNL     1       0.178   9.552  20.391  0.00  0.00    +0.000 N 
ATOM      5  C   UNL     1       0.407  10.611  21.255  0.00  0.00    +0.000 C 
ATOM      6  O   UNL     1       1.516  10.983  21.628  0.00  0.00    +0.000 OA
ATOM      7  H   UNL     1      -0.775   9.332  20.129  0.00  0.00    +0.000 HD
BRANCH   5   8
ATOM      8  C   UNL     1      -0.808  11.382  21.681  0.00  0.00    +0.000 A 
ATOM      9  C   UNL     1      -1.307  11.083  22.958  0.00  0.00    +0.000 A 
ATOM     10  C   UNL     1      -2.421  11.760  23.470  0.00  0.00    +0.000 A 
ATOM     11  C   UNL     1      -3.052  12.741  22.711  0.00  0.00    +0.000 A 
ATOM     12  C   UNL     1      -2.577  13.035  21.436  0.00  0.00    +0.000 A 
ATOM     13  C   UNL     1      -1.468  12.355  20.907  0.00  0.00    +0.000 A 
ATOM     14 BR   UNL     1      -1.010  12.818  19.121  0.00  0.00    +0.000 Br
ENDBRANCH   5   8
ENDBRANCH   3   4
BRANCH   2  15
ATOM     15  C   UNL     1       2.729   8.128  18.176  0.00  0.00    +0.000 C 
BRANCH  15  16
ATOM     16  C   UNL     1       2.874   6.772  18.814  0.00  0.00    +0.000 C 
ATOM     17  O   UNL     1       3.836   6.515  19.534  0.00  0.00    +0.000 OA
ATOM     18  N   UNL     1       1.871   5.872  18.489  0.00  0.00    +0.000 N 
ATOM     19  H   UNL     1       1.468   5.977  17.561  0.00  0.00    +0.000 HD
BRANCH  18  20
ATOM     20  C   UNL     1       1.877   4.554  19.021  0.00  0.00    +0.000 A 
ATOM     21  C   UNL     1       1.108   4.253  20.154  0.00  0.00    +0.000 A 
ATOM     22  C   UNL     1       1.149   2.978  20.719  0.00  0.00    +0.000 A 
ATOM     23  C   UNL     1       1.978   2.003  20.169  0.00  0.00    +0.000 A 
ATOM     24  C   UNL     1       2.732   2.285  19.024  0.00  0.00    +0.000 A 
ATOM     25 CL   UNL     1       3.766   1.035  18.426  0.00  0.00    +0.000 Cl
ATOM     26  C   UNL     1       2.659   3.552  18.423  0.00  0.00    +0.000 A 
ATOM     27 CL   UNL     1       3.589   3.937  17.009  0.00  0.00    +0.000 Cl
ENDBRANCH  18  20
ENDBRANCH  15  16
ENDBRANCH   2  15
TORSDOF 5
ENDMDL
MODEL 9
REMARK VINA RESULT:      -7.1      6.896      9.414
REMARK  Name = 
REMARK  6 active torsions:
REMARK  status: ('A' for Active; 'I' for Inactive)
REMARK    1  A    between atoms: C_1  and  C_2
REMARK    2  A    between atoms: C_2  and  C_3
REMARK    3  A    between atoms: C_3  and  C_4
REMARK    4  A    between atoms: N_6  and  C_7
REMARK    5  A    between atoms: N_15  and  N_16
REMARK    6  A    between atoms: C_17  and  C_19
REMARK                            x       y       z     vdW  Elec       q    Type
REMARK                         _______ _______ _______ _____ _____    ______ ____
ROOT
ATOM      1  C   UNL     1       8.147   6.678  18.960  0.00  0.00    +0.000 C 
ATOM      2  C   UNL     1       7.462   7.207  17.720  0.00  0.00    +0.000 C 
ATOM      3  N   UNL     1       7.556   8.435  17.297  0.00  0.00    +0.000 NA
ENDROOT
BRANCH   3   4
ATOM      4  N   UNL     1       8.311   9.311  18.019  0.00  0.00    +0.000 N 
ATOM      5  C   UNL     1       8.225  10.679  17.814  0.00  0.00    +0.000 C 
ATOM      6  O   UNL     1       7.459  11.222  17.023  0.00  0.00    +0.000 OA
ATOM      7  H   UNL     1       8.965   8.960  18.707  0.00  0.00    +0.000 HD
BRANCH   5   8
ATOM      8  C   UNL     1       9.093  11.528  18.696  0.00  0.00    +0.000 A 
ATOM      9  C   UNL     1      10.032  10.838  19.479  0.00  0.00    +0.000 A 
ATOM     10  C   UNL     1      10.912  11.530  20.320  0.00  0.00    +0.000 A 
ATOM     11  C   UNL     1      10.863  12.918  20.393  0.00  0.00    +0.000 A 
ATOM     12  C   UNL     1       9.925  13.613  19.633  0.00  0.00    +0.000 A 
ATOM     13  C   UNL     1       9.030  12.930  18.795  0.00  0.00    +0.000 A 
ATOM     14 BR   UNL     1       7.760  14.027  17.901  0.00  0.00    +0.000 Br
ENDBRANCH   5   8
ENDBRANCH   3   4
BRANCH   2  15
ATOM     15  C   UNL     1       6.576   6.267  16.937  0.00  0.00    +0.000 C 
BRANCH  15  16
ATOM     16  C   UNL     1       5.159   6.168  17.437  0.00  0.00    +0.000 C 
ATOM     17  O   UNL     1       4.290   6.931  17.021  0.00  0.00    +0.000 OA
ATOM     18  N   UNL     1       4.955   5.193  18.400  0.00  0.00    +0.000 N 
ATOM     19  H   UNL     1       5.744   5.007  19.014  0.00  0.00    +0.000 HD
BRANCH  18  20
ATOM     20  C   UNL     1       3.667   4.983  18.961  0.00  0.00    +0.000 A 
ATOM     21  C   UNL     1       3.192   5.839  19.965  0.00  0.00    +0.000 A 
ATOM     22  C   UNL     1       1.953   5.610  20.564  0.00  0.00    +0.000 A 
ATOM     23  C   UNL     1       1.191   4.509  20.179  0.00  0.00    +0.000 A 
ATOM     24  C   UNL     1       1.644   3.661  19.162  0.00  0.00    +0.000 A 
ATOM     25 CL   UNL     1       0.660   2.294  18.771  0.00  0.00    +0.000 Cl
ATOM     26  C   UNL     1       2.868   3.913  18.524  0.00  0.00    +0.000 A 
ATOM     27 CL   UNL     1       3.463   2.875  17.267  0.00  0.00    +0.000 Cl
ENDBRANCH  18  20
ENDBRANCH  15  16
ENDBRANCH   2  15
TORSDOF 5
ENDMDL
