MODEL 1
REMARK VINA RESULT:      -8.7      0.000      0.000
REMARK  Name = 
REMARK  9 active torsions:
REMARK  status: ('A' for Active; 'I' for Inactive)
REMARK    1  A    between atoms: C_1  and  C_2
REMARK    2  A    between atoms: N_4  and  C_5
REMARK    3  A    between atoms: C_13  and  C_14
REMARK    4  A    between atoms: C_14  and  C_15
REMARK    5  A    between atoms: C_14  and  C_24
REMARK    6  A    between atoms: C_18  and  C_19
REMARK    7  A    between atoms: C_19  and  C_20
REMARK    8  A    between atoms: C_19  and  C_21
REMARK    9  A    between atoms: C_25  and  O_26
REMARK                            x       y       z     vdW  Elec       q    Type
REMARK                         _______ _______ _______ _____ _____    ______ ____
ROOT
ATOM      1  C   UNL     1       0.321  11.260  19.004  0.00  0.00    +0.000 C 
ENDROOT
BRANCH   1   2
ATOM      2  C   UNL     1       0.765  12.457  19.902  0.00  0.00    +0.000 A 
ATOM      3  C   UNL     1       0.194  12.717  21.168  0.00  0.00    +0.000 A 
ATOM      4  C   UNL     1       0.556  13.801  21.962  0.00  0.00    +0.000 A 
ATOM      5  C   UNL     1       1.519  14.684  21.520  0.00  0.00    +0.000 A 
ATOM      6  C   UNL     1       2.162  14.468  20.303  0.00  0.00    +0.000 A 
ATOM      7  C   UNL     1       3.151  15.384  19.912  0.00  0.00    +0.000 A 
ATOM      8  C   UNL     1       3.856  15.210  18.728  0.00  0.00    +0.000 A 
ATOM      9  C   UNL     1       3.590  14.107  17.933  0.00  0.00    +0.000 A 
ATOM     10  C   UNL     1       2.601  13.191  18.310  0.00  0.00    +0.000 A 
ATOM     11  C   UNL     1       1.828  13.343  19.487  0.00  0.00    +0.000 A 
BRANCH   3  12
ATOM     12  O   UNL     1      -0.767  11.934  21.738  0.00  0.00    +0.000 OA
ATOM     13  H   UNL     1      -0.585  11.035  21.395  0.00  0.00    +0.000 HD
ENDBRANCH   3  12
ENDBRANCH   1   2
BRANCH   1  20
ATOM     14  C   UNL     1       0.031   9.313  21.655  0.00  0.00    +0.000 C 
ATOM     15  C   UNL     1       0.795   9.075  20.397  0.00  0.00    +0.000 A 
ATOM     16  N   UNL     1       1.489   7.881  20.213  0.00  0.00    +0.000 N 
ATOM     17  N   UNL     1       2.207   8.014  19.021  0.00  0.00    +0.000 N 
ATOM     18  C   UNL     1       1.822   9.205  18.403  0.00  0.00    +0.000 A 
ATOM     19  O   UNL     1       2.028   9.570  17.255  0.00  0.00    +0.000 OA
ATOM     20  C   UNL     1       0.895   9.904  19.341  0.00  0.00    +0.000 A 
ATOM     21  H   UNL     1       2.066   7.624  21.013  0.00  0.00    +0.000 HD
BRANCH  17  22
ATOM     22  C   UNL     1       2.794   6.910  18.365  0.00  0.00    +0.000 A 
ATOM     23  C   UNL     1       2.208   5.635  18.448  0.00  0.00    +0.000 A 
ATOM     24  C   UNL     1       2.804   4.526  17.848  0.00  0.00    +0.000 A 
ATOM     25  C   UNL     1       3.995   4.674  17.147  0.00  0.00    +0.000 A 
ATOM     26  C   UNL     1       4.582   5.933  17.041  0.00  0.00    +0.000 A 
ATOM     27  C   UNL     1       3.984   7.047  17.640  0.00  0.00    +0.000 A 
ENDBRANCH  17  22
ENDBRANCH   1  20
BRANCH   1  28
ATOM     28  C   UNL     1      -1.205  11.053  18.840  0.00  0.00    +0.000 A 
ATOM     29  C   UNL     1      -1.736  10.003  18.076  0.00  0.00    +0.000 A 
ATOM     30  C   UNL     1      -3.085   9.992  17.708  0.00  0.00    +0.000 A 
ATOM     31  C   UNL     1      -3.949  11.017  18.111  0.00  0.00    +0.000 A 
ATOM     32  C   UNL     1      -3.441  12.026  18.940  0.00  0.00    +0.000 A 
ATOM     33  C   UNL     1      -2.088  12.046  19.299  0.00  0.00    +0.000 A 
BRANCH  31  34
ATOM     34  C   UNL     1      -5.389  11.027  17.625  0.00  0.00    +0.000 C 
ATOM     35  C   UNL     1      -6.344  10.495  18.694  0.00  0.00    +0.000 C 
ATOM     36  C   UNL     1      -5.822  12.420  17.151  0.00  0.00    +0.000 C 
ENDBRANCH  31  34
ENDBRANCH   1  28
TORSDOF 6
ENDMDL
MODEL 2
REMARK VINA RESULT:      -8.4      1.283      2.394
REMARK  Name = 
REMARK  9 active torsions:
REMARK  status: ('A' for Active; 'I' for Inactive)
REMARK    1  A    between atoms: C_1  and  C_2
REMARK    2  A    between atoms: N_4  and  C_5
REMARK    3  A    between atoms: C_13  and  C_14
REMARK    4  A    between atoms: C_14  and  C_15
REMARK    5  A    between atoms: C_14  and  C_24
REMARK    6  A    between atoms: C_18  and  C_19
REMARK    7  A    between atoms: C_19  and  C_20
REMARK    8  A    between atoms: C_19  and  C_21
REMARK    9  A    between atoms: C_25  and  O_26
REMARK                            x       y       z     vdW  Elec       q    Type
REMARK                         _______ _______ _______ _____ _____    ______ ____
ROOT
ATOM      1  C   UNL     1       0.532  10.900  18.575  0.00  0.00    +0.000 C 
ENDROOT
BRANCH   1   2
ATOM      2  C   UNL     1       1.147  12.222  19.134  0.00  0.00    +0.000 A 
ATOM      3  C   UNL     1       2.216  12.896  18.501  0.00  0.00    +0.000 A 
ATOM      4  C   UNL     1       2.796  14.055  19.008  0.00  0.00    +0.000 A 
ATOM      5  C   UNL     1       2.325  14.599  20.186  0.00  0.00    +0.000 A 
ATOM      6  C   UNL     1       1.243  14.018  20.843  0.00  0.00    +0.000 A 
ATOM      7  C   UNL     1       0.789  14.626  22.024  0.00  0.00    +0.000 A 
ATOM      8  C   UNL     1      -0.307  14.120  22.711  0.00  0.00    +0.000 A 
ATOM      9  C   UNL     1      -0.970  13.011  22.211  0.00  0.00    +0.000 A 
ATOM     10  C   UNL     1      -0.522  12.393  21.038  0.00  0.00    +0.000 A 
ATOM     11  C   UNL     1       0.613  12.846  20.322  0.00  0.00    +0.000 A 
BRANCH   3  12
ATOM     12  O   UNL     1       2.785  12.480  17.334  0.00  0.00    +0.000 OA
ATOM     13  H   UNL     1       2.889  13.299  16.807  0.00  0.00    +0.000 HD
ENDBRANCH   3  12
ENDBRANCH   1   2
BRANCH   1  20
ATOM     14  C   UNL     1       0.013   9.546  21.542  0.00  0.00    +0.000 C 
ATOM     15  C   UNL     1       0.809   9.018  20.398  0.00  0.00    +0.000 A 
ATOM     16  N   UNL     1       1.429   7.774  20.490  0.00  0.00    +0.000 N 
ATOM     17  N   UNL     1       2.201   7.623  19.334  0.00  0.00    +0.000 N 
ATOM     18  C   UNL     1       1.918   8.685  18.473  0.00  0.00    +0.000 A 
ATOM     19  O   UNL     1       2.192   8.799  17.287  0.00  0.00    +0.000 OA
ATOM     20  C   UNL     1       1.003   9.610  19.205  0.00  0.00    +0.000 A 
ATOM     21  H   UNL     1       1.957   7.651  21.354  0.00  0.00    +0.000 HD
BRANCH  17  22
ATOM     22  C   UNL     1       2.739   6.378  18.942  0.00  0.00    +0.000 A 
ATOM     23  C   UNL     1       4.037   6.007  19.331  0.00  0.00    +0.000 A 
ATOM     24  C   UNL     1       4.601   4.802  18.910  0.00  0.00    +0.000 A 
ATOM     25  C   UNL     1       3.872   3.944  18.095  0.00  0.00    +0.000 A 
ATOM     26  C   UNL     1       2.577   4.289  17.712  0.00  0.00    +0.000 A 
ATOM     27  C   UNL     1       2.010   5.495  18.137  0.00  0.00    +0.000 A 
ENDBRANCH  17  22
ENDBRANCH   1  20
BRANCH   1  28
ATOM     28  C   UNL     1      -1.014  10.822  18.538  0.00  0.00    +0.000 A 
ATOM     29  C   UNL     1      -1.690   9.685  18.075  0.00  0.00    +0.000 A 
ATOM     30  C   UNL     1      -3.058   9.730  17.785  0.00  0.00    +0.000 A 
ATOM     31  C   UNL     1      -3.794  10.906  17.971  0.00  0.00    +0.000 A 
ATOM     32  C   UNL     1      -3.138  12.021  18.508  0.00  0.00    +0.000 A 
ATOM     33  C   UNL     1      -1.768  11.983  18.787  0.00  0.00    +0.000 A 
BRANCH  31  34
ATOM     34  C   UNL     1      -5.258  10.953  17.565  0.00  0.00    +0.000 C 
ATOM     35  C   UNL     1      -6.172  10.538  18.718  0.00  0.00    +0.000 C 
ATOM     36  C   UNL     1      -5.656  12.332  17.023  0.00  0.00    +0.000 C 
ENDBRANCH  31  34
ENDBRANCH   1  28
TORSDOF 6
ENDMDL
MODEL 3
REMARK VINA RESULT:      -8.2      1.678      5.643
REMARK  Name = 
REMARK  9 active torsions:
REMARK  status: ('A' for Active; 'I' for Inactive)
REMARK    1  A    between atoms: C_1  and  C_2
REMARK    2  A    between atoms: N_4  and  C_5
REMARK    3  A    between atoms: C_13  and  C_14
REMARK    4  A    between atoms: C_14  and  C_15
REMARK    5  A    between atoms: C_14  and  C_24
REMARK    6  A    between atoms: C_18  and  C_19
REMARK    7  A    between atoms: C_19  and  C_20
REMARK    8  A    between atoms: C_19  and  C_21
REMARK    9  A    between atoms: C_25  and  O_26
REMARK                            x       y       z     vdW  Elec       q    Type
REMARK                         _______ _______ _______ _____ _____    ______ ____
ROOT
ATOM      1  C   UNL     1      -0.544  11.836  20.354  0.00  0.00    +0.000 C 
ENDROOT
BRANCH   1   2
ATOM      2  C   UNL     1      -1.889  11.804  19.561  0.00  0.00    +0.000 A 
ATOM      3  C   UNL     1      -1.990  11.293  18.247  0.00  0.00    +0.000 A 
ATOM      4  C   UNL     1      -3.175  11.292  17.517  0.00  0.00    +0.000 A 
ATOM      5  C   UNL     1      -4.326  11.808  18.076  0.00  0.00    +0.000 A 
ATOM      6  C   UNL     1      -4.316  12.288  19.384  0.00  0.00    +0.000 A 
ATOM      7  C   UNL     1      -5.520  12.779  19.911  0.00  0.00    +0.000 A 
ATOM      8  C   UNL     1      -5.589  13.240  21.220  0.00  0.00    +0.000 A 
ATOM      9  C   UNL     1      -4.458  13.195  22.018  0.00  0.00    +0.000 A 
ATOM     10  C   UNL     1      -3.250  12.713  21.500  0.00  0.00    +0.000 A 
ATOM     11  C   UNL     1      -3.117  12.268  20.162  0.00  0.00    +0.000 A 
BRANCH   3  12
ATOM     12  O   UNL     1      -0.941  10.750  17.565  0.00  0.00    +0.000 OA
ATOM     13  H   UNL     1      -1.088  11.018  16.635  0.00  0.00    +0.000 HD
ENDBRANCH   3  12
ENDBRANCH   1   2
BRANCH   1  20
ATOM     14  C   UNL     1      -0.714  10.028  23.112  0.00  0.00    +0.000 C 
ATOM     15  C   UNL     1       0.001   9.729  21.839  0.00  0.00    +0.000 A 
ATOM     16  N   UNL     1       0.694   8.530  21.688  0.00  0.00    +0.000 N 
ATOM     17  N   UNL     1       1.364   8.604  20.463  0.00  0.00    +0.000 N 
ATOM     18  C   UNL     1       0.946   9.760  19.801  0.00  0.00    +0.000 A 
ATOM     19  O   UNL     1       1.103  10.066  18.628  0.00  0.00    +0.000 OA
ATOM     20  C   UNL     1       0.052  10.503  20.738  0.00  0.00    +0.000 A 
ATOM     21  H   UNL     1       1.305   8.318  22.476  0.00  0.00    +0.000 HD
BRANCH  17  22
ATOM     22  C   UNL     1       1.931   7.470  19.842  0.00  0.00    +0.000 A 
ATOM     23  C   UNL     1       1.866   6.209  20.460  0.00  0.00    +0.000 A 
ATOM     24  C   UNL     1       2.465   5.090  19.883  0.00  0.00    +0.000 A 
ATOM     25  C   UNL     1       3.137   5.211  18.672  0.00  0.00    +0.000 A 
ATOM     26  C   UNL     1       3.199   6.451  18.037  0.00  0.00    +0.000 A 
ATOM     27  C   UNL     1       2.595   7.573  18.614  0.00  0.00    +0.000 A 
ENDBRANCH  17  22
ENDBRANCH   1  20
BRANCH   1  28
ATOM     28  C   UNL     1       0.607  12.657  19.723  0.00  0.00    +0.000 A 
ATOM     29  C   UNL     1       1.876  12.736  20.314  0.00  0.00    +0.000 A 
ATOM     30  C   UNL     1       2.808  13.691  19.895  0.00  0.00    +0.000 A 
ATOM     31  C   UNL     1       2.508  14.580  18.856  0.00  0.00    +0.000 A 
ATOM     32  C   UNL     1       1.271  14.453  18.210  0.00  0.00    +0.000 A 
ATOM     33  C   UNL     1       0.332  13.506  18.636  0.00  0.00    +0.000 A 
BRANCH  31  34
ATOM     34  C   UNL     1       3.502  15.665  18.478  0.00  0.00    +0.000 C 
ATOM     35  C   UNL     1       4.785  15.070  17.899  0.00  0.00    +0.000 C 
ATOM     36  C   UNL     1       2.892  16.689  17.514  0.00  0.00    +0.000 C 
ENDBRANCH  31  34
ENDBRANCH   1  28
TORSDOF 6
ENDMDL
MODEL 4
REMARK VINA RESULT:      -8.2      2.539      7.657
REMARK  Name = 
REMARK  9 active torsions:
REMARK  status: ('A' for Active; 'I' for Inactive)
REMARK    1  A    between atoms: C_1  and  C_2
REMARK    2  A    between atoms: N_4  and  C_5
REMARK    3  A    between atoms: C_13  and  C_14
REMARK    4  A    between atoms: C_14  and  C_15
REMARK    5  A    between atoms: C_14  and  C_24
REMARK    6  A    between atoms: C_18  and  C_19
REMARK    7  A    between atoms: C_19  and  C_20
REMARK    8  A    between atoms: C_19  and  C_21
REMARK    9  A    between atoms: C_25  and  O_26
REMARK                            x       y       z     vdW  Elec       q    Type
REMARK                         _______ _______ _______ _____ _____    ______ ____
ROOT
ATOM      1  C   UNL     1      -0.455  11.449  18.974  0.00  0.00    +0.000 C 
ENDROOT
BRANCH   1   2
ATOM      2  C   UNL     1       0.069  10.298  19.890  0.00  0.00    +0.000 A 
ATOM      3  C   UNL     1      -0.312  10.166  21.244  0.00  0.00    +0.000 A 
ATOM      4  C   UNL     1       0.176   9.167  22.081  0.00  0.00    +0.000 A 
ATOM      5  C   UNL     1       1.077   8.242  21.593  0.00  0.00    +0.000 A 
ATOM      6  C   UNL     1       1.464   8.280  20.255  0.00  0.00    +0.000 A 
ATOM      7  C   UNL     1       2.364   7.302  19.806  0.00  0.00    +0.000 A 
ATOM      8  C   UNL     1       2.765   7.259  18.476  0.00  0.00    +0.000 A 
ATOM      9  C   UNL     1       2.253   8.184  17.581  0.00  0.00    +0.000 A 
ATOM     10  C   UNL     1       1.360   9.168  18.020  0.00  0.00    +0.000 A 
ATOM     11  C   UNL     1       0.950   9.278  19.372  0.00  0.00    +0.000 A 
BRANCH   3  12
ATOM     12  O   UNL     1      -1.193  11.001  21.866  0.00  0.00    +0.000 OA
ATOM     13  H   UNL     1      -1.997  10.457  21.996  0.00  0.00    +0.000 HD
ENDBRANCH   3  12
ENDBRANCH   1   2
BRANCH   1  20
ATOM     14  C   UNL     1      -2.346  10.051  16.655  0.00  0.00    +0.000 C 
ATOM     15  C   UNL     1      -2.751  10.928  17.790  0.00  0.00    +0.000 A 
ATOM     16  N   UNL     1      -4.095  11.228  18.000  0.00  0.00    +0.000 N 
ATOM     17  N   UNL     1      -4.140  12.167  19.034  0.00  0.00    +0.000 N 
ATOM     18  C   UNL     1      -2.854  12.307  19.561  0.00  0.00    +0.000 A 
ATOM     19  O   UNL     1      -2.512  12.835  20.609  0.00  0.00    +0.000 OA
ATOM     20  C   UNL     1      -1.942  11.487  18.710  0.00  0.00    +0.000 A 
ATOM     21  H   UNL     1      -4.576  11.528  17.153  0.00  0.00    +0.000 HD
BRANCH  17  22
ATOM     22  C   UNL     1      -5.336  12.489  19.712  0.00  0.00    +0.000 A 
ATOM     23  C   UNL     1      -5.623  13.818  20.065  0.00  0.00    +0.000 A 
ATOM     24  C   UNL     1      -6.777  14.144  20.778  0.00  0.00    +0.000 A 
ATOM     25  C   UNL     1      -7.669  13.143  21.146  0.00  0.00    +0.000 A 
ATOM     26  C   UNL     1      -7.408  11.820  20.791  0.00  0.00    +0.000 A 
ATOM     27  C   UNL     1      -6.253  11.494  20.073  0.00  0.00    +0.000 A 
ENDBRANCH  17  22
ENDBRANCH   1  20
BRANCH   1  28
ATOM     28  C   UNL     1      -0.053  12.888  19.379  0.00  0.00    +0.000 A 
ATOM     29  C   UNL     1      -0.385  14.002  18.595  0.00  0.00    +0.000 A 
ATOM     30  C   UNL     1       0.216  15.245  18.820  0.00  0.00    +0.000 A 
ATOM     31  C   UNL     1       1.150  15.417  19.848  0.00  0.00    +0.000 A 
ATOM     32  C   UNL     1       1.426  14.326  20.683  0.00  0.00    +0.000 A 
ATOM     33  C   UNL     1       0.835  13.078  20.453  0.00  0.00    +0.000 A 
BRANCH  31  34
ATOM     34  C   UNL     1       1.854  16.753  20.014  0.00  0.00    +0.000 C 
ATOM     35  C   UNL     1       3.334  16.655  19.644  0.00  0.00    +0.000 C 
ATOM     36  C   UNL     1       1.165  17.866  19.216  0.00  0.00    +0.000 C 
ENDBRANCH  31  34
ENDBRANCH   1  28
TORSDOF 6
ENDMDL
MODEL 5
REMARK VINA RESULT:      -8.2      2.392      7.713
REMARK  Name = 
REMARK  9 active torsions:
REMARK  status: ('A' for Active; 'I' for Inactive)
REMARK    1  A    between atoms: C_1  and  C_2
REMARK    2  A    between atoms: N_4  and  C_5
REMARK    3  A    between atoms: C_13  and  C_14
REMARK    4  A    between atoms: C_14  and  C_15
REMARK    5  A    between atoms: C_14  and  C_24
REMARK    6  A    between atoms: C_18  and  C_19
REMARK    7  A    between atoms: C_19  and  C_20
REMARK    8  A    between atoms: C_19  and  C_21
REMARK    9  A    between atoms: C_25  and  O_26
REMARK                            x       y       z     vdW  Elec       q    Type
REMARK                         _______ _______ _______ _____ _____    ______ ____
ROOT
ATOM      1  C   UNL     1       0.153  11.683  19.309  0.00  0.00    +0.000 C 
ENDROOT
BRANCH   1   2
ATOM      2  C   UNL     1       0.504  10.390  20.112  0.00  0.00    +0.000 A 
ATOM      3  C   UNL     1       0.121  10.200  21.459  0.00  0.00    +0.000 A 
ATOM      4  C   UNL     1       0.458   9.069  22.197  0.00  0.00    +0.000 A 
ATOM      5  C   UNL     1       1.202   8.064  21.612  0.00  0.00    +0.000 A 
ATOM      6  C   UNL     1       1.577   8.159  20.273  0.00  0.00    +0.000 A 
ATOM      7  C   UNL     1       2.311   7.098  19.721  0.00  0.00    +0.000 A 
ATOM      8  C   UNL     1       2.687   7.111  18.384  0.00  0.00    +0.000 A 
ATOM      9  C   UNL     1       2.314   8.177  17.583  0.00  0.00    +0.000 A 
ATOM     10  C   UNL     1       1.587   9.244  18.124  0.00  0.00    +0.000 A 
ATOM     11  C   UNL     1       1.213   9.297  19.489  0.00  0.00    +0.000 A 
BRANCH   3  12
ATOM     12  O   UNL     1      -0.615  11.101  22.170  0.00  0.00    +0.000 OA
ATOM     13  H   UNL     1      -0.283  11.020  23.087  0.00  0.00    +0.000 HD
ENDBRANCH   3  12
ENDBRANCH   1   2
BRANCH   1  20
ATOM     14  C   UNL     1      -0.734  14.489  20.806  0.00  0.00    +0.000 C 
ATOM     15  C   UNL     1      -1.597  13.450  20.176  0.00  0.00    +0.000 A 
ATOM     16  N   UNL     1      -2.980  13.616  20.139  0.00  0.00    +0.000 N 
ATOM     17  N   UNL     1      -3.512  12.432  19.622  0.00  0.00    +0.000 N 
ATOM     18  C   UNL     1      -2.458  11.624  19.191  0.00  0.00    +0.000 A 
ATOM     19  O   UNL     1      -2.499  10.633  18.477  0.00  0.00    +0.000 OA
ATOM     20  C   UNL     1      -1.192  12.311  19.583  0.00  0.00    +0.000 A 
ATOM     21  H   UNL     1      -3.376  13.885  21.038  0.00  0.00    +0.000 HD
BRANCH  17  22
ATOM     22  C   UNL     1      -4.847  12.337  19.170  0.00  0.00    +0.000 A 
ATOM     23  C   UNL     1      -5.148  12.435  17.801  0.00  0.00    +0.000 A 
ATOM     24  C   UNL     1      -6.465  12.393  17.345  0.00  0.00    +0.000 A 
ATOM     25  C   UNL     1      -7.507  12.247  18.253  0.00  0.00    +0.000 A 
ATOM     26  C   UNL     1      -7.227  12.132  19.614  0.00  0.00    +0.000 A 
ATOM     27  C   UNL     1      -5.906  12.170  20.071  0.00  0.00    +0.000 A 
ENDBRANCH  17  22
ENDBRANCH   1  20
BRANCH   1  28
ATOM     28  C   UNL     1       1.187  12.833  19.372  0.00  0.00    +0.000 A 
ATOM     29  C   UNL     1       1.526  13.592  18.242  0.00  0.00    +0.000 A 
ATOM     30  C   UNL     1       2.648  14.426  18.246  0.00  0.00    +0.000 A 
ATOM     31  C   UNL     1       3.452  14.546  19.386  0.00  0.00    +0.000 A 
ATOM     32  C   UNL     1       3.072  13.850  20.541  0.00  0.00    +0.000 A 
ATOM     33  C   UNL     1       1.957  13.004  20.536  0.00  0.00    +0.000 A 
BRANCH  31  34
ATOM     34  C   UNL     1       4.714  15.390  19.336  0.00  0.00    +0.000 C 
ATOM     35  C   UNL     1       5.507  15.134  18.055  0.00  0.00    +0.000 C 
ATOM     36  C   UNL     1       4.409  16.884  19.499  0.00  0.00    +0.000 C 
ENDBRANCH  31  34
ENDBRANCH   1  28
TORSDOF 6
ENDMDL
MODEL 6
REMARK VINA RESULT:      -8.1      2.633      7.686
REMARK  Name = 
REMARK  9 active torsions:
REMARK  status: ('A' for Active; 'I' for Inactive)
REMARK    1  A    between atoms: C_1  and  C_2
REMARK    2  A    between atoms: N_4  and  C_5
REMARK    3  A    between atoms: C_13  and  C_14
REMARK    4  A    between atoms: C_14  and  C_15
REMARK    5  A    between atoms: C_14  and  C_24
REMARK    6  A    between atoms: C_18  and  C_19
REMARK    7  A    between atoms: C_19  and  C_20
REMARK    8  A    between atoms: C_19  and  C_21
REMARK    9  A    between atoms: C_25  and  O_26
REMARK                            x       y       z     vdW  Elec       q    Type
REMARK                         _______ _______ _______ _____ _____    ______ ____
ROOT
ATOM      1  C   UNL     1      -0.468  11.539  19.080  0.00  0.00    +0.000 C 
ENDROOT
BRANCH   1   2
ATOM      2  C   UNL     1       0.059  10.377  19.982  0.00  0.00    +0.000 A 
ATOM      3  C   UNL     1      -0.300  10.242  21.342  0.00  0.00    +0.000 A 
ATOM      4  C   UNL     1       0.191   9.233  22.165  0.00  0.00    +0.000 A 
ATOM      5  C   UNL     1       1.072   8.301  21.657  0.00  0.00    +0.000 A 
ATOM      6  C   UNL     1       1.436   8.341  20.313  0.00  0.00    +0.000 A 
ATOM      7  C   UNL     1       2.317   7.355  19.843  0.00  0.00    +0.000 A 
ATOM      8  C   UNL     1       2.694   7.314  18.506  0.00  0.00    +0.000 A 
ATOM      9  C   UNL     1       2.177   8.249  17.625  0.00  0.00    +0.000 A 
ATOM     10  C   UNL     1       1.303   9.241  18.084  0.00  0.00    +0.000 A 
ATOM     11  C   UNL     1       0.918   9.350  19.443  0.00  0.00    +0.000 A 
BRANCH   3  12
ATOM     12  O   UNL     1      -1.160  11.084  21.983  0.00  0.00    +0.000 OA
ATOM     13  H   UNL     1      -1.003  11.958  21.570  0.00  0.00    +0.000 HD
ENDBRANCH   3  12
ENDBRANCH   1   2
BRANCH   1  20
ATOM     14  C   UNL     1      -2.447  10.165  16.821  0.00  0.00    +0.000 C 
ATOM     15  C   UNL     1      -2.804  11.056  17.961  0.00  0.00    +0.000 A 
ATOM     16  N   UNL     1      -4.136  11.384  18.205  0.00  0.00    +0.000 N 
ATOM     17  N   UNL     1      -4.135  12.330  19.234  0.00  0.00    +0.000 N 
ATOM     18  C   UNL     1      -2.834  12.447  19.726  0.00  0.00    +0.000 A 
ATOM     19  O   UNL     1      -2.454  12.974  20.761  0.00  0.00    +0.000 OA
ATOM     20  C   UNL     1      -1.960  11.604  18.856  0.00  0.00    +0.000 A 
ATOM     21  H   UNL     1      -4.634  11.689  17.369  0.00  0.00    +0.000 HD
BRANCH  17  22
ATOM     22  C   UNL     1      -5.307  12.678  19.942  0.00  0.00    +0.000 A 
ATOM     23  C   UNL     1      -6.191  11.684  20.394  0.00  0.00    +0.000 A 
ATOM     24  C   UNL     1      -7.376  12.015  21.050  0.00  0.00    +0.000 A 
ATOM     25  C   UNL     1      -7.696  13.350  21.270  0.00  0.00    +0.000 A 
ATOM     26  C   UNL     1      -6.823  14.349  20.843  0.00  0.00    +0.000 A 
ATOM     27  C   UNL     1      -5.632  14.018  20.188  0.00  0.00    +0.000 A 
ENDBRANCH  17  22
ENDBRANCH   1  20
BRANCH   1  28
ATOM     28  C   UNL     1      -0.029  12.970  19.476  0.00  0.00    +0.000 A 
ATOM     29  C   UNL     1      -0.300  14.082  18.666  0.00  0.00    +0.000 A 
ATOM     30  C   UNL     1       0.337  15.307  18.890  0.00  0.00    +0.000 A 
ATOM     31  C   UNL     1       1.246  15.463  19.942  0.00  0.00    +0.000 A 
ATOM     32  C   UNL     1       1.460  14.377  20.801  0.00  0.00    +0.000 A 
ATOM     33  C   UNL     1       0.834  13.147  20.572  0.00  0.00    +0.000 A 
BRANCH  31  34
ATOM     34  C   UNL     1       1.990  16.778  20.110  0.00  0.00    +0.000 C 
ATOM     35  C   UNL     1       1.432  17.858  19.182  0.00  0.00    +0.000 C 
ATOM     36  C   UNL     1       1.986  17.255  21.567  0.00  0.00    +0.000 C 
ENDBRANCH  31  34
ENDBRANCH   1  28
TORSDOF 6
ENDMDL
MODEL 7
REMARK VINA RESULT:      -8.1      1.295      2.636
REMARK  Name = 
REMARK  9 active torsions:
REMARK  status: ('A' for Active; 'I' for Inactive)
REMARK    1  A    between atoms: C_1  and  C_2
REMARK    2  A    between atoms: N_4  and  C_5
REMARK    3  A    between atoms: C_13  and  C_14
REMARK    4  A    between atoms: C_14  and  C_15
REMARK    5  A    between atoms: C_14  and  C_24
REMARK    6  A    between atoms: C_18  and  C_19
REMARK    7  A    between atoms: C_19  and  C_20
REMARK    8  A    between atoms: C_19  and  C_21
REMARK    9  A    between atoms: C_25  and  O_26
REMARK                            x       y       z     vdW  Elec       q    Type
REMARK                         _______ _______ _______ _____ _____    ______ ____
ROOT
ATOM      1  C   UNL     1       0.674  11.203  18.867  0.00  0.00    +0.000 C 
ENDROOT
BRANCH   1   2
ATOM      2  C   UNL     1       0.863  12.355  19.904  0.00  0.00    +0.000 A 
ATOM      3  C   UNL     1       1.979  13.221  19.889  0.00  0.00    +0.000 A 
ATOM      4  C   UNL     1       2.177  14.228  20.829  0.00  0.00    +0.000 A 
ATOM      5  C   UNL     1       1.254  14.417  21.838  0.00  0.00    +0.000 A 
ATOM      6  C   UNL     1       0.104  13.632  21.891  0.00  0.00    +0.000 A 
ATOM      7  C   UNL     1      -0.813  13.882  22.923  0.00  0.00    +0.000 A 
ATOM      8  C   UNL     1      -1.997  13.161  23.015  0.00  0.00    +0.000 A 
ATOM      9  C   UNL     1      -2.282  12.196  22.063  0.00  0.00    +0.000 A 
ATOM     10  C   UNL     1      -1.371  11.935  21.033  0.00  0.00    +0.000 A 
ATOM     11  C   UNL     1      -0.134  12.614  20.917  0.00  0.00    +0.000 A 
BRANCH   3  12
ATOM     12  O   UNL     1       2.971  13.159  18.956  0.00  0.00    +0.000 OA
ATOM     13  H   UNL     1       2.826  12.305  18.501  0.00  0.00    +0.000 HD
ENDBRANCH   3  12
ENDBRANCH   1   2
BRANCH   1  20
ATOM     14  C   UNL     1       0.450   9.525  21.703  0.00  0.00    +0.000 C 
ATOM     15  C   UNL     1       1.069   9.107  20.414  0.00  0.00    +0.000 A 
ATOM     16  N   UNL     1       1.628   7.837  20.284  0.00  0.00    +0.000 N 
ATOM     17  N   UNL     1       2.243   7.796  19.029  0.00  0.00    +0.000 N 
ATOM     18  C   UNL     1       1.915   8.963  18.337  0.00  0.00    +0.000 A 
ATOM     19  O   UNL     1       2.047   9.207  17.147  0.00  0.00    +0.000 OA
ATOM     20  C   UNL     1       1.148   9.829  19.280  0.00  0.00    +0.000 A 
ATOM     21  H   UNL     1       2.250   7.591  21.053  0.00  0.00    +0.000 HD
BRANCH  17  22
ATOM     22  C   UNL     1       2.661   6.586  18.432  0.00  0.00    +0.000 A 
ATOM     23  C   UNL     1       1.771   5.506  18.305  0.00  0.00    +0.000 A 
ATOM     24  C   UNL     1       2.184   4.289  17.764  0.00  0.00    +0.000 A 
ATOM     25  C   UNL     1       3.496   4.133  17.332  0.00  0.00    +0.000 A 
ATOM     26  C   UNL     1       4.389   5.198  17.435  0.00  0.00    +0.000 A 
ATOM     27  C   UNL     1       3.974   6.420  17.975  0.00  0.00    +0.000 A 
ENDBRANCH  17  22
ENDBRANCH   1  20
BRANCH   1  28
ATOM     28  C   UNL     1      -0.756  11.013  18.303  0.00  0.00    +0.000 A 
ATOM     29  C   UNL     1      -1.479  12.073  17.737  0.00  0.00    +0.000 A 
ATOM     30  C   UNL     1      -2.851  11.958  17.492  0.00  0.00    +0.000 A 
ATOM     31  C   UNL     1      -3.537  10.773  17.784  0.00  0.00    +0.000 A 
ATOM     32  C   UNL     1      -2.803   9.685  18.275  0.00  0.00    +0.000 A 
ATOM     33  C   UNL     1      -1.432   9.802  18.533  0.00  0.00    +0.000 A 
BRANCH  31  34
ATOM     34  C   UNL     1      -5.042  10.704  17.591  0.00  0.00    +0.000 C 
ATOM     35  C   UNL     1      -5.751  10.274  18.876  0.00  0.00    +0.000 C 
ATOM     36  C   UNL     1      -5.613  12.028  17.071  0.00  0.00    +0.000 C 
ENDBRANCH  31  34
ENDBRANCH   1  28
TORSDOF 6
ENDMDL
MODEL 8
REMARK VINA RESULT:      -8.1      1.465      5.615
REMARK  Name = 
REMARK  9 active torsions:
REMARK  status: ('A' for Active; 'I' for Inactive)
REMARK    1  A    between atoms: C_1  and  C_2
REMARK    2  A    between atoms: N_4  and  C_5
REMARK    3  A    between atoms: C_13  and  C_14
REMARK    4  A    between atoms: C_14  and  C_15
REMARK    5  A    between atoms: C_14  and  C_24
REMARK    6  A    between atoms: C_18  and  C_19
REMARK    7  A    between atoms: C_19  and  C_20
REMARK    8  A    between atoms: C_19  and  C_21
REMARK    9  A    between atoms: C_25  and  O_26
REMARK                            x       y       z     vdW  Elec       q    Type
REMARK                         _______ _______ _______ _____ _____    ______ ____
ROOT
ATOM      1  C   UNL     1      -0.439  11.516  20.208  0.00  0.00    +0.000 C 
ENDROOT
BRANCH   1   2
ATOM      2  C   UNL     1      -1.752  11.502  19.363  0.00  0.00    +0.000 A 
ATOM      3  C   UNL     1      -1.839  10.884  18.095  0.00  0.00    +0.000 A 
ATOM      4  C   UNL     1      -2.992  10.896  17.316  0.00  0.00    +0.000 A 
ATOM      5  C   UNL     1      -4.126  11.533  17.778  0.00  0.00    +0.000 A 
ATOM      6  C   UNL     1      -4.132  12.125  19.040  0.00  0.00    +0.000 A 
ATOM      7  C   UNL     1      -5.318  12.739  19.470  0.00  0.00    +0.000 A 
ATOM      8  C   UNL     1      -5.404  13.317  20.731  0.00  0.00    +0.000 A 
ATOM      9  C   UNL     1      -4.310  13.269  21.578  0.00  0.00    +0.000 A 
ATOM     10  C   UNL     1      -3.120  12.665  21.156  0.00  0.00    +0.000 A 
ATOM     11  C   UNL     1      -2.967  12.096  19.868  0.00  0.00    +0.000 A 
BRANCH   3  12
ATOM     12  O   UNL     1      -0.805  10.216  17.508  0.00  0.00    +0.000 OA
ATOM     13  H   UNL     1      -1.237   9.577  16.905  0.00  0.00    +0.000 HD
ENDBRANCH   3  12
ENDBRANCH   1   2
BRANCH   1  20
ATOM     14  C   UNL     1      -0.606   9.363  22.706  0.00  0.00    +0.000 C 
ATOM     15  C   UNL     1       0.182   9.274  21.444  0.00  0.00    +0.000 A 
ATOM     16  N   UNL     1       0.960   8.148  21.181  0.00  0.00    +0.000 N 
ATOM     17  N   UNL     1       1.674   8.419  20.010  0.00  0.00    +0.000 N 
ATOM     18  C   UNL     1       1.209   9.622  19.477  0.00  0.00    +0.000 A 
ATOM     19  O   UNL     1       1.396  10.084  18.361  0.00  0.00    +0.000 OA
ATOM     20  C   UNL     1       0.228  10.183  20.452  0.00  0.00    +0.000 A 
ATOM     21  H   UNL     1       1.548   7.875  21.966  0.00  0.00    +0.000 HD
BRANCH  17  22
ATOM     22  C   UNL     1       2.343   7.410  19.283  0.00  0.00    +0.000 A 
ATOM     23  C   UNL     1       3.040   7.722  18.103  0.00  0.00    +0.000 A 
ATOM     24  C   UNL     1       3.662   6.729  17.347  0.00  0.00    +0.000 A 
ATOM     25  C   UNL     1       3.604   5.404  17.763  0.00  0.00    +0.000 A 
ATOM     26  C   UNL     1       2.931   5.078  18.939  0.00  0.00    +0.000 A 
ATOM     27  C   UNL     1       2.309   6.074  19.699  0.00  0.00    +0.000 A 
ENDBRANCH  17  22
ENDBRANCH   1  20
BRANCH   1  28
ATOM     28  C   UNL     1       0.678  12.475  19.727  0.00  0.00    +0.000 A 
ATOM     29  C   UNL     1       1.859  12.667  20.458  0.00  0.00    +0.000 A 
ATOM     30  C   UNL     1       2.721  13.729  20.166  0.00  0.00    +0.000 A 
ATOM     31  C   UNL     1       2.440  14.617  19.120  0.00  0.00    +0.000 A 
ATOM     32  C   UNL     1       1.302  14.381  18.338  0.00  0.00    +0.000 A 
ATOM     33  C   UNL     1       0.431  13.327  18.636  0.00  0.00    +0.000 A 
BRANCH  31  34
ATOM     34  C   UNL     1       3.346  15.813  18.881  0.00  0.00    +0.000 C 
ATOM     35  C   UNL     1       4.791  15.509  19.278  0.00  0.00    +0.000 C 
ATOM     36  C   UNL     1       3.271  16.304  17.430  0.00  0.00    +0.000 C 
ENDBRANCH  31  34
ENDBRANCH   1  28
TORSDOF 6
ENDMDL
MODEL 9
REMARK VINA RESULT:      -8.0      2.781      7.969
REMARK  Name = 
REMARK  9 active torsions:
REMARK  status: ('A' for Active; 'I' for Inactive)
REMARK    1  A    between atoms: C_1  and  C_2
REMARK    2  A    between atoms: N_4  and  C_5
REMARK    3  A    between atoms: C_13  and  C_14
REMARK    4  A    between atoms: C_14  and  C_15
REMARK    5  A    between atoms: C_14  and  C_24
REMARK    6  A    between atoms: C_18  and  C_19
REMARK    7  A    between atoms: C_19  and  C_20
REMARK    8  A    between atoms: C_19  and  C_21
REMARK    9  A    between atoms: C_25  and  O_26
REMARK                            x       y       z     vdW  Elec       q    Type
REMARK                         _______ _______ _______ _____ _____    ______ ____
ROOT
ATOM      1  C   UNL     1      -0.279  11.660  19.287  0.00  0.00    +0.000 C 
ENDROOT
BRANCH   1   2
ATOM      2  C   UNL     1       0.163  10.387  20.075  0.00  0.00    +0.000 A 
ATOM      3  C   UNL     1      -0.258  10.122  21.398  0.00  0.00    +0.000 A 
ATOM      4  C   UNL     1       0.158   9.011  22.124  0.00  0.00    +0.000 A 
ATOM      5  C   UNL     1       1.024   8.101  21.551  0.00  0.00    +0.000 A 
ATOM      6  C   UNL     1       1.446   8.269  20.234  0.00  0.00    +0.000 A 
ATOM      7  C   UNL     1       2.307   7.303  19.693  0.00  0.00    +0.000 A 
ATOM      8  C   UNL     1       2.738   7.390  18.375  0.00  0.00    +0.000 A 
ATOM      9  C   UNL     1       2.296   8.436  17.582  0.00  0.00    +0.000 A 
ATOM     10  C   UNL     1       1.442   9.409  18.113  0.00  0.00    +0.000 A 
ATOM     11  C   UNL     1       1.005   9.387  19.461  0.00  0.00    +0.000 A 
BRANCH   3  12
ATOM     12  O   UNL     1      -1.111  10.927  22.094  0.00  0.00    +0.000 OA
ATOM     13  H   UNL     1      -0.529  11.455  22.677  0.00  0.00    +0.000 HD
ENDBRANCH   3  12
ENDBRANCH   1   2
BRANCH   1  20
ATOM     14  C   UNL     1      -2.912  10.813  17.483  0.00  0.00    +0.000 C 
ATOM     15  C   UNL     1      -2.840  11.713  18.668  0.00  0.00    +0.000 A 
ATOM     16  N   UNL     1      -3.997  12.299  19.176  0.00  0.00    +0.000 N 
ATOM     17  N   UNL     1      -3.592  13.183  20.180  0.00  0.00    +0.000 N 
ATOM     18  C   UNL     1      -2.224  13.010  20.396  0.00  0.00    +0.000 A 
ATOM     19  O   UNL     1      -1.543  13.408  21.330  0.00  0.00    +0.000 OA
ATOM     20  C   UNL     1      -1.739  12.041  19.370  0.00  0.00    +0.000 A 
ATOM     21  H   UNL     1      -4.577  12.732  18.457  0.00  0.00    +0.000 HD
BRANCH  17  22
ATOM     22  C   UNL     1      -4.500  13.738  21.109  0.00  0.00    +0.000 A 
ATOM     23  C   UNL     1      -4.869  13.024  22.261  0.00  0.00    +0.000 A 
ATOM     24  C   UNL     1      -5.802  13.537  23.162  0.00  0.00    +0.000 A 
ATOM     25  C   UNL     1      -6.378  14.781  22.929  0.00  0.00    +0.000 A 
ATOM     26  C   UNL     1      -6.012  15.511  21.799  0.00  0.00    +0.000 A 
ATOM     27  C   UNL     1      -5.074  14.998  20.897  0.00  0.00    +0.000 A 
ENDBRANCH  17  22
ENDBRANCH   1  20
BRANCH   1  28
ATOM     28  C   UNL     1       0.520  12.956  19.568  0.00  0.00    +0.000 A 
ATOM     29  C   UNL     1       0.394  14.097  18.763  0.00  0.00    +0.000 A 
ATOM     30  C   UNL     1       1.314  15.147  18.854  0.00  0.00    +0.000 A 
ATOM     31  C   UNL     1       2.373  15.098  19.768  0.00  0.00    +0.000 A 
ATOM     32  C   UNL     1       2.457  13.995  20.628  0.00  0.00    +0.000 A 
ATOM     33  C   UNL     1       1.545  12.937  20.531  0.00  0.00    +0.000 A 
BRANCH  31  34
ATOM     34  C   UNL     1       3.409  16.210  19.786  0.00  0.00    +0.000 C 
ATOM     35  C   UNL     1       3.877  16.561  18.374  0.00  0.00    +0.000 C 
ATOM     36  C   UNL     1       2.895  17.457  20.516  0.00  0.00    +0.000 C 
ENDBRANCH  31  34
ENDBRANCH   1  28
TORSDOF 6
ENDMDL
