MODEL 1
REMARK VINA RESULT:      -8.4      0.000      0.000
REMARK  Name = 
REMARK  6 active torsions:
REMARK  status: ('A' for Active; 'I' for Inactive)
REMARK    1  A    between atoms: C_4  and  O_5
REMARK    2  A    between atoms: O_5  and  C_6
REMARK    3  A    between atoms: C_6  and  C_7
REMARK    4  A    between atoms: C_19  and  O_20
REMARK    5  A    between atoms: O_20  and  C_21
REMARK    6  A    between atoms: C_21  and  C_22
REMARK                            x       y       z     vdW  Elec       q    Type
REMARK                         _______ _______ _______ _____ _____    ______ ____
ROOT
ATOM      1  O   UNL     1       1.729   4.011  21.423  0.00  0.00    +0.000 OA
ATOM      2  C   UNL     1       2.023   4.966  20.707  0.00  0.00    +0.000 A 
ATOM      3  N   UNL     1       1.550   6.217  21.001  0.00  0.00    +0.000 NA
ATOM      4  C   UNL     1       1.919   7.167  20.230  0.00  0.00    +0.000 A 
ATOM      5  C   UNL     1       2.784   7.082  19.061  0.00  0.00    +0.000 A 
ATOM      6  C   UNL     1       3.207   5.851  18.744  0.00  0.00    +0.000 A 
ATOM      7  N   UNL     1       2.842   4.795  19.570  0.00  0.00    +0.000 N 
ATOM      8  C   UNL     1       3.278   3.431  19.333  0.00  0.00    +0.000 C 
ATOM      9  C   UNL     1       4.169   3.144  18.133  0.00  0.00    +0.000 C 
ATOM     10  C   UNL     1       4.474   4.300  17.232  0.00  0.00    +0.000 A 
ATOM     11  C   UNL     1       5.246   4.040  16.074  0.00  0.00    +0.000 A 
ATOM     12  C   UNL     1       5.597   5.063  15.200  0.00  0.00    +0.000 A 
ATOM     13  C   UNL     1       5.187   6.355  15.497  0.00  0.00    +0.000 A 
ATOM     14  C   UNL     1       4.413   6.619  16.635  0.00  0.00    +0.000 A 
ATOM     15  C   UNL     1       4.039   5.599  17.531  0.00  0.00    +0.000 A 
ENDROOT
BRANCH   4  16
ATOM     16  O   UNL     1       1.532   8.451  20.397  0.00  0.00    +0.000 OA
BRANCH  16  17
ATOM     17  C   UNL     1       1.090   8.830  21.717  0.00  0.00    +0.000 C 
BRANCH  17  18
ATOM     18  C   UNL     1      -0.020   9.869  21.551  0.00  0.00    +0.000 C 
ATOM     19  C   UNL     1      -0.506  10.032  20.119  0.00  0.00    +0.000 C 
ATOM     20  C   UNL     1      -0.994  11.460  20.119  0.00  0.00    +0.000 C 
ATOM     21  C   UNL     1       0.024  12.143  21.005  0.00  0.00    +0.000 C 
ATOM     22  O   UNL     1       0.461  11.171  21.959  0.00  0.00    +0.000 OA
ENDBRANCH  17  18
ENDBRANCH  16  17
ENDBRANCH   4  16
BRANCH  12  23
ATOM     23  O   UNL     1       6.359   4.933  14.074  0.00  0.00    +0.000 OA
BRANCH  23  24
ATOM     24  C   UNL     1       6.562   3.604  13.593  0.00  0.00    +0.000 C 
BRANCH  24  25
ATOM     25  C   UNL     1       6.156   3.550  12.148  0.00  0.00    +0.000 C 
ATOM     26  C   UNL     1       5.778   2.244  11.494  0.00  0.00    +0.000 C 
ATOM     27  C   UNL     1       4.719   3.271  11.778  0.00  0.00    +0.000 C 
ENDBRANCH  24  25
ENDBRANCH  23  24
ENDBRANCH  12  23
TORSDOF 6
ENDMDL
MODEL 2
REMARK VINA RESULT:      -8.0      2.097      8.452
REMARK  Name = 
REMARK  6 active torsions:
REMARK  status: ('A' for Active; 'I' for Inactive)
REMARK    1  A    between atoms: C_4  and  O_5
REMARK    2  A    between atoms: O_5  and  C_6
REMARK    3  A    between atoms: C_6  and  C_7
REMARK    4  A    between atoms: C_19  and  O_20
REMARK    5  A    between atoms: O_20  and  C_21
REMARK    6  A    between atoms: C_21  and  C_22
REMARK                            x       y       z     vdW  Elec       q    Type
REMARK                         _______ _______ _______ _____ _____    ______ ____
ROOT
ATOM      1  O   UNL     1       5.153   3.386  19.345  0.00  0.00    +0.000 OA
ATOM      2  C   UNL     1       5.086   4.375  18.618  0.00  0.00    +0.000 A 
ATOM      3  N   UNL     1       5.955   4.518  17.570  0.00  0.00    +0.000 NA
ATOM      4  C   UNL     1       5.808   5.557  16.840  0.00  0.00    +0.000 A 
ATOM      5  C   UNL     1       4.824   6.621  16.990  0.00  0.00    +0.000 A 
ATOM      6  C   UNL     1       4.006   6.506  18.044  0.00  0.00    +0.000 A 
ATOM      7  N   UNL     1       4.122   5.380  18.851  0.00  0.00    +0.000 N 
ATOM      8  C   UNL     1       3.260   5.145  19.994  0.00  0.00    +0.000 C 
ATOM      9  C   UNL     1       2.185   6.171  20.324  0.00  0.00    +0.000 C 
ATOM     10  C   UNL     1       2.146   7.401  19.472  0.00  0.00    +0.000 A 
ATOM     11  C   UNL     1       1.197   8.397  19.805  0.00  0.00    +0.000 A 
ATOM     12  C   UNL     1       1.077   9.557  19.047  0.00  0.00    +0.000 A 
ATOM     13  C   UNL     1       1.900   9.712  17.941  0.00  0.00    +0.000 A 
ATOM     14  C   UNL     1       2.850   8.735  17.612  0.00  0.00    +0.000 A 
ATOM     15  C   UNL     1       2.996   7.556  18.367  0.00  0.00    +0.000 A 
ENDROOT
BRANCH   4  16
ATOM     16  O   UNL     1       6.591   5.830  15.773  0.00  0.00    +0.000 OA
BRANCH  16  17
ATOM     17  C   UNL     1       7.115   4.701  15.044  0.00  0.00    +0.000 C 
BRANCH  17  18
ATOM     18  C   UNL     1       6.423   4.670  13.682  0.00  0.00    +0.000 C 
ATOM     19  C   UNL     1       5.294   3.656  13.584  0.00  0.00    +0.000 C 
ATOM     20  C   UNL     1       5.288   3.340  12.108  0.00  0.00    +0.000 C 
ATOM     21  C   UNL     1       6.763   3.358  11.774  0.00  0.00    +0.000 C 
ATOM     22  O   UNL     1       7.374   4.305  12.655  0.00  0.00    +0.000 OA
ENDBRANCH  17  18
ENDBRANCH  16  17
ENDBRANCH   4  16
BRANCH  12  23
ATOM     23  O   UNL     1       0.182  10.567  19.258  0.00  0.00    +0.000 OA
BRANCH  23  24
ATOM     24  C   UNL     1      -1.200  10.225  19.149  0.00  0.00    +0.000 C 
BRANCH  24  25
ATOM     25  C   UNL     1      -1.572  10.191  17.695  0.00  0.00    +0.000 C 
ATOM     26  C   UNL     1      -2.951   9.767  17.253  0.00  0.00    +0.000 C 
ATOM     27  C   UNL     1      -2.540  11.207  17.139  0.00  0.00    +0.000 C 
ENDBRANCH  24  25
ENDBRANCH  23  24
ENDBRANCH  12  23
TORSDOF 6
ENDMDL
MODEL 3
REMARK VINA RESULT:      -8.0      1.087      1.370
REMARK  Name = 
REMARK  6 active torsions:
REMARK  status: ('A' for Active; 'I' for Inactive)
REMARK    1  A    between atoms: C_4  and  O_5
REMARK    2  A    between atoms: O_5  and  C_6
REMARK    3  A    between atoms: C_6  and  C_7
REMARK    4  A    between atoms: C_19  and  O_20
REMARK    5  A    between atoms: O_20  and  C_21
REMARK    6  A    between atoms: C_21  and  C_22
REMARK                            x       y       z     vdW  Elec       q    Type
REMARK                         _______ _______ _______ _____ _____    ______ ____
ROOT
ATOM      1  O   UNL     1       1.286   3.588  20.927  0.00  0.00    +0.000 OA
ATOM      2  C   UNL     1       1.789   4.518  20.300  0.00  0.00    +0.000 A 
ATOM      3  N   UNL     1       1.453   5.811  20.601  0.00  0.00    +0.000 NA
ATOM      4  C   UNL     1       2.037   6.728  19.928  0.00  0.00    +0.000 A 
ATOM      5  C   UNL     1       3.019   6.565  18.865  0.00  0.00    +0.000 A 
ATOM      6  C   UNL     1       3.311   5.299  18.537  0.00  0.00    +0.000 A 
ATOM      7  N   UNL     1       2.712   4.275  19.260  0.00  0.00    +0.000 N 
ATOM      8  C   UNL     1       2.989   2.873  19.006  0.00  0.00    +0.000 C 
ATOM      9  C   UNL     1       3.974   2.509  17.905  0.00  0.00    +0.000 C 
ATOM     10  C   UNL     1       4.538   3.642  17.106  0.00  0.00    +0.000 A 
ATOM     11  C   UNL     1       5.404   3.319  16.035  0.00  0.00    +0.000 A 
ATOM     12  C   UNL     1       5.993   4.313  15.260  0.00  0.00    +0.000 A 
ATOM     13  C   UNL     1       5.724   5.639  15.573  0.00  0.00    +0.000 A 
ATOM     14  C   UNL     1       4.857   5.966  16.625  0.00  0.00    +0.000 A 
ATOM     15  C   UNL     1       4.245   4.977  17.418  0.00  0.00    +0.000 A 
ENDROOT
BRANCH   4  16
ATOM     16  O   UNL     1       1.806   8.046  20.114  0.00  0.00    +0.000 OA
BRANCH  16  17
ATOM     17  C   UNL     1       1.628   8.848  18.928  0.00  0.00    +0.000 C 
BRANCH  17  18
ATOM     18  C   UNL     1       0.974  10.162  19.354  0.00  0.00    +0.000 C 
ATOM     19  C   UNL     1       0.144  10.058  20.624  0.00  0.00    +0.000 C 
ATOM     20  C   UNL     1      -0.868  11.160  20.424  0.00  0.00    +0.000 C 
ATOM     21  C   UNL     1      -1.140  11.075  18.939  0.00  0.00    +0.000 C 
ATOM     22  O   UNL     1       0.068  10.618  18.323  0.00  0.00    +0.000 OA
ENDBRANCH  17  18
ENDBRANCH  16  17
ENDBRANCH   4  16
BRANCH  12  23
ATOM     23  O   UNL     1       6.862   4.119  14.226  0.00  0.00    +0.000 OA
BRANCH  23  24
ATOM     24  C   UNL     1       6.339   4.306  12.911  0.00  0.00    +0.000 C 
BRANCH  24  25
ATOM     25  C   UNL     1       5.320   3.236  12.644  0.00  0.00    +0.000 C 
ATOM     26  C   UNL     1       4.401   3.316  11.450  0.00  0.00    +0.000 C 
ATOM     27  C   UNL     1       5.502   2.295  11.477  0.00  0.00    +0.000 C 
ENDBRANCH  24  25
ENDBRANCH  23  24
ENDBRANCH  12  23
TORSDOF 6
ENDMDL
MODEL 4
REMARK VINA RESULT:      -8.0      2.264      8.368
REMARK  Name = 
REMARK  6 active torsions:
REMARK  status: ('A' for Active; 'I' for Inactive)
REMARK    1  A    between atoms: C_4  and  O_5
REMARK    2  A    between atoms: O_5  and  C_6
REMARK    3  A    between atoms: C_6  and  C_7
REMARK    4  A    between atoms: C_19  and  O_20
REMARK    5  A    between atoms: O_20  and  C_21
REMARK    6  A    between atoms: C_21  and  C_22
REMARK                            x       y       z     vdW  Elec       q    Type
REMARK                         _______ _______ _______ _____ _____    ______ ____
ROOT
ATOM      1  O   UNL     1       3.245   3.381  20.212  0.00  0.00    +0.000 OA
ATOM      2  C   UNL     1       3.372   4.275  19.378  0.00  0.00    +0.000 A 
ATOM      3  N   UNL     1       4.145   4.073  18.266  0.00  0.00    +0.000 NA
ATOM      4  C   UNL     1       4.208   5.035  17.427  0.00  0.00    +0.000 A 
ATOM      5  C   UNL     1       3.560   6.337  17.513  0.00  0.00    +0.000 A 
ATOM      6  C   UNL     1       2.844   6.553  18.625  0.00  0.00    +0.000 A 
ATOM      7  N   UNL     1       2.735   5.523  19.551  0.00  0.00    +0.000 N 
ATOM      8  C   UNL     1       1.954   5.645  20.768  0.00  0.00    +0.000 C 
ATOM      9  C   UNL     1       1.226   6.953  21.043  0.00  0.00    +0.000 C 
ATOM     10  C   UNL     1       1.433   8.058  20.054  0.00  0.00    +0.000 A 
ATOM     11  C   UNL     1       0.817   9.302  20.327  0.00  0.00    +0.000 A 
ATOM     12  C   UNL     1       0.936  10.372  19.446  0.00  0.00    +0.000 A 
ATOM     13  C   UNL     1       1.661  10.187  18.277  0.00  0.00    +0.000 A 
ATOM     14  C   UNL     1       2.284   8.960  18.005  0.00  0.00    +0.000 A 
ATOM     15  C   UNL     1       2.183   7.866  18.885  0.00  0.00    +0.000 A 
ENDROOT
BRANCH   4  16
ATOM     16  O   UNL     1       4.931   4.979  16.287  0.00  0.00    +0.000 OA
BRANCH  16  17
ATOM     17  C   UNL     1       6.188   4.274  16.347  0.00  0.00    +0.000 C 
BRANCH  17  18
ATOM     18  C   UNL     1       7.262   5.281  16.758  0.00  0.00    +0.000 C 
ATOM     19  C   UNL     1       7.506   5.350  18.257  0.00  0.00    +0.000 C 
ATOM     20  C   UNL     1       7.999   6.766  18.426  0.00  0.00    +0.000 C 
ATOM     21  C   UNL     1       7.147   7.519  17.429  0.00  0.00    +0.000 C 
ATOM     22  O   UNL     1       6.866   6.613  16.357  0.00  0.00    +0.000 OA
ENDBRANCH  17  18
ENDBRANCH  16  17
ENDBRANCH   4  16
BRANCH  12  23
ATOM     23  O   UNL     1       0.364  11.603  19.592  0.00  0.00    +0.000 OA
BRANCH  23  24
ATOM     24  C   UNL     1      -0.911  11.640  20.235  0.00  0.00    +0.000 C 
BRANCH  24  25
ATOM     25  C   UNL     1      -0.730  12.166  21.630  0.00  0.00    +0.000 C 
ATOM     26  C   UNL     1      -1.918  12.502  22.496  0.00  0.00    +0.000 C 
ATOM     27  C   UNL     1      -1.080  11.298  22.815  0.00  0.00    +0.000 C 
ENDBRANCH  24  25
ENDBRANCH  23  24
ENDBRANCH  12  23
TORSDOF 6
ENDMDL
MODEL 5
REMARK VINA RESULT:      -8.0      1.838      8.955
REMARK  Name = 
REMARK  6 active torsions:
REMARK  status: ('A' for Active; 'I' for Inactive)
REMARK    1  A    between atoms: C_4  and  O_5
REMARK    2  A    between atoms: O_5  and  C_6
REMARK    3  A    between atoms: C_6  and  C_7
REMARK    4  A    between atoms: C_19  and  O_20
REMARK    5  A    between atoms: O_20  and  C_21
REMARK    6  A    between atoms: C_21  and  C_22
REMARK                            x       y       z     vdW  Elec       q    Type
REMARK                         _______ _______ _______ _____ _____    ______ ____
ROOT
ATOM      1  O   UNL     1       5.160   3.317  19.275  0.00  0.00    +0.000 OA
ATOM      2  C   UNL     1       5.052   4.324  18.579  0.00  0.00    +0.000 A 
ATOM      3  N   UNL     1       5.882   4.509  17.505  0.00  0.00    +0.000 NA
ATOM      4  C   UNL     1       5.694   5.565  16.810  0.00  0.00    +0.000 A 
ATOM      5  C   UNL     1       4.702   6.609  17.025  0.00  0.00    +0.000 A 
ATOM      6  C   UNL     1       3.923   6.454  18.103  0.00  0.00    +0.000 A 
ATOM      7  N   UNL     1       4.084   5.308  18.874  0.00  0.00    +0.000 N 
ATOM      8  C   UNL     1       3.266   5.029  20.039  0.00  0.00    +0.000 C 
ATOM      9  C   UNL     1       2.191   6.029  20.437  0.00  0.00    +0.000 C 
ATOM     10  C   UNL     1       2.105   7.282  19.622  0.00  0.00    +0.000 A 
ATOM     11  C   UNL     1       1.155   8.254  20.016  0.00  0.00    +0.000 A 
ATOM     12  C   UNL     1       0.992   9.433  19.296  0.00  0.00    +0.000 A 
ATOM     13  C   UNL     1       1.772   9.630  18.165  0.00  0.00    +0.000 A 
ATOM     14  C   UNL     1       2.723   8.677  17.775  0.00  0.00    +0.000 A 
ATOM     15  C   UNL     1       2.912   7.479  18.492  0.00  0.00    +0.000 A 
ENDROOT
BRANCH   4  16
ATOM     16  O   UNL     1       6.435   5.879  15.725  0.00  0.00    +0.000 OA
BRANCH  16  17
ATOM     17  C   UNL     1       7.067   4.784  15.030  0.00  0.00    +0.000 C 
BRANCH  17  18
ATOM     18  C   UNL     1       6.417   4.676  13.651  0.00  0.00    +0.000 C 
ATOM     19  C   UNL     1       5.403   3.550  13.531  0.00  0.00    +0.000 C 
ATOM     20  C   UNL     1       5.468   3.229  12.058  0.00  0.00    +0.000 C 
ATOM     21  C   UNL     1       6.941   3.400  11.761  0.00  0.00    +0.000 C 
ATOM     22  O   UNL     1       7.428   4.409  12.651  0.00  0.00    +0.000 OA
ENDBRANCH  17  18
ENDBRANCH  16  17
ENDBRANCH   4  16
BRANCH  12  23
ATOM     23  O   UNL     1       0.091  10.423  19.566  0.00  0.00    +0.000 OA
BRANCH  23  24
ATOM     24  C   UNL     1       0.245  11.100  20.815  0.00  0.00    +0.000 C 
BRANCH  24  25
ATOM     25  C   UNL     1      -0.853  10.657  21.738  0.00  0.00    +0.000 C 
ATOM     26  C   UNL     1      -0.542  10.100  23.106  0.00  0.00    +0.000 C 
ATOM     27  C   UNL     1      -1.166  11.460  22.978  0.00  0.00    +0.000 C 
ENDBRANCH  24  25
ENDBRANCH  23  24
ENDBRANCH  12  23
TORSDOF 6
ENDMDL
MODEL 6
REMARK VINA RESULT:      -7.9      2.135      8.187
REMARK  Name = 
REMARK  6 active torsions:
REMARK  status: ('A' for Active; 'I' for Inactive)
REMARK    1  A    between atoms: C_4  and  O_5
REMARK    2  A    between atoms: O_5  and  C_6
REMARK    3  A    between atoms: C_6  and  C_7
REMARK    4  A    between atoms: C_19  and  O_20
REMARK    5  A    between atoms: O_20  and  C_21
REMARK    6  A    between atoms: C_21  and  C_22
REMARK                            x       y       z     vdW  Elec       q    Type
REMARK                         _______ _______ _______ _____ _____    ______ ____
ROOT
ATOM      1  O   UNL     1       3.403   1.356  18.582  0.00  0.00    +0.000 OA
ATOM      2  C   UNL     1       3.534   2.516  18.198  0.00  0.00    +0.000 A 
ATOM      3  N   UNL     1       4.287   2.790  17.087  0.00  0.00    +0.000 NA
ATOM      4  C   UNL     1       4.356   4.015  16.729  0.00  0.00    +0.000 A 
ATOM      5  C   UNL     1       3.734   5.168  17.367  0.00  0.00    +0.000 A 
ATOM      6  C   UNL     1       3.039   4.905  18.482  0.00  0.00    +0.000 A 
ATOM      7  N   UNL     1       2.924   3.582  18.892  0.00  0.00    +0.000 N 
ATOM      8  C   UNL     1       2.163   3.191  20.064  0.00  0.00    +0.000 C 
ATOM      9  C   UNL     1       1.464   4.270  20.878  0.00  0.00    +0.000 C 
ATOM     10  C   UNL     1       1.677   5.685  20.441  0.00  0.00    +0.000 A 
ATOM     11  C   UNL     1       1.089   6.707  21.224  0.00  0.00    +0.000 A 
ATOM     12  C   UNL     1       1.216   8.047  20.870  0.00  0.00    +0.000 A 
ATOM     13  C   UNL     1       1.920   8.362  19.716  0.00  0.00    +0.000 A 
ATOM     14  C   UNL     1       2.515   7.356  18.942  0.00  0.00    +0.000 A 
ATOM     15  C   UNL     1       2.407   5.994  19.283  0.00  0.00    +0.000 A 
ENDROOT
BRANCH   4  16
ATOM     16  O   UNL     1       5.060   4.436  15.656  0.00  0.00    +0.000 OA
BRANCH  16  17
ATOM     17  C   UNL     1       6.416   3.956  15.539  0.00  0.00    +0.000 C 
BRANCH  17  18
ATOM     18  C   UNL     1       7.321   4.947  16.270  0.00  0.00    +0.000 C 
ATOM     19  C   UNL     1       7.425   4.704  17.767  0.00  0.00    +0.000 C 
ATOM     20  C   UNL     1       7.725   6.088  18.286  0.00  0.00    +0.000 C 
ATOM     21  C   UNL     1       6.877   6.956  17.384  0.00  0.00    +0.000 C 
ATOM     22  O   UNL     1       6.801   6.289  16.120  0.00  0.00    +0.000 OA
ENDBRANCH  17  18
ENDBRANCH  16  17
ENDBRANCH   4  16
BRANCH  12  23
ATOM     23  O   UNL     1       0.669   9.108  21.532  0.00  0.00    +0.000 OA
BRANCH  23  24
ATOM     24  C   UNL     1       0.582  10.335  20.806  0.00  0.00    +0.000 C 
BRANCH  24  25
ATOM     25  C   UNL     1      -0.350  11.259  21.535  0.00  0.00    +0.000 C 
ATOM     26  C   UNL     1      -0.149  12.754  21.503  0.00  0.00    +0.000 C 
ATOM     27  C   UNL     1      -1.300  12.139  20.760  0.00  0.00    +0.000 C 
ENDBRANCH  24  25
ENDBRANCH  23  24
ENDBRANCH  12  23
TORSDOF 6
ENDMDL
MODEL 7
REMARK VINA RESULT:      -7.9      1.635      8.695
REMARK  Name = 
REMARK  6 active torsions:
REMARK  status: ('A' for Active; 'I' for Inactive)
REMARK    1  A    between atoms: C_4  and  O_5
REMARK    2  A    between atoms: O_5  and  C_6
REMARK    3  A    between atoms: C_6  and  C_7
REMARK    4  A    between atoms: C_19  and  O_20
REMARK    5  A    between atoms: O_20  and  C_21
REMARK    6  A    between atoms: C_21  and  C_22
REMARK                            x       y       z     vdW  Elec       q    Type
REMARK                         _______ _______ _______ _____ _____    ______ ____
ROOT
ATOM      1  O   UNL     1       3.980   2.244  19.933  0.00  0.00    +0.000 OA
ATOM      2  C   UNL     1       3.911   3.120  19.073  0.00  0.00    +0.000 A 
ATOM      3  N   UNL     1       4.447   2.907  17.831  0.00  0.00    +0.000 NA
ATOM      4  C   UNL     1       4.313   3.850  16.979  0.00  0.00    +0.000 A 
ATOM      5  C   UNL     1       3.662   5.139  17.169  0.00  0.00    +0.000 A 
ATOM      6  C   UNL     1       3.181   5.367  18.399  0.00  0.00    +0.000 A 
ATOM      7  N   UNL     1       3.290   4.357  19.348  0.00  0.00    +0.000 N 
ATOM      8  C   UNL     1       2.769   4.492  20.695  0.00  0.00    +0.000 C 
ATOM      9  C   UNL     1       2.077   5.789  21.087  0.00  0.00    +0.000 C 
ATOM     10  C   UNL     1       2.049   6.874  20.056  0.00  0.00    +0.000 A 
ATOM     11  C   UNL     1       1.469   8.111  20.424  0.00  0.00    +0.000 A 
ATOM     12  C   UNL     1       1.378   9.161  19.516  0.00  0.00    +0.000 A 
ATOM     13  C   UNL     1       1.856   8.964  18.228  0.00  0.00    +0.000 A 
ATOM     14  C   UNL     1       2.443   7.745  17.860  0.00  0.00    +0.000 A 
ATOM     15  C   UNL     1       2.552   6.670  18.763  0.00  0.00    +0.000 A 
ENDROOT
BRANCH   4  16
ATOM     16  O   UNL     1       4.790   3.782  15.717  0.00  0.00    +0.000 OA
BRANCH  16  17
ATOM     17  C   UNL     1       6.193   4.068  15.535  0.00  0.00    +0.000 C 
BRANCH  17  18
ATOM     18  C   UNL     1       6.346   4.797  14.201  0.00  0.00    +0.000 C 
ATOM     19  C   UNL     1       6.446   3.872  12.998  0.00  0.00    +0.000 C 
ATOM     20  C   UNL     1       7.247   4.708  12.030  0.00  0.00    +0.000 C 
ATOM     21  C   UNL     1       8.226   5.404  12.947  0.00  0.00    +0.000 C 
ATOM     22  O   UNL     1       7.564   5.577  14.204  0.00  0.00    +0.000 OA
ENDBRANCH  17  18
ENDBRANCH  16  17
ENDBRANCH   4  16
BRANCH  12  23
ATOM     23  O   UNL     1       0.815  10.383  19.752  0.00  0.00    +0.000 OA
BRANCH  23  24
ATOM     24  C   UNL     1       0.825  10.837  21.106  0.00  0.00    +0.000 C 
BRANCH  24  25
ATOM     25  C   UNL     1      -0.489  10.483  21.740  0.00  0.00    +0.000 C 
ATOM     26  C   UNL     1      -0.555   9.950  23.150  0.00  0.00    +0.000 C 
ATOM     27  C   UNL     1      -1.044  11.338  22.854  0.00  0.00    +0.000 C 
ENDBRANCH  24  25
ENDBRANCH  23  24
ENDBRANCH  12  23
TORSDOF 6
ENDMDL
MODEL 8
REMARK VINA RESULT:      -7.8      2.317      7.574
REMARK  Name = 
REMARK  6 active torsions:
REMARK  status: ('A' for Active; 'I' for Inactive)
REMARK    1  A    between atoms: C_4  and  O_5
REMARK    2  A    between atoms: O_5  and  C_6
REMARK    3  A    between atoms: C_6  and  C_7
REMARK    4  A    between atoms: C_19  and  O_20
REMARK    5  A    between atoms: O_20  and  C_21
REMARK    6  A    between atoms: C_21  and  C_22
REMARK                            x       y       z     vdW  Elec       q    Type
REMARK                         _______ _______ _______ _____ _____    ______ ____
ROOT
ATOM      1  O   UNL     1       3.128   2.445  20.142  0.00  0.00    +0.000 OA
ATOM      2  C   UNL     1       3.313   3.340  19.320  0.00  0.00    +0.000 A 
ATOM      3  N   UNL     1       4.067   3.101  18.202  0.00  0.00    +0.000 NA
ATOM      4  C   UNL     1       4.193   4.070  17.377  0.00  0.00    +0.000 A 
ATOM      5  C   UNL     1       3.634   5.410  17.484  0.00  0.00    +0.000 A 
ATOM      6  C   UNL     1       2.937   5.659  18.601  0.00  0.00    +0.000 A 
ATOM      7  N   UNL     1       2.762   4.625  19.513  0.00  0.00    +0.000 N 
ATOM      8  C   UNL     1       1.994   4.782  20.734  0.00  0.00    +0.000 C 
ATOM      9  C   UNL     1       1.356   6.131  21.030  0.00  0.00    +0.000 C 
ATOM     10  C   UNL     1       1.633   7.234  20.057  0.00  0.00    +0.000 A 
ATOM     11  C   UNL     1       1.103   8.513  20.349  0.00  0.00    +0.000 A 
ATOM     12  C   UNL     1       1.292   9.585  19.482  0.00  0.00    +0.000 A 
ATOM     13  C   UNL     1       2.000   9.368  18.308  0.00  0.00    +0.000 A 
ATOM     14  C   UNL     1       2.538   8.106  18.017  0.00  0.00    +0.000 A 
ATOM     15  C   UNL     1       2.366   7.009  18.882  0.00  0.00    +0.000 A 
ENDROOT
BRANCH   4  16
ATOM     16  O   UNL     1       4.907   3.982  16.234  0.00  0.00    +0.000 OA
BRANCH  16  17
ATOM     17  C   UNL     1       6.314   4.285  16.321  0.00  0.00    +0.000 C 
BRANCH  17  18
ATOM     18  C   UNL     1       6.497   5.311  17.439  0.00  0.00    +0.000 C 
ATOM     19  C   UNL     1       7.321   6.524  17.038  0.00  0.00    +0.000 C 
ATOM     20  C   UNL     1       7.909   6.951  18.361  0.00  0.00    +0.000 C 
ATOM     21  C   UNL     1       8.186   5.623  19.028  0.00  0.00    +0.000 C 
ATOM     22  O   UNL     1       7.196   4.706  18.552  0.00  0.00    +0.000 OA
ENDBRANCH  17  18
ENDBRANCH  16  17
ENDBRANCH   4  16
BRANCH  12  23
ATOM     23  O   UNL     1       0.804  10.849  19.648  0.00  0.00    +0.000 OA
BRANCH  23  24
ATOM     24  C   UNL     1       0.015  11.373  18.579  0.00  0.00    +0.000 C 
BRANCH  24  25
ATOM     25  C   UNL     1      -1.288  10.628  18.535  0.00  0.00    +0.000 C 
ATOM     26  C   UNL     1      -2.435  11.115  17.684  0.00  0.00    +0.000 C 
ATOM     27  C   UNL     1      -1.686   9.875  17.289  0.00  0.00    +0.000 C 
ENDBRANCH  24  25
ENDBRANCH  23  24
ENDBRANCH  12  23
TORSDOF 6
ENDMDL
MODEL 9
REMARK VINA RESULT:      -7.8      2.430      7.992
REMARK  Name = 
REMARK  6 active torsions:
REMARK  status: ('A' for Active; 'I' for Inactive)
REMARK    1  A    between atoms: C_4  and  O_5
REMARK    2  A    between atoms: O_5  and  C_6
REMARK    3  A    between atoms: C_6  and  C_7
REMARK    4  A    between atoms: C_19  and  O_20
REMARK    5  A    between atoms: O_20  and  C_21
REMARK    6  A    between atoms: C_21  and  C_22
REMARK                            x       y       z     vdW  Elec       q    Type
REMARK                         _______ _______ _______ _____ _____    ______ ____
ROOT
ATOM      1  O   UNL     1       3.126   3.364  20.297  0.00  0.00    +0.000 OA
ATOM      2  C   UNL     1       3.306   4.222  19.436  0.00  0.00    +0.000 A 
ATOM      3  N   UNL     1       4.103   3.955  18.356  0.00  0.00    +0.000 NA
ATOM      4  C   UNL     1       4.221   4.884  17.486  0.00  0.00    +0.000 A 
ATOM      5  C   UNL     1       3.613   6.208  17.506  0.00  0.00    +0.000 A 
ATOM      6  C   UNL     1       2.873   6.487  18.587  0.00  0.00    +0.000 A 
ATOM      7  N   UNL     1       2.705   5.495  19.546  0.00  0.00    +0.000 N 
ATOM      8  C   UNL     1       1.894   5.686  20.734  0.00  0.00    +0.000 C 
ATOM      9  C   UNL     1       1.200   7.025  20.940  0.00  0.00    +0.000 C 
ATOM     10  C   UNL     1       1.471   8.086  19.920  0.00  0.00    +0.000 A 
ATOM     11  C   UNL     1       0.888   9.358  20.129  0.00  0.00    +0.000 A 
ATOM     12  C   UNL     1       1.067  10.390  19.214  0.00  0.00    +0.000 A 
ATOM     13  C   UNL     1       1.819  10.140  18.075  0.00  0.00    +0.000 A 
ATOM     14  C   UNL     1       2.409   8.886  17.866  0.00  0.00    +0.000 A 
ATOM     15  C   UNL     1       2.248   7.828  18.781  0.00  0.00    +0.000 A 
ENDROOT
BRANCH   4  16
ATOM     16  O   UNL     1       4.974   4.764  16.370  0.00  0.00    +0.000 OA
BRANCH  16  17
ATOM     17  C   UNL     1       6.241   4.089  16.510  0.00  0.00    +0.000 C 
BRANCH  17  18
ATOM     18  C   UNL     1       7.291   5.145  16.856  0.00  0.00    +0.000 C 
ATOM     19  C   UNL     1       7.498   5.347  18.349  0.00  0.00    +0.000 C 
ATOM     20  C   UNL     1       7.965   6.781  18.406  0.00  0.00    +0.000 C 
ATOM     21  C   UNL     1       7.126   7.431  17.329  0.00  0.00    +0.000 C 
ATOM     22  O   UNL     1       6.884   6.432  16.334  0.00  0.00    +0.000 OA
ENDBRANCH  17  18
ENDBRANCH  16  17
ENDBRANCH   4  16
BRANCH  12  23
ATOM     23  O   UNL     1       0.531  11.643  19.300  0.00  0.00    +0.000 OA
BRANCH  23  24
ATOM     24  C   UNL     1       1.256  12.692  18.657  0.00  0.00    +0.000 C 
BRANCH  24  25
ATOM     25  C   UNL     1       2.078  13.409  19.689  0.00  0.00    +0.000 C 
ATOM     26  C   UNL     1       3.268  14.247  19.291  0.00  0.00    +0.000 C 
ATOM     27  C   UNL     1       2.018  14.914  19.789  0.00  0.00    +0.000 C 
ENDBRANCH  24  25
ENDBRANCH  23  24
ENDBRANCH  12  23
TORSDOF 6
ENDMDL
