MODEL 1
REMARK VINA RESULT:      -7.6      0.000      0.000
REMARK  Name = 
REMARK  10 active torsions:
REMARK  status: ('A' for Active; 'I' for Inactive)
REMARK    1  A    between atoms: C_1  and  C_2
REMARK    2  A    between atoms: C_2  and  C_3
REMARK    3  A    between atoms: C_3  and  C_4
REMARK    4  A    between atoms: C_3  and  C_5
REMARK    5  A    between atoms: C_10  and  N_11
REMARK    6  A    between atoms: C_12  and  C_14
REMARK    7  A    between atoms: C_16  and  C_17
REMARK    8  A    between atoms: C_18  and  C_19
REMARK    9  A    between atoms: C_19  and  C_20
REMARK   10  A    between atoms: C_22  and  C_23
REMARK                            x       y       z     vdW  Elec       q    Type
REMARK                         _______ _______ _______ _____ _____    ______ ____
ROOT
ATOM      1  N   UNL     1       2.888   7.259  18.595  0.00  0.00    +0.000 N 
ATOM      2  C   UNL     1       2.136   8.387  18.278  0.00  0.00    +0.000 C 
ATOM      3  O   UNL     1       2.061   8.907  17.170  0.00  0.00    +0.000 OA
ATOM      4  H   UNL     1       3.001   7.101  19.582  0.00  0.00    +0.000 HD
ENDROOT
BRANCH   2   5
ATOM      5  C   UNL     1       1.518   9.041  19.424  0.00  0.00    +0.000 A 
ATOM      6  N   UNL     1       1.140  10.360  19.334  0.00  0.00    +0.000 N 
ATOM      7  C   UNL     1       0.777  10.837  20.560  0.00  0.00    +0.000 A 
ATOM      8  C   UNL     1       0.549  12.290  20.791  0.00  0.00    +0.000 C 
ATOM      9  C   UNL     1       0.679   9.757  21.427  0.00  0.00    +0.000 A 
ATOM     10  C   UNL     1       1.112   8.594  20.682  0.00  0.00    +0.000 A 
ATOM     11  C   UNL     1       1.077   7.166  21.113  0.00  0.00    +0.000 C 
ATOM     12  H   UNL     1       1.217  10.907  18.482  0.00  0.00    +0.000 HD
BRANCH   9  13
ATOM     13  C   UNL     1       0.219   9.906  22.819  0.00  0.00    +0.000 C 
ATOM     14  C   UNL     1      -1.147  10.471  23.107  0.00  0.00    +0.000 C 
ATOM     15  O   UNL     1       0.913   9.527  23.765  0.00  0.00    +0.000 OA
ENDBRANCH   9  13
ENDBRANCH   2   5
BRANCH   1  21
ATOM     16  C   UNL     1       3.553   5.042  17.730  0.00  0.00    +0.000 A 
ATOM     17  C   UNL     1       4.367   4.293  16.853  0.00  0.00    +0.000 A 
ATOM     18  C   UNL     1       5.284   4.906  16.001  0.00  0.00    +0.000 A 
ATOM     19  C   UNL     1       5.395   6.286  15.994  0.00  0.00    +0.000 A 
ATOM     20  C   UNL     1       4.582   7.056  16.827  0.00  0.00    +0.000 A 
ATOM     21  C   UNL     1       3.669   6.463  17.713  0.00  0.00    +0.000 A 
BRANCH  16  22
ATOM     22  C   UNL     1       2.736   4.293  18.789  0.00  0.00    +0.000 C 
ATOM     23  C   UNL     1       3.678   3.254  19.420  0.00  0.00    +0.000 C 
BRANCH  22  25
ATOM     24  C   UNL     1       0.720   2.802  19.442  0.00  0.00    +0.000 C 
ATOM     25  C   UNL     1       1.450   3.552  18.337  0.00  0.00    +0.000 C 
ENDBRANCH  22  25
ENDBRANCH  16  22
ENDBRANCH   1  21
TORSDOF 5
ENDMDL
MODEL 2
REMARK VINA RESULT:      -7.5      1.343      2.039
REMARK  Name = 
REMARK  10 active torsions:
REMARK  status: ('A' for Active; 'I' for Inactive)
REMARK    1  A    between atoms: C_1  and  C_2
REMARK    2  A    between atoms: C_2  and  C_3
REMARK    3  A    between atoms: C_3  and  C_4
REMARK    4  A    between atoms: C_3  and  C_5
REMARK    5  A    between atoms: C_10  and  N_11
REMARK    6  A    between atoms: C_12  and  C_14
REMARK    7  A    between atoms: C_16  and  C_17
REMARK    8  A    between atoms: C_18  and  C_19
REMARK    9  A    between atoms: C_19  and  C_20
REMARK   10  A    between atoms: C_22  and  C_23
REMARK                            x       y       z     vdW  Elec       q    Type
REMARK                         _______ _______ _______ _____ _____    ______ ____
ROOT
ATOM      1  N   UNL     1       2.480   7.519  18.823  0.00  0.00    +0.000 N 
ATOM      2  C   UNL     1       1.894   8.710  18.400  0.00  0.00    +0.000 C 
ATOM      3  O   UNL     1       1.987   9.191  17.276  0.00  0.00    +0.000 OA
ATOM      4  H   UNL     1       2.477   7.388  19.820  0.00  0.00    +0.000 HD
ENDROOT
BRANCH   2   5
ATOM      5  C   UNL     1       1.244   9.471  19.459  0.00  0.00    +0.000 A 
ATOM      6  N   UNL     1       0.954   8.862  20.657  0.00  0.00    +0.000 N 
ATOM      7  C   UNL     1       0.172   9.671  21.427  0.00  0.00    +0.000 A 
ATOM      8  C   UNL     1      -0.479   9.170  22.669  0.00  0.00    +0.000 C 
ATOM      9  C   UNL     1       0.146  10.928  20.837  0.00  0.00    +0.000 A 
ATOM     10  C   UNL     1       0.877  10.811  19.593  0.00  0.00    +0.000 A 
ATOM     11  C   UNL     1       1.248  11.900  18.644  0.00  0.00    +0.000 C 
ATOM     12  H   UNL     1       1.218   7.907  20.876  0.00  0.00    +0.000 HD
BRANCH   9  13
ATOM     13  C   UNL     1      -0.539  12.075  21.460  0.00  0.00    +0.000 C 
ATOM     14  C   UNL     1      -1.943  12.432  21.047  0.00  0.00    +0.000 C 
ATOM     15  O   UNL     1      -0.003  12.727  22.359  0.00  0.00    +0.000 OA
ENDBRANCH   9  13
ENDBRANCH   2   5
BRANCH   1  21
ATOM     16  C   UNL     1       2.922   5.222  18.028  0.00  0.00    +0.000 A 
ATOM     17  C   UNL     1       3.731   4.354  17.263  0.00  0.00    +0.000 A 
ATOM     18  C   UNL     1       4.838   4.817  16.554  0.00  0.00    +0.000 A 
ATOM     19  C   UNL     1       5.152   6.165  16.582  0.00  0.00    +0.000 A 
ATOM     20  C   UNL     1       4.354   7.054  17.304  0.00  0.00    +0.000 A 
ATOM     21  C   UNL     1       3.249   6.610  18.047  0.00  0.00    +0.000 A 
BRANCH  16  22
ATOM     22  C   UNL     1       1.865   4.611  18.954  0.00  0.00    +0.000 C 
ATOM     23  C   UNL     1       2.552   4.362  20.307  0.00  0.00    +0.000 C 
BRANCH  22  25
ATOM     24  C   UNL     1       1.632   2.051  19.289  0.00  0.00    +0.000 C 
ATOM     25  C   UNL     1       1.184   3.286  18.519  0.00  0.00    +0.000 C 
ENDBRANCH  22  25
ENDBRANCH  16  22
ENDBRANCH   1  21
TORSDOF 5
ENDMDL
MODEL 3
REMARK VINA RESULT:      -7.4      1.832      2.532
REMARK  Name = 
REMARK  10 active torsions:
REMARK  status: ('A' for Active; 'I' for Inactive)
REMARK    1  A    between atoms: C_1  and  C_2
REMARK    2  A    between atoms: C_2  and  C_3
REMARK    3  A    between atoms: C_3  and  C_4
REMARK    4  A    between atoms: C_3  and  C_5
REMARK    5  A    between atoms: C_10  and  N_11
REMARK    6  A    between atoms: C_12  and  C_14
REMARK    7  A    between atoms: C_16  and  C_17
REMARK    8  A    between atoms: C_18  and  C_19
REMARK    9  A    between atoms: C_19  and  C_20
REMARK   10  A    between atoms: C_22  and  C_23
REMARK                            x       y       z     vdW  Elec       q    Type
REMARK                         _______ _______ _______ _____ _____    ______ ____
ROOT
ATOM      1  N   UNL     1       2.817   6.599  20.135  0.00  0.00    +0.000 N 
ATOM      2  C   UNL     1       2.116   7.526  19.367  0.00  0.00    +0.000 C 
ATOM      3  O   UNL     1       2.074   7.553  18.142  0.00  0.00    +0.000 OA
ATOM      4  H   UNL     1       2.912   6.852  21.103  0.00  0.00    +0.000 HD
ENDROOT
BRANCH   2   5
ATOM      5  C   UNL     1       1.513   8.610  20.132  0.00  0.00    +0.000 A 
ATOM      6  N   UNL     1       1.321   8.463  21.486  0.00  0.00    +0.000 N 
ATOM      7  C   UNL     1       0.566   9.490  21.974  0.00  0.00    +0.000 A 
ATOM      8  C   UNL     1       0.013   9.458  23.357  0.00  0.00    +0.000 C 
ATOM      9  C   UNL     1       0.464  10.455  20.982  0.00  0.00    +0.000 A 
ATOM     10  C   UNL     1       1.115   9.908  19.810  0.00  0.00    +0.000 A 
ATOM     11  C   UNL     1       1.391  10.592  18.514  0.00  0.00    +0.000 C 
ATOM     12  H   UNL     1       1.627   7.649  22.009  0.00  0.00    +0.000 HD
BRANCH   9  13
ATOM     13  C   UNL     1      -0.213  11.745  21.206  0.00  0.00    +0.000 C 
ATOM     14  C   UNL     1      -1.611  11.964  20.692  0.00  0.00    +0.000 C 
ATOM     15  O   UNL     1       0.325  12.644  21.859  0.00  0.00    +0.000 OA
ENDBRANCH   9  13
ENDBRANCH   2   5
BRANCH   1  21
ATOM     16  C   UNL     1       3.113   4.157  19.902  0.00  0.00    +0.000 A 
ATOM     17  C   UNL     1       3.911   3.086  19.446  0.00  0.00    +0.000 A 
ATOM     18  C   UNL     1       5.131   3.299  18.806  0.00  0.00    +0.000 A 
ATOM     19  C   UNL     1       5.572   4.593  18.592  0.00  0.00    +0.000 A 
ATOM     20  C   UNL     1       4.792   5.675  19.003  0.00  0.00    +0.000 A 
ATOM     21  C   UNL     1       3.573   5.487  19.672  0.00  0.00    +0.000 A 
BRANCH  16  22
ATOM     22  C   UNL     1       1.904   3.844  20.789  0.00  0.00    +0.000 C 
ATOM     23  C   UNL     1       2.321   2.686  21.712  0.00  0.00    +0.000 C 
BRANCH  22  25
ATOM     24  C   UNL     1       0.724   2.589  18.852  0.00  0.00    +0.000 C 
ATOM     25  C   UNL     1       0.571   3.444  20.102  0.00  0.00    +0.000 C 
ENDBRANCH  22  25
ENDBRANCH  16  22
ENDBRANCH   1  21
TORSDOF 5
ENDMDL
MODEL 4
REMARK VINA RESULT:      -7.4      1.962      3.672
REMARK  Name = 
REMARK  10 active torsions:
REMARK  status: ('A' for Active; 'I' for Inactive)
REMARK    1  A    between atoms: C_1  and  C_2
REMARK    2  A    between atoms: C_2  and  C_3
REMARK    3  A    between atoms: C_3  and  C_4
REMARK    4  A    between atoms: C_3  and  C_5
REMARK    5  A    between atoms: C_10  and  N_11
REMARK    6  A    between atoms: C_12  and  C_14
REMARK    7  A    between atoms: C_16  and  C_17
REMARK    8  A    between atoms: C_18  and  C_19
REMARK    9  A    between atoms: C_19  and  C_20
REMARK   10  A    between atoms: C_22  and  C_23
REMARK                            x       y       z     vdW  Elec       q    Type
REMARK                         _______ _______ _______ _____ _____    ______ ____
ROOT
ATOM      1  N   UNL     1       2.487   6.282  18.753  0.00  0.00    +0.000 N 
ATOM      2  C   UNL     1       2.101   6.492  20.075  0.00  0.00    +0.000 C 
ATOM      3  O   UNL     1       2.058   5.635  20.951  0.00  0.00    +0.000 OA
ATOM      4  H   UNL     1       2.261   7.039  18.132  0.00  0.00    +0.000 HD
ENDROOT
BRANCH   2   5
ATOM      5  C   UNL     1       1.588   7.828  20.348  0.00  0.00    +0.000 A 
ATOM      6  N   UNL     1       1.288   8.192  21.640  0.00  0.00    +0.000 N 
ATOM      7  C   UNL     1       0.635   9.390  21.659  0.00  0.00    +0.000 A 
ATOM      8  C   UNL     1      -0.009   9.904  22.899  0.00  0.00    +0.000 C 
ATOM      9  C   UNL     1       0.721   9.944  20.388  0.00  0.00    +0.000 A 
ATOM     10  C   UNL     1       1.376   8.957  19.556  0.00  0.00    +0.000 A 
ATOM     11  C   UNL     1       1.822   9.105  18.140  0.00  0.00    +0.000 C 
ATOM     12  H   UNL     1       1.455   7.593  22.443  0.00  0.00    +0.000 HD
BRANCH   9  13
ATOM     13  C   UNL     1       0.196  11.285  20.078  0.00  0.00    +0.000 C 
ATOM     14  C   UNL     1      -1.208  11.445  19.559  0.00  0.00    +0.000 C 
ATOM     15  O   UNL     1       0.869  12.298  20.285  0.00  0.00    +0.000 OA
ENDBRANCH   9  13
ENDBRANCH   2   5
BRANCH   1  21
ATOM     16  C   UNL     1       4.246   4.999  17.586  0.00  0.00    +0.000 A 
ATOM     17  C   UNL     1       4.648   3.782  16.994  0.00  0.00    +0.000 A 
ATOM     18  C   UNL     1       3.803   2.674  16.949  0.00  0.00    +0.000 A 
ATOM     19  C   UNL     1       2.541   2.754  17.511  0.00  0.00    +0.000 A 
ATOM     20  C   UNL     1       2.126   3.933  18.131  0.00  0.00    +0.000 A 
ATOM     21  C   UNL     1       2.947   5.071  18.168  0.00  0.00    +0.000 A 
BRANCH  16  22
ATOM     22  C   UNL     1       5.137   6.232  17.400  0.00  0.00    +0.000 C 
ATOM     23  C   UNL     1       5.159   6.539  15.893  0.00  0.00    +0.000 C 
BRANCH  22  25
ATOM     24  C   UNL     1       7.467   7.361  17.527  0.00  0.00    +0.000 C 
ATOM     25  C   UNL     1       6.608   6.158  17.889  0.00  0.00    +0.000 C 
ENDBRANCH  22  25
ENDBRANCH  16  22
ENDBRANCH   1  21
TORSDOF 5
ENDMDL
MODEL 5
REMARK VINA RESULT:      -7.3      2.252      7.381
REMARK  Name = 
REMARK  10 active torsions:
REMARK  status: ('A' for Active; 'I' for Inactive)
REMARK    1  A    between atoms: C_1  and  C_2
REMARK    2  A    between atoms: C_2  and  C_3
REMARK    3  A    between atoms: C_3  and  C_4
REMARK    4  A    between atoms: C_3  and  C_5
REMARK    5  A    between atoms: C_10  and  N_11
REMARK    6  A    between atoms: C_12  and  C_14
REMARK    7  A    between atoms: C_16  and  C_17
REMARK    8  A    between atoms: C_18  and  C_19
REMARK    9  A    between atoms: C_19  and  C_20
REMARK   10  A    between atoms: C_22  and  C_23
REMARK                            x       y       z     vdW  Elec       q    Type
REMARK                         _______ _______ _______ _____ _____    ______ ____
ROOT
ATOM      1  N   UNL     1       1.675   8.386  20.312  0.00  0.00    +0.000 N 
ATOM      2  C   UNL     1       1.846   7.007  20.221  0.00  0.00    +0.000 C 
ATOM      3  O   UNL     1       1.273   6.170  20.910  0.00  0.00    +0.000 OA
ATOM      4  H   UNL     1       2.373   8.923  19.826  0.00  0.00    +0.000 HD
ENDROOT
BRANCH   2   5
ATOM      5  C   UNL     1       2.905   6.590  19.311  0.00  0.00    +0.000 A 
ATOM      6  N   UNL     1       3.580   5.415  19.543  0.00  0.00    +0.000 N 
ATOM      7  C   UNL     1       4.655   5.309  18.710  0.00  0.00    +0.000 A 
ATOM      8  C   UNL     1       5.688   4.254  18.904  0.00  0.00    +0.000 C 
ATOM      9  C   UNL     1       4.550   6.306  17.749  0.00  0.00    +0.000 A 
ATOM     10  C   UNL     1       3.396   7.103  18.110  0.00  0.00    +0.000 A 
ATOM     11  C   UNL     1       2.777   8.218  17.337  0.00  0.00    +0.000 C 
ATOM     12  H   UNL     1       3.348   4.776  20.297  0.00  0.00    +0.000 HD
BRANCH   9  13
ATOM     13  C   UNL     1       5.505   6.425  16.632  0.00  0.00    +0.000 C 
ATOM     14  C   UNL     1       5.300   5.622  15.375  0.00  0.00    +0.000 C 
ATOM     15  O   UNL     1       6.451   7.215  16.682  0.00  0.00    +0.000 OA
ENDBRANCH   9  13
ENDBRANCH   2   5
BRANCH   1  21
ATOM     16  C   UNL     1      -0.203   9.962  20.620  0.00  0.00    +0.000 A 
ATOM     17  C   UNL     1      -1.046  10.662  21.511  0.00  0.00    +0.000 A 
ATOM     18  C   UNL     1      -0.916  10.539  22.893  0.00  0.00    +0.000 A 
ATOM     19  C   UNL     1       0.051   9.699  23.417  0.00  0.00    +0.000 A 
ATOM     20  C   UNL     1       0.879   8.968  22.563  0.00  0.00    +0.000 A 
ATOM     21  C   UNL     1       0.786   9.093  21.168  0.00  0.00    +0.000 A 
BRANCH  16  22
ATOM     22  C   UNL     1      -0.257  10.317  19.131  0.00  0.00    +0.000 C 
ATOM     23  C   UNL     1       0.585  11.591  18.949  0.00  0.00    +0.000 C 
BRANCH  22  25
ATOM     24  C   UNL     1      -1.837   9.949  17.109  0.00  0.00    +0.000 C 
ATOM     25  C   UNL     1      -1.644  10.571  18.485  0.00  0.00    +0.000 C 
ENDBRANCH  22  25
ENDBRANCH  16  22
ENDBRANCH   1  21
TORSDOF 5
ENDMDL
MODEL 6
REMARK VINA RESULT:      -7.3      1.379      1.556
REMARK  Name = 
REMARK  10 active torsions:
REMARK  status: ('A' for Active; 'I' for Inactive)
REMARK    1  A    between atoms: C_1  and  C_2
REMARK    2  A    between atoms: C_2  and  C_3
REMARK    3  A    between atoms: C_3  and  C_4
REMARK    4  A    between atoms: C_3  and  C_5
REMARK    5  A    between atoms: C_10  and  N_11
REMARK    6  A    between atoms: C_12  and  C_14
REMARK    7  A    between atoms: C_16  and  C_17
REMARK    8  A    between atoms: C_18  and  C_19
REMARK    9  A    between atoms: C_19  and  C_20
REMARK   10  A    between atoms: C_22  and  C_23
REMARK                            x       y       z     vdW  Elec       q    Type
REMARK                         _______ _______ _______ _____ _____    ______ ____
ROOT
ATOM      1  N   UNL     1       2.151   7.602  18.774  0.00  0.00    +0.000 N 
ATOM      2  C   UNL     1       1.787   8.813  18.190  0.00  0.00    +0.000 C 
ATOM      3  O   UNL     1       2.149   9.212  17.089  0.00  0.00    +0.000 OA
ATOM      4  H   UNL     1       1.938   7.535  19.754  0.00  0.00    +0.000 HD
ENDROOT
BRANCH   2   5
ATOM      5  C   UNL     1       1.023   9.697  19.062  0.00  0.00    +0.000 A 
ATOM      6  N   UNL     1       0.216  10.665  18.512  0.00  0.00    +0.000 N 
ATOM      7  C   UNL     1      -0.245  11.508  19.481  0.00  0.00    +0.000 A 
ATOM      8  C   UNL     1      -0.946  12.776  19.138  0.00  0.00    +0.000 C 
ATOM      9  C   UNL     1       0.060  10.949  20.715  0.00  0.00    +0.000 A 
ATOM     10  C   UNL     1       0.837   9.758  20.443  0.00  0.00    +0.000 A 
ATOM     11  C   UNL     1       1.305   8.729  21.417  0.00  0.00    +0.000 C 
ATOM     12  H   UNL     1       0.073  10.773  17.513  0.00  0.00    +0.000 HD
BRANCH   9  13
ATOM     13  C   UNL     1      -0.375  11.560  21.984  0.00  0.00    +0.000 C 
ATOM     14  C   UNL     1      -1.202  10.765  22.960  0.00  0.00    +0.000 C 
ATOM     15  O   UNL     1      -0.031  12.703  22.293  0.00  0.00    +0.000 OA
ENDBRANCH   9  13
ENDBRANCH   2   5
BRANCH   1  21
ATOM     16  C   UNL     1       2.663   5.206  18.458  0.00  0.00    +0.000 A 
ATOM     17  C   UNL     1       3.510   4.226  17.897  0.00  0.00    +0.000 A 
ATOM     18  C   UNL     1       4.626   4.569  17.135  0.00  0.00    +0.000 A 
ATOM     19  C   UNL     1       4.910   5.904  16.903  0.00  0.00    +0.000 A 
ATOM     20  C   UNL     1       4.074   6.896  17.418  0.00  0.00    +0.000 A 
ATOM     21  C   UNL     1       2.960   6.578  18.209  0.00  0.00    +0.000 A 
BRANCH  16  22
ATOM     22  C   UNL     1       1.595   4.762  19.463  0.00  0.00    +0.000 C 
ATOM     23  C   UNL     1       2.155   5.058  20.865  0.00  0.00    +0.000 C 
BRANCH  22  25
ATOM     24  C   UNL     1       1.424   2.500  20.717  0.00  0.00    +0.000 C 
ATOM     25  C   UNL     1       1.137   3.279  19.442  0.00  0.00    +0.000 C 
ENDBRANCH  22  25
ENDBRANCH  16  22
ENDBRANCH   1  21
TORSDOF 5
ENDMDL
MODEL 7
REMARK VINA RESULT:      -7.3      1.805      3.394
REMARK  Name = 
REMARK  10 active torsions:
REMARK  status: ('A' for Active; 'I' for Inactive)
REMARK    1  A    between atoms: C_1  and  C_2
REMARK    2  A    between atoms: C_2  and  C_3
REMARK    3  A    between atoms: C_3  and  C_4
REMARK    4  A    between atoms: C_3  and  C_5
REMARK    5  A    between atoms: C_10  and  N_11
REMARK    6  A    between atoms: C_12  and  C_14
REMARK    7  A    between atoms: C_16  and  C_17
REMARK    8  A    between atoms: C_18  and  C_19
REMARK    9  A    between atoms: C_19  and  C_20
REMARK   10  A    between atoms: C_22  and  C_23
REMARK                            x       y       z     vdW  Elec       q    Type
REMARK                         _______ _______ _______ _____ _____    ______ ____
ROOT
ATOM      1  N   UNL     1       2.310   6.774  18.463  0.00  0.00    +0.000 N 
ATOM      2  C   UNL     1       1.974   7.222  19.738  0.00  0.00    +0.000 C 
ATOM      3  O   UNL     1       1.959   6.536  20.755  0.00  0.00    +0.000 OA
ATOM      4  H   UNL     1       2.065   7.409  17.723  0.00  0.00    +0.000 HD
ENDROOT
BRANCH   2   5
ATOM      5  C   UNL     1       1.477   8.591  19.784  0.00  0.00    +0.000 A 
ATOM      6  N   UNL     1       1.829   9.478  18.794  0.00  0.00    +0.000 N 
ATOM      7  C   UNL     1       1.438  10.742  19.125  0.00  0.00    +0.000 A 
ATOM      8  C   UNL     1       1.896  11.925  18.346  0.00  0.00    +0.000 C 
ATOM      9  C   UNL     1       0.600  10.655  20.229  0.00  0.00    +0.000 A 
ATOM     10  C   UNL     1       0.588   9.263  20.625  0.00  0.00    +0.000 A 
ATOM     11  C   UNL     1      -0.251   8.617  21.676  0.00  0.00    +0.000 C 
ATOM     12  H   UNL     1       2.385   9.220  17.985  0.00  0.00    +0.000 HD
BRANCH   9  13
ATOM     13  C   UNL     1      -0.077  11.835  20.797  0.00  0.00    +0.000 C 
ATOM     14  C   UNL     1      -1.386  12.305  20.219  0.00  0.00    +0.000 C 
ATOM     15  O   UNL     1       0.382  12.423  21.779  0.00  0.00    +0.000 OA
ENDBRANCH   9  13
ENDBRANCH   2   5
BRANCH   1  21
ATOM     16  C   UNL     1       4.096   5.246  17.700  0.00  0.00    +0.000 A 
ATOM     17  C   UNL     1       4.471   3.941  17.313  0.00  0.00    +0.000 A 
ATOM     18  C   UNL     1       3.555   2.892  17.283  0.00  0.00    +0.000 A 
ATOM     19  C   UNL     1       2.242   3.120  17.658  0.00  0.00    +0.000 A 
ATOM     20  C   UNL     1       1.846   4.392  18.076  0.00  0.00    +0.000 A 
ATOM     21  C   UNL     1       2.743   5.472  18.089  0.00  0.00    +0.000 A 
BRANCH  16  22
ATOM     22  C   UNL     1       5.096   6.387  17.493  0.00  0.00    +0.000 C 
ATOM     23  C   UNL     1       5.141   6.668  15.981  0.00  0.00    +0.000 C 
BRANCH  22  25
ATOM     24  C   UNL     1       7.549   7.226  17.485  0.00  0.00    +0.000 C 
ATOM     25  C   UNL     1       6.556   6.183  17.978  0.00  0.00    +0.000 C 
ENDBRANCH  22  25
ENDBRANCH  16  22
ENDBRANCH   1  21
TORSDOF 5
ENDMDL
MODEL 8
REMARK VINA RESULT:      -7.2      3.670      8.160
REMARK  Name = 
REMARK  10 active torsions:
REMARK  status: ('A' for Active; 'I' for Inactive)
REMARK    1  A    between atoms: C_1  and  C_2
REMARK    2  A    between atoms: C_2  and  C_3
REMARK    3  A    between atoms: C_3  and  C_4
REMARK    4  A    between atoms: C_3  and  C_5
REMARK    5  A    between atoms: C_10  and  N_11
REMARK    6  A    between atoms: C_12  and  C_14
REMARK    7  A    between atoms: C_16  and  C_17
REMARK    8  A    between atoms: C_18  and  C_19
REMARK    9  A    between atoms: C_19  and  C_20
REMARK   10  A    between atoms: C_22  and  C_23
REMARK                            x       y       z     vdW  Elec       q    Type
REMARK                         _______ _______ _______ _____ _____    ______ ____
ROOT
ATOM      1  N   UNL     1       3.645   4.020  17.475  0.00  0.00    +0.000 N 
ATOM      2  C   UNL     1       5.037   4.074  17.479  0.00  0.00    +0.000 C 
ATOM      3  O   UNL     1       5.751   4.020  18.474  0.00  0.00    +0.000 OA
ATOM      4  H   UNL     1       3.223   4.290  16.603  0.00  0.00    +0.000 HD
ENDROOT
BRANCH   2   5
ATOM      5  C   UNL     1       5.633   4.354  16.179  0.00  0.00    +0.000 A 
ATOM      6  N   UNL     1       5.098   3.785  15.047  0.00  0.00    +0.000 N 
ATOM      7  C   UNL     1       5.913   4.002  13.974  0.00  0.00    +0.000 A 
ATOM      8  C   UNL     1       5.694   3.300  12.679  0.00  0.00    +0.000 C 
ATOM      9  C   UNL     1       6.872   4.934  14.347  0.00  0.00    +0.000 A 
ATOM     10  C   UNL     1       6.662   5.196  15.755  0.00  0.00    +0.000 A 
ATOM     11  C   UNL     1       7.344   6.212  16.608  0.00  0.00    +0.000 C 
ATOM     12  H   UNL     1       4.263   3.209  15.052  0.00  0.00    +0.000 HD
BRANCH   9  13
ATOM     13  C   UNL     1       7.863   5.465  13.395  0.00  0.00    +0.000 C 
ATOM     14  C   UNL     1       7.599   5.399  11.913  0.00  0.00    +0.000 C 
ATOM     15  O   UNL     1       8.894   6.017  13.788  0.00  0.00    +0.000 OA
ENDBRANCH   9  13
ENDBRANCH   2   5
BRANCH   1  21
ATOM     16  C   UNL     1       2.344   4.975  19.346  0.00  0.00    +0.000 A 
ATOM     17  C   UNL     1       1.510   4.751  20.462  0.00  0.00    +0.000 A 
ATOM     18  C   UNL     1       1.131   3.466  20.849  0.00  0.00    +0.000 A 
ATOM     19  C   UNL     1       1.566   2.376  20.115  0.00  0.00    +0.000 A 
ATOM     20  C   UNL     1       2.366   2.567  18.987  0.00  0.00    +0.000 A 
ATOM     21  C   UNL     1       2.783   3.847  18.592  0.00  0.00    +0.000 A 
BRANCH  16  22
ATOM     22  C   UNL     1       2.897   6.386  19.117  0.00  0.00    +0.000 C 
ATOM     23  C   UNL     1       2.223   7.299  20.157  0.00  0.00    +0.000 C 
BRANCH  22  25
ATOM     24  C   UNL     1       2.048   8.410  17.738  0.00  0.00    +0.000 C 
ATOM     25  C   UNL     1       2.701   7.035  17.722  0.00  0.00    +0.000 C 
ENDBRANCH  22  25
ENDBRANCH  16  22
ENDBRANCH   1  21
TORSDOF 5
ENDMDL
MODEL 9
REMARK VINA RESULT:      -7.2      2.405      7.410
REMARK  Name = 
REMARK  10 active torsions:
REMARK  status: ('A' for Active; 'I' for Inactive)
REMARK    1  A    between atoms: C_1  and  C_2
REMARK    2  A    between atoms: C_2  and  C_3
REMARK    3  A    between atoms: C_3  and  C_4
REMARK    4  A    between atoms: C_3  and  C_5
REMARK    5  A    between atoms: C_10  and  N_11
REMARK    6  A    between atoms: C_12  and  C_14
REMARK    7  A    between atoms: C_16  and  C_17
REMARK    8  A    between atoms: C_18  and  C_19
REMARK    9  A    between atoms: C_19  and  C_20
REMARK   10  A    between atoms: C_22  and  C_23
REMARK                            x       y       z     vdW  Elec       q    Type
REMARK                         _______ _______ _______ _____ _____    ______ ____
ROOT
ATOM      1  N   UNL     1       1.909   7.820  20.221  0.00  0.00    +0.000 N 
ATOM      2  C   UNL     1       1.896   6.427  20.216  0.00  0.00    +0.000 C 
ATOM      3  O   UNL     1       1.184   5.717  20.917  0.00  0.00    +0.000 OA
ATOM      4  H   UNL     1       2.694   8.228  19.744  0.00  0.00    +0.000 HD
ENDROOT
BRANCH   2   5
ATOM      5  C   UNL     1       2.930   5.818  19.389  0.00  0.00    +0.000 A 
ATOM      6  N   UNL     1       4.240   5.844  19.807  0.00  0.00    +0.000 N 
ATOM      7  C   UNL     1       5.067   5.413  18.811  0.00  0.00    +0.000 A 
ATOM      8  C   UNL     1       6.545   5.559  18.911  0.00  0.00    +0.000 C 
ATOM      9  C   UNL     1       4.279   4.864  17.808  0.00  0.00    +0.000 A 
ATOM     10  C   UNL     1       2.903   5.083  18.203  0.00  0.00    +0.000 A 
ATOM     11  C   UNL     1       1.668   4.577  17.537  0.00  0.00    +0.000 C 
ATOM     12  H   UNL     1       4.534   6.222  20.701  0.00  0.00    +0.000 HD
BRANCH   9  13
ATOM     13  C   UNL     1       4.859   4.219  16.616  0.00  0.00    +0.000 C 
ATOM     14  C   UNL     1       5.388   5.060  15.485  0.00  0.00    +0.000 C 
ATOM     15  O   UNL     1       4.970   2.993  16.544  0.00  0.00    +0.000 OA
ENDBRANCH   9  13
ENDBRANCH   2   5
BRANCH   1  21
ATOM     16  C   UNL     1       0.274   9.669  20.340  0.00  0.00    +0.000 A 
ATOM     17  C   UNL     1      -0.507  10.527  21.144  0.00  0.00    +0.000 A 
ATOM     18  C   UNL     1      -0.485  10.451  22.535  0.00  0.00    +0.000 A 
ATOM     19  C   UNL     1       0.309   9.502  23.155  0.00  0.00    +0.000 A 
ATOM     20  C   UNL     1       1.070   8.618  22.388  0.00  0.00    +0.000 A 
ATOM     21  C   UNL     1       1.085   8.690  20.986  0.00  0.00    +0.000 A 
BRANCH  16  22
ATOM     22  C   UNL     1       0.370   9.959  18.838  0.00  0.00    +0.000 C 
ATOM     23  C   UNL     1       1.141  11.282  18.690  0.00  0.00    +0.000 C 
BRANCH  22  25
ATOM     24  C   UNL     1      -1.488  11.505  17.901  0.00  0.00    +0.000 C 
ATOM     25  C   UNL     1      -0.948  10.087  18.029  0.00  0.00    +0.000 C 
ENDBRANCH  22  25
ENDBRANCH  16  22
ENDBRANCH   1  21
TORSDOF 5
ENDMDL
