MODEL 1
REMARK VINA RESULT:      -8.2      0.000      0.000
REMARK  Name = 
REMARK  3 active torsions:
REMARK  status: ('A' for Active; 'I' for Inactive)
REMARK    1  A    between atoms: C_4  and  C_5
REMARK    2  A    between atoms: C_5  and  O_6
REMARK    3  A    between atoms: O_6  and  C_7
REMARK                            x       y       z     vdW  Elec       q    Type
REMARK                         _______ _______ _______ _____ _____    ______ ____
ROOT
ATOM      1  C   UNL     1       6.429   4.897  15.198  0.00  0.00    +0.000 A 
ATOM      2  C   UNL     1       5.226   4.408  15.569  0.00  0.00    +0.000 A 
ATOM      3  C   UNL     1       5.037   4.103  16.968  0.00  0.00    +0.000 A 
ATOM      4  C   UNL     1       3.927   3.786  17.621  0.00  0.00    +0.000 A 
ATOM      5  C   UNL     1       2.564   3.575  17.263  0.00  0.00    +0.000 A 
ATOM      6  C   UNL     1       1.671   3.403  18.248  0.00  0.00    +0.000 A 
ATOM      7  C   UNL     1       2.071   3.409  19.649  0.00  0.00    +0.000 A 
ATOM      8  C   UNL     1       3.345   3.578  20.051  0.00  0.00    +0.000 A 
ATOM      9  C   UNL     1       4.389   3.804  19.028  0.00  0.00    +0.000 A 
ATOM     10  N   UNL     1       5.653   4.060  19.213  0.00  0.00    +0.000 NA
ATOM     11  C   UNL     1       6.111   4.281  17.939  0.00  0.00    +0.000 A 
ATOM     12  C   UNL     1       7.289   4.723  17.481  0.00  0.00    +0.000 A 
ATOM     13  N   UNL     1       7.474   4.993  16.123  0.00  0.00    +0.000 N 
ATOM     14  H   UNL     1       8.272   5.564  15.891  0.00  0.00    +0.000 HD
ENDROOT
BRANCH   1  15
ATOM     15  O   UNL     1       6.545   5.396  13.918  0.00  0.00    +0.000 OA
BRANCH  15  16
ATOM     16  C   UNL     1       7.485   4.750  13.072  0.00  0.00    +0.000 C 
BRANCH  16  20
ATOM     17  C   UNL     1       5.485   1.576  10.949  0.00  0.00    +0.000 A 
ATOM     18  C   UNL     1       6.874   1.566  11.064  0.00  0.00    +0.000 A 
ATOM     19  C   UNL     1       7.526   2.603  11.734  0.00  0.00    +0.000 A 
ATOM     20  C   UNL     1       6.791   3.659  12.299  0.00  0.00    +0.000 A 
ATOM     21  C   UNL     1       5.396   3.660  12.170  0.00  0.00    +0.000 A 
ATOM     22  C   UNL     1       4.747   2.624  11.500  0.00  0.00    +0.000 A 
ENDBRANCH  16  20
ENDBRANCH  15  16
ENDBRANCH   1  15
TORSDOF 3
ENDMDL
MODEL 2
REMARK VINA RESULT:      -8.2      0.413      1.125
REMARK  Name = 
REMARK  3 active torsions:
REMARK  status: ('A' for Active; 'I' for Inactive)
REMARK    1  A    between atoms: C_4  and  C_5
REMARK    2  A    between atoms: C_5  and  O_6
REMARK    3  A    between atoms: O_6  and  C_7
REMARK                            x       y       z     vdW  Elec       q    Type
REMARK                         _______ _______ _______ _____ _____    ______ ____
ROOT
ATOM      1  C   UNL     1       6.393   4.932  15.422  0.00  0.00    +0.000 A 
ATOM      2  C   UNL     1       5.146   4.542  15.766  0.00  0.00    +0.000 A 
ATOM      3  C   UNL     1       4.904   4.250  17.159  0.00  0.00    +0.000 A 
ATOM      4  C   UNL     1       3.758   4.023  17.788  0.00  0.00    +0.000 A 
ATOM      5  C   UNL     1       2.390   3.927  17.401  0.00  0.00    +0.000 A 
ATOM      6  C   UNL     1       1.465   3.827  18.367  0.00  0.00    +0.000 A 
ATOM      7  C   UNL     1       1.836   3.795  19.776  0.00  0.00    +0.000 A 
ATOM      8  C   UNL     1       3.111   3.857  20.204  0.00  0.00    +0.000 A 
ATOM      9  C   UNL     1       4.191   3.999  19.204  0.00  0.00    +0.000 A 
ATOM     10  N   UNL     1       5.468   4.149  19.416  0.00  0.00    +0.000 NA
ATOM     11  C   UNL     1       5.969   4.336  18.152  0.00  0.00    +0.000 A 
ATOM     12  C   UNL     1       7.188   4.680  17.720  0.00  0.00    +0.000 A 
ATOM     13  N   UNL     1       7.423   4.938  16.367  0.00  0.00    +0.000 N 
ATOM     14  H   UNL     1       8.270   5.441  16.155  0.00  0.00    +0.000 HD
ENDROOT
BRANCH   1  15
ATOM     15  O   UNL     1       6.576   5.423  14.147  0.00  0.00    +0.000 OA
BRANCH  15  16
ATOM     16  C   UNL     1       7.381   4.639  13.278  0.00  0.00    +0.000 C 
BRANCH  16  20
ATOM     17  C   UNL     1       4.885   1.998  10.958  0.00  0.00    +0.000 A 
ATOM     18  C   UNL     1       4.333   3.133  11.549  0.00  0.00    +0.000 A 
ATOM     19  C   UNL     1       5.135   3.979  12.318  0.00  0.00    +0.000 A 
ATOM     20  C   UNL     1       6.499   3.698  12.498  0.00  0.00    +0.000 A 
ATOM     21  C   UNL     1       7.040   2.550  11.903  0.00  0.00    +0.000 A 
ATOM     22  C   UNL     1       6.237   1.706  11.137  0.00  0.00    +0.000 A 
ENDBRANCH  16  20
ENDBRANCH  15  16
ENDBRANCH   1  15
TORSDOF 3
ENDMDL
MODEL 3
REMARK VINA RESULT:      -8.2      2.296      6.985
REMARK  Name = 
REMARK  3 active torsions:
REMARK  status: ('A' for Active; 'I' for Inactive)
REMARK    1  A    between atoms: C_4  and  C_5
REMARK    2  A    between atoms: C_5  and  O_6
REMARK    3  A    between atoms: O_6  and  C_7
REMARK                            x       y       z     vdW  Elec       q    Type
REMARK                         _______ _______ _______ _____ _____    ______ ____
ROOT
ATOM      1  C   UNL     1       4.846   4.214  17.761  0.00  0.00    +0.000 A 
ATOM      2  C   UNL     1       4.671   3.961  16.446  0.00  0.00    +0.000 A 
ATOM      3  C   UNL     1       5.667   4.474  15.535  0.00  0.00    +0.000 A 
ATOM      4  C   UNL     1       5.835   4.229  14.242  0.00  0.00    +0.000 A 
ATOM      5  C   UNL     1       5.146   3.465  13.255  0.00  0.00    +0.000 A 
ATOM      6  C   UNL     1       5.711   3.337  12.046  0.00  0.00    +0.000 A 
ATOM      7  C   UNL     1       6.982   3.972  11.729  0.00  0.00    +0.000 A 
ATOM      8  C   UNL     1       7.670   4.727  12.608  0.00  0.00    +0.000 A 
ATOM      9  C   UNL     1       7.131   4.894  13.975  0.00  0.00    +0.000 A 
ATOM     10  N   UNL     1       7.675   5.516  14.982  0.00  0.00    +0.000 NA
ATOM     11  C   UNL     1       6.799   5.263  16.008  0.00  0.00    +0.000 A 
ATOM     12  C   UNL     1       6.871   5.511  17.321  0.00  0.00    +0.000 A 
ATOM     13  N   UNL     1       5.892   5.034  18.196  0.00  0.00    +0.000 N 
ATOM     14  H   UNL     1       6.141   5.022  19.172  0.00  0.00    +0.000 HD
ENDROOT
BRANCH   1  15
ATOM     15  O   UNL     1       4.030   3.547  18.650  0.00  0.00    +0.000 OA
BRANCH  15  16
ATOM     16  C   UNL     1       2.636   3.795  18.536  0.00  0.00    +0.000 C 
BRANCH  16  20
ATOM     17  C   UNL     1       1.874   7.771  20.018  0.00  0.00    +0.000 A 
ATOM     18  C   UNL     1       1.684   6.671  20.852  0.00  0.00    +0.000 A 
ATOM     19  C   UNL     1       1.910   5.381  20.369  0.00  0.00    +0.000 A 
ATOM     20  C   UNL     1       2.334   5.181  19.045  0.00  0.00    +0.000 A 
ATOM     21  C   UNL     1       2.516   6.295  18.215  0.00  0.00    +0.000 A 
ATOM     22  C   UNL     1       2.288   7.582  18.700  0.00  0.00    +0.000 A 
ENDBRANCH  16  20
ENDBRANCH  15  16
ENDBRANCH   1  15
TORSDOF 3
ENDMDL
MODEL 4
REMARK VINA RESULT:      -8.1      2.341      6.993
REMARK  Name = 
REMARK  3 active torsions:
REMARK  status: ('A' for Active; 'I' for Inactive)
REMARK    1  A    between atoms: C_4  and  C_5
REMARK    2  A    between atoms: C_5  and  O_6
REMARK    3  A    between atoms: O_6  and  C_7
REMARK                            x       y       z     vdW  Elec       q    Type
REMARK                         _______ _______ _______ _____ _____    ______ ____
ROOT
ATOM      1  C   UNL     1       4.803   4.244  17.754  0.00  0.00    +0.000 A 
ATOM      2  C   UNL     1       4.630   3.989  16.438  0.00  0.00    +0.000 A 
ATOM      3  C   UNL     1       5.640   4.478  15.530  0.00  0.00    +0.000 A 
ATOM      4  C   UNL     1       5.809   4.225  14.239  0.00  0.00    +0.000 A 
ATOM      5  C   UNL     1       5.110   3.470  13.253  0.00  0.00    +0.000 A 
ATOM      6  C   UNL     1       5.679   3.325  12.047  0.00  0.00    +0.000 A 
ATOM      7  C   UNL     1       6.964   3.935  11.733  0.00  0.00    +0.000 A 
ATOM      8  C   UNL     1       7.662   4.680  12.612  0.00  0.00    +0.000 A 
ATOM      9  C   UNL     1       7.119   4.863  13.976  0.00  0.00    +0.000 A 
ATOM     10  N   UNL     1       7.670   5.479  14.983  0.00  0.00    +0.000 NA
ATOM     11  C   UNL     1       6.784   5.248  16.005  0.00  0.00    +0.000 A 
ATOM     12  C   UNL     1       6.855   5.500  17.318  0.00  0.00    +0.000 A 
ATOM     13  N   UNL     1       5.863   5.045  18.190  0.00  0.00    +0.000 N 
ATOM     14  H   UNL     1       6.107   5.033  19.167  0.00  0.00    +0.000 HD
ENDROOT
BRANCH   1  15
ATOM     15  O   UNL     1       3.971   3.597  18.642  0.00  0.00    +0.000 OA
BRANCH  15  16
ATOM     16  C   UNL     1       2.587   3.905  18.550  0.00  0.00    +0.000 C 
BRANCH  16  20
ATOM     17  C   UNL     1       1.815   7.878  20.035  0.00  0.00    +0.000 A 
ATOM     18  C   UNL     1       2.259   7.701  18.726  0.00  0.00    +0.000 A 
ATOM     19  C   UNL     1       2.529   6.417  18.249  0.00  0.00    +0.000 A 
ATOM     20  C   UNL     1       2.352   5.297  19.078  0.00  0.00    +0.000 A 
ATOM     21  C   UNL     1       1.911   5.490  20.394  0.00  0.00    +0.000 A 
ATOM     22  C   UNL     1       1.643   6.774  20.868  0.00  0.00    +0.000 A 
ENDBRANCH  16  20
ENDBRANCH  15  16
ENDBRANCH   1  15
TORSDOF 3
ENDMDL
MODEL 5
REMARK VINA RESULT:      -8.1      1.357      1.558
REMARK  Name = 
REMARK  3 active torsions:
REMARK  status: ('A' for Active; 'I' for Inactive)
REMARK    1  A    between atoms: C_4  and  C_5
REMARK    2  A    between atoms: C_5  and  O_6
REMARK    3  A    between atoms: O_6  and  C_7
REMARK                            x       y       z     vdW  Elec       q    Type
REMARK                         _______ _______ _______ _____ _____    ______ ____
ROOT
ATOM      1  C   UNL     1       6.414   4.905  15.515  0.00  0.00    +0.000 A 
ATOM      2  C   UNL     1       5.688   3.956  16.146  0.00  0.00    +0.000 A 
ATOM      3  C   UNL     1       4.598   4.402  16.981  0.00  0.00    +0.000 A 
ATOM      4  C   UNL     1       3.636   3.698  17.562  0.00  0.00    +0.000 A 
ATOM      5  C   UNL     1       3.305   2.314  17.655  0.00  0.00    +0.000 A 
ATOM      6  C   UNL     1       2.139   1.980  18.226  0.00  0.00    +0.000 A 
ATOM      7  C   UNL     1       1.235   2.990  18.760  0.00  0.00    +0.000 A 
ATOM      8  C   UNL     1       1.501   4.310  18.725  0.00  0.00    +0.000 A 
ATOM      9  C   UNL     1       2.753   4.766  18.084  0.00  0.00    +0.000 A 
ATOM     10  N   UNL     1       3.154   5.990  17.886  0.00  0.00    +0.000 NA
ATOM     11  C   UNL     1       4.311   5.820  17.168  0.00  0.00    +0.000 A 
ATOM     12  C   UNL     1       5.110   6.697  16.547  0.00  0.00    +0.000 A 
ATOM     13  N   UNL     1       6.178   6.261  15.760  0.00  0.00    +0.000 N 
ATOM     14  H   UNL     1       6.561   6.940  15.121  0.00  0.00    +0.000 HD
ENDROOT
BRANCH   1  15
ATOM     15  O   UNL     1       7.305   4.486  14.551  0.00  0.00    +0.000 OA
BRANCH  15  16
ATOM     16  C   UNL     1       7.046   4.918  13.222  0.00  0.00    +0.000 C 
BRANCH  16  20
ATOM     17  C   UNL     1       5.752   1.494  10.945  0.00  0.00    +0.000 A 
ATOM     18  C   UNL     1       7.113   1.749  11.103  0.00  0.00    +0.000 A 
ATOM     19  C   UNL     1       7.535   2.868  11.823  0.00  0.00    +0.000 A 
ATOM     20  C   UNL     1       6.596   3.741  12.396  0.00  0.00    +0.000 A 
ATOM     21  C   UNL     1       5.231   3.478  12.224  0.00  0.00    +0.000 A 
ATOM     22  C   UNL     1       4.812   2.360  11.504  0.00  0.00    +0.000 A 
ENDBRANCH  16  20
ENDBRANCH  15  16
ENDBRANCH   1  15
TORSDOF 3
ENDMDL
MODEL 6
REMARK VINA RESULT:      -8.1      1.418      1.964
REMARK  Name = 
REMARK  3 active torsions:
REMARK  status: ('A' for Active; 'I' for Inactive)
REMARK    1  A    between atoms: C_4  and  C_5
REMARK    2  A    between atoms: C_5  and  O_6
REMARK    3  A    between atoms: O_6  and  C_7
REMARK                            x       y       z     vdW  Elec       q    Type
REMARK                         _______ _______ _______ _____ _____    ______ ____
ROOT
ATOM      1  C   UNL     1       6.460   5.057  15.775  0.00  0.00    +0.000 A 
ATOM      2  C   UNL     1       5.785   4.066  16.398  0.00  0.00    +0.000 A 
ATOM      3  C   UNL     1       4.607   4.436  17.147  0.00  0.00    +0.000 A 
ATOM      4  C   UNL     1       3.678   3.664  17.696  0.00  0.00    +0.000 A 
ATOM      5  C   UNL     1       3.471   2.259  17.825  0.00  0.00    +0.000 A 
ATOM      6  C   UNL     1       2.307   1.836  18.337  0.00  0.00    +0.000 A 
ATOM      7  C   UNL     1       1.281   2.774  18.774  0.00  0.00    +0.000 A 
ATOM      8  C   UNL     1       1.426   4.111  18.702  0.00  0.00    +0.000 A 
ATOM      9  C   UNL     1       2.670   4.662  18.121  0.00  0.00    +0.000 A 
ATOM     10  N   UNL     1       2.968   5.910  17.898  0.00  0.00    +0.000 NA
ATOM     11  C   UNL     1       4.180   5.826  17.259  0.00  0.00    +0.000 A 
ATOM     12  C   UNL     1       4.932   6.753  16.653  0.00  0.00    +0.000 A 
ATOM     13  N   UNL     1       6.085   6.393  15.950  0.00  0.00    +0.000 N 
ATOM     14  H   UNL     1       6.443   7.082  15.310  0.00  0.00    +0.000 HD
ENDROOT
BRANCH   1  15
ATOM     15  O   UNL     1       7.446   4.692  14.884  0.00  0.00    +0.000 OA
BRANCH  15  16
ATOM     16  C   UNL     1       7.275   5.125  13.542  0.00  0.00    +0.000 C 
BRANCH  16  20
ATOM     17  C   UNL     1       5.338   2.074  11.192  0.00  0.00    +0.000 A 
ATOM     18  C   UNL     1       4.570   3.009  11.885  0.00  0.00    +0.000 A 
ATOM     19  C   UNL     1       5.195   3.985  12.663  0.00  0.00    +0.000 A 
ATOM     20  C   UNL     1       6.596   4.038  12.750  0.00  0.00    +0.000 A 
ATOM     21  C   UNL     1       7.355   3.089  12.054  0.00  0.00    +0.000 A 
ATOM     22  C   UNL     1       6.729   2.114  11.278  0.00  0.00    +0.000 A 
ENDBRANCH  16  20
ENDBRANCH  15  16
ENDBRANCH   1  15
TORSDOF 3
ENDMDL
MODEL 7
REMARK VINA RESULT:      -8.0      2.789      3.680
REMARK  Name = 
REMARK  3 active torsions:
REMARK  status: ('A' for Active; 'I' for Inactive)
REMARK    1  A    between atoms: C_4  and  C_5
REMARK    2  A    between atoms: C_5  and  O_6
REMARK    3  A    between atoms: O_6  and  C_7
REMARK                            x       y       z     vdW  Elec       q    Type
REMARK                         _______ _______ _______ _____ _____    ______ ____
ROOT
ATOM      1  C   UNL     1       4.700   4.059  17.431  0.00  0.00    +0.000 A 
ATOM      2  C   UNL     1       4.000   5.210  17.341  0.00  0.00    +0.000 A 
ATOM      3  C   UNL     1       3.183   5.578  18.474  0.00  0.00    +0.000 A 
ATOM      4  C   UNL     1       2.545   6.715  18.721  0.00  0.00    +0.000 A 
ATOM      5  C   UNL     1       2.357   7.945  18.027  0.00  0.00    +0.000 A 
ATOM      6  C   UNL     1       1.751   8.951  18.675  0.00  0.00    +0.000 A 
ATOM      7  C   UNL     1       1.274   8.797  20.043  0.00  0.00    +0.000 A 
ATOM      8  C   UNL     1       1.399   7.654  20.744  0.00  0.00    +0.000 A 
ATOM      9  C   UNL     1       2.084   6.504  20.113  0.00  0.00    +0.000 A 
ATOM     10  N   UNL     1       2.368   5.349  20.643  0.00  0.00    +0.000 NA
ATOM     11  C   UNL     1       3.087   4.726  19.654  0.00  0.00    +0.000 A 
ATOM     12  C   UNL     1       3.773   3.577  19.642  0.00  0.00    +0.000 A 
ATOM     13  N   UNL     1       4.543   3.214  18.534  0.00  0.00    +0.000 N 
ATOM     14  H   UNL     1       5.230   2.493  18.692  0.00  0.00    +0.000 HD
ENDROOT
BRANCH   1  15
ATOM     15  O   UNL     1       5.646   3.813  16.459  0.00  0.00    +0.000 OA
BRANCH  15  16
ATOM     16  C   UNL     1       6.211   4.952  15.826  0.00  0.00    +0.000 C 
BRANCH  16  20
ATOM     17  C   UNL     1       7.036   4.078  11.685  0.00  0.00    +0.000 A 
ATOM     18  C   UNL     1       6.018   3.396  12.349  0.00  0.00    +0.000 A 
ATOM     19  C   UNL     1       5.762   3.663  13.695  0.00  0.00    +0.000 A 
ATOM     20  C   UNL     1       6.522   4.619  14.389  0.00  0.00    +0.000 A 
ATOM     21  C   UNL     1       7.546   5.293  13.712  0.00  0.00    +0.000 A 
ATOM     22  C   UNL     1       7.800   5.024  12.367  0.00  0.00    +0.000 A 
ENDBRANCH  16  20
ENDBRANCH  15  16
ENDBRANCH   1  15
TORSDOF 3
ENDMDL
MODEL 8
REMARK VINA RESULT:      -7.9      4.387      6.991
REMARK  Name = 
REMARK  3 active torsions:
REMARK  status: ('A' for Active; 'I' for Inactive)
REMARK    1  A    between atoms: C_4  and  C_5
REMARK    2  A    between atoms: C_5  and  O_6
REMARK    3  A    between atoms: O_6  and  C_7
REMARK                            x       y       z     vdW  Elec       q    Type
REMARK                         _______ _______ _______ _____ _____    ______ ____
ROOT
ATOM      1  C   UNL     1       7.337   7.168  17.363  0.00  0.00    +0.000 A 
ATOM      2  C   UNL     1       6.084   7.118  17.866  0.00  0.00    +0.000 A 
ATOM      3  C   UNL     1       5.228   6.049  17.408  0.00  0.00    +0.000 A 
ATOM      4  C   UNL     1       4.040   5.667  17.858  0.00  0.00    +0.000 A 
ATOM      5  C   UNL     1       3.140   6.125  18.864  0.00  0.00    +0.000 A 
ATOM      6  C   UNL     1       2.063   5.374  19.137  0.00  0.00    +0.000 A 
ATOM      7  C   UNL     1       1.796   4.136  18.419  0.00  0.00    +0.000 A 
ATOM      8  C   UNL     1       2.593   3.662  17.442  0.00  0.00    +0.000 A 
ATOM      9  C   UNL     1       3.820   4.414  17.100  0.00  0.00    +0.000 A 
ATOM     10  N   UNL     1       4.749   4.089  16.246  0.00  0.00    +0.000 NA
ATOM     11  C   UNL     1       5.682   5.081  16.416  0.00  0.00    +0.000 A 
ATOM     12  C   UNL     1       6.920   5.231  15.930  0.00  0.00    +0.000 A 
ATOM     13  N   UNL     1       7.736   6.281  16.358  0.00  0.00    +0.000 N 
ATOM     14  H   UNL     1       8.720   6.181  16.165  0.00  0.00    +0.000 HD
ENDROOT
BRANCH   1  15
ATOM     15  O   UNL     1       8.225   8.041  17.954  0.00  0.00    +0.000 OA
BRANCH  15  16
ATOM     16  C   UNL     1       7.928   9.424  17.829  0.00  0.00    +0.000 C 
BRANCH  16  20
ATOM     17  C   UNL     1      11.009  11.809  19.675  0.00  0.00    +0.000 A 
ATOM     18  C   UNL     1      10.939  11.720  18.286  0.00  0.00    +0.000 A 
ATOM     19  C   UNL     1       9.955  10.932  17.686  0.00  0.00    +0.000 A 
ATOM     20  C   UNL     1       9.028  10.229  18.473  0.00  0.00    +0.000 A 
ATOM     21  C   UNL     1       9.113  10.322  19.868  0.00  0.00    +0.000 A 
ATOM     22  C   UNL     1      10.098  11.109  20.465  0.00  0.00    +0.000 A 
ENDBRANCH  16  20
ENDBRANCH  15  16
ENDBRANCH   1  15
TORSDOF 3
ENDMDL
MODEL 9
REMARK VINA RESULT:      -7.9      1.873      6.700
REMARK  Name = 
REMARK  3 active torsions:
REMARK  status: ('A' for Active; 'I' for Inactive)
REMARK    1  A    between atoms: C_4  and  C_5
REMARK    2  A    between atoms: C_5  and  O_6
REMARK    3  A    between atoms: O_6  and  C_7
REMARK                            x       y       z     vdW  Elec       q    Type
REMARK                         _______ _______ _______ _____ _____    ______ ____
ROOT
ATOM      1  C   UNL     1       5.720   4.324  18.374  0.00  0.00    +0.000 A 
ATOM      2  C   UNL     1       5.374   3.970  17.117  0.00  0.00    +0.000 A 
ATOM      3  C   UNL     1       6.095   4.593  16.032  0.00  0.00    +0.000 A 
ATOM      4  C   UNL     1       6.083   4.308  14.736  0.00  0.00    +0.000 A 
ATOM      5  C   UNL     1       5.385   3.382  13.907  0.00  0.00    +0.000 A 
ATOM      6  C   UNL     1       5.753   3.284  12.621  0.00  0.00    +0.000 A 
ATOM      7  C   UNL     1       6.819   4.108  12.068  0.00  0.00    +0.000 A 
ATOM      8  C   UNL     1       7.499   5.018  12.793  0.00  0.00    +0.000 A 
ATOM      9  C   UNL     1       7.176   5.168  14.229  0.00  0.00    +0.000 A 
ATOM     10  N   UNL     1       7.762   5.930  15.107  0.00  0.00    +0.000 NA
ATOM     11  C   UNL     1       7.131   5.590  16.277  0.00  0.00    +0.000 A 
ATOM     12  C   UNL     1       7.378   5.921  17.551  0.00  0.00    +0.000 A 
ATOM     13  N   UNL     1       6.661   5.334  18.596  0.00  0.00    +0.000 N 
ATOM     14  H   UNL     1       7.069   5.420  19.513  0.00  0.00    +0.000 HD
ENDROOT
BRANCH   1  15
ATOM     15  O   UNL     1       5.198   3.579  19.410  0.00  0.00    +0.000 OA
BRANCH  15  16
ATOM     16  C   UNL     1       4.449   2.428  19.045  0.00  0.00    +0.000 C 
BRANCH  16  20
ATOM     17  C   UNL     1       0.316   3.141  20.041  0.00  0.00    +0.000 A 
ATOM     18  C   UNL     1       1.300   3.289  21.017  0.00  0.00    +0.000 A 
ATOM     19  C   UNL     1       2.637   3.039  20.702  0.00  0.00    +0.000 A 
ATOM     20  C   UNL     1       3.001   2.642  19.405  0.00  0.00    +0.000 A 
ATOM     21  C   UNL     1       2.001   2.491  18.435  0.00  0.00    +0.000 A 
ATOM     22  C   UNL     1       0.667   2.740  18.753  0.00  0.00    +0.000 A 
ENDBRANCH  16  20
ENDBRANCH  15  16
ENDBRANCH   1  15
TORSDOF 3
ENDMDL
