MODEL 1
REMARK VINA RESULT:      -8.3      0.000      0.000
REMARK  Name = 
REMARK  9 active torsions:
REMARK  status: ('A' for Active; 'I' for Inactive)
REMARK    1  A    between atoms: C_1  and  C_2
REMARK    2  A    between atoms: C_2  and  O_3
REMARK    3  A    between atoms: O_3  and  C_4
REMARK    4  A    between atoms: C_4  and  C_6
REMARK    5  A    between atoms: N_9  and  C_10
REMARK    6  A    between atoms: C_12  and  O_13
REMARK    7  A    between atoms: O_13  and  C_14
REMARK    8  A    between atoms: C_18  and  C_19
REMARK    9  A    between atoms: C_22  and  N_23
REMARK                            x       y       z     vdW  Elec       q    Type
REMARK                         _______ _______ _______ _____ _____    ______ ____
ROOT
ATOM      1  C   UNL     1       5.412   5.207  18.887  0.00  0.00    +0.000 A 
ATOM      2  N   UNL     1       4.409   6.091  18.744  0.00  0.00    +0.000 NA
ATOM      3  C   UNL     1       3.187   5.585  18.524  0.00  0.00    +0.000 A 
ATOM      4  N   UNL     1       2.116   6.492  18.362  0.00  0.00    +0.000 N 
ATOM      5  C   UNL     1       2.945   4.198  18.467  0.00  0.00    +0.000 A 
ATOM      6  C   UNL     1       1.684   3.591  18.239  0.00  0.00    +0.000 A 
ATOM      7  C   UNL     1       1.536   2.206  18.295  0.00  0.00    +0.000 A 
ATOM      8  C   UNL     1       2.637   1.410  18.586  0.00  0.00    +0.000 A 
ATOM      9  C   UNL     1       3.883   2.005  18.784  0.00  0.00    +0.000 A 
ATOM     10  C   UNL     1       4.060   3.382  18.713  0.00  0.00    +0.000 A 
ATOM     11  N   UNL     1       5.284   3.868  18.901  0.00  0.00    +0.000 NA
ATOM     12  H   UNL     1       1.687   6.394  17.450  0.00  0.00    +0.000 HD
ENDROOT
BRANCH   4  13
ATOM     13  C   UNL     1       1.944   7.756  18.965  0.00  0.00    +0.000 A 
ATOM     14  C   UNL     1       2.065   8.921  18.190  0.00  0.00    +0.000 A 
ATOM     15  C   UNL     1       1.763  10.184  18.718  0.00  0.00    +0.000 A 
ATOM     16  C   UNL     1       1.246  10.284  20.008  0.00  0.00    +0.000 A 
ATOM     17  C   UNL     1       1.198   9.144  20.815  0.00  0.00    +0.000 A 
ATOM     18  C   UNL     1       1.565   7.889  20.308  0.00  0.00    +0.000 A 
BRANCH  17  19
ATOM     19  N   UNL     1       0.753   9.273  22.206  0.00  0.00    +0.000 N 
ATOM     20  O   UNL     1      -0.454   9.109  22.447  0.00  0.00    +0.000 OA
ATOM     21  O   UNL     1       1.607   9.540  23.065  0.00  0.00    +0.000 OA
ENDBRANCH  17  19
BRANCH  15  22
ATOM     22  O   UNL     1       1.957  11.258  17.874  0.00  0.00    +0.000 OA
BRANCH  22  23
ATOM     23  C   UNL     1       1.787  12.541  18.349  0.00  0.00    +0.000 A 
ATOM     24  C   UNL     1       0.480  13.031  18.357  0.00  0.00    +0.000 A 
ATOM     25  C   UNL     1       0.214  14.306  18.858  0.00  0.00    +0.000 A 
ATOM     26  C   UNL     1       1.251  15.091  19.365  0.00  0.00    +0.000 A 
ATOM     27  C   UNL     1       2.569  14.625  19.334  0.00  0.00    +0.000 A 
ATOM     28  C   UNL     1       3.692  15.424  19.926  0.00  0.00    +0.000 C 
ATOM     29  C   UNL     1       2.834  13.365  18.778  0.00  0.00    +0.000 A 
ENDBRANCH  22  23
ENDBRANCH  15  22
ENDBRANCH   4  13
BRANCH   1  30
ATOM     30  C   UNL     1       6.789   5.742  19.162  0.00  0.00    +0.000 C 
ATOM     31  O   UNL     1       7.481   5.449  20.126  0.00  0.00    +0.000 OA
BRANCH  30  32
ATOM     32  O   UNL     1       7.097   6.680  18.225  0.00  0.00    +0.000 OA
BRANCH  32  34
ATOM     33  C   UNL     1       8.059   8.828  17.859  0.00  0.00    +0.000 C 
ATOM     34  C   UNL     1       8.252   7.471  18.513  0.00  0.00    +0.000 C 
ENDBRANCH  32  34
ENDBRANCH  30  32
ENDBRANCH   1  30
TORSDOF 7
ENDMDL
MODEL 2
REMARK VINA RESULT:      -8.1      3.295      4.770
REMARK  Name = 
REMARK  9 active torsions:
REMARK  status: ('A' for Active; 'I' for Inactive)
REMARK    1  A    between atoms: C_1  and  C_2
REMARK    2  A    between atoms: C_2  and  O_3
REMARK    3  A    between atoms: O_3  and  C_4
REMARK    4  A    between atoms: C_4  and  C_6
REMARK    5  A    between atoms: N_9  and  C_10
REMARK    6  A    between atoms: C_12  and  O_13
REMARK    7  A    between atoms: O_13  and  C_14
REMARK    8  A    between atoms: C_18  and  C_19
REMARK    9  A    between atoms: C_22  and  N_23
REMARK                            x       y       z     vdW  Elec       q    Type
REMARK                         _______ _______ _______ _____ _____    ______ ____
ROOT
ATOM      1  C   UNL     1       7.019   6.529  16.961  0.00  0.00    +0.000 A 
ATOM      2  N   UNL     1       5.728   6.378  17.307  0.00  0.00    +0.000 NA
ATOM      3  C   UNL     1       4.956   5.678  16.463  0.00  0.00    +0.000 A 
ATOM      4  N   UNL     1       3.595   5.510  16.798  0.00  0.00    +0.000 N 
ATOM      5  C   UNL     1       5.463   5.102  15.281  0.00  0.00    +0.000 A 
ATOM      6  C   UNL     1       4.710   4.351  14.343  0.00  0.00    +0.000 A 
ATOM      7  C   UNL     1       5.328   3.745  13.251  0.00  0.00    +0.000 A 
ATOM      8  C   UNL     1       6.702   3.871  13.083  0.00  0.00    +0.000 A 
ATOM      9  C   UNL     1       7.439   4.632  13.991  0.00  0.00    +0.000 A 
ATOM     10  C   UNL     1       6.841   5.263  15.075  0.00  0.00    +0.000 A 
ATOM     11  N   UNL     1       7.614   5.982  15.887  0.00  0.00    +0.000 NA
ATOM     12  H   UNL     1       2.990   5.917  16.095  0.00  0.00    +0.000 HD
ENDROOT
BRANCH   4  13
ATOM     13  C   UNL     1       3.018   5.400  18.082  0.00  0.00    +0.000 A 
ATOM     14  C   UNL     1       2.973   6.524  18.924  0.00  0.00    +0.000 A 
ATOM     15  C   UNL     1       2.285   6.492  20.146  0.00  0.00    +0.000 A 
ATOM     16  C   UNL     1       1.556   5.358  20.496  0.00  0.00    +0.000 A 
ATOM     17  C   UNL     1       1.660   4.208  19.707  0.00  0.00    +0.000 A 
ATOM     18  C   UNL     1       2.405   4.218  18.518  0.00  0.00    +0.000 A 
BRANCH  17  19
ATOM     19  N   UNL     1       0.976   2.985  20.136  0.00  0.00    +0.000 N 
ATOM     20  O   UNL     1       1.142   2.608  21.307  0.00  0.00    +0.000 OA
ATOM     21  O   UNL     1       0.270   2.395  19.305  0.00  0.00    +0.000 OA
ENDBRANCH  17  19
BRANCH  15  22
ATOM     22  O   UNL     1       2.342   7.643  20.905  0.00  0.00    +0.000 OA
BRANCH  22  23
ATOM     23  C   UNL     1       1.307   8.553  20.847  0.00  0.00    +0.000 A 
ATOM     24  C   UNL     1       0.625   8.791  22.041  0.00  0.00    +0.000 A 
ATOM     25  C   UNL     1      -0.411   9.726  22.079  0.00  0.00    +0.000 A 
ATOM     26  C   UNL     1      -0.759  10.435  20.928  0.00  0.00    +0.000 A 
ATOM     27  C   UNL     1      -0.104  10.183  19.718  0.00  0.00    +0.000 A 
ATOM     28  C   UNL     1      -0.419  10.973  18.483  0.00  0.00    +0.000 C 
ATOM     29  C   UNL     1       0.897   9.202  19.677  0.00  0.00    +0.000 A 
ENDBRANCH  22  23
ENDBRANCH  15  22
ENDBRANCH   4  13
BRANCH   1  30
ATOM     30  C   UNL     1       7.916   7.286  17.900  0.00  0.00    +0.000 C 
ATOM     31  O   UNL     1       8.227   6.923  19.024  0.00  0.00    +0.000 OA
BRANCH  30  32
ATOM     32  O   UNL     1       8.239   8.483  17.338  0.00  0.00    +0.000 OA
BRANCH  32  34
ATOM     33  C   UNL     1       9.231  10.466  18.209  0.00  0.00    +0.000 C 
ATOM     34  C   UNL     1       7.965   9.628  18.149  0.00  0.00    +0.000 C 
ENDBRANCH  32  34
ENDBRANCH  30  32
ENDBRANCH   1  30
TORSDOF 7
ENDMDL
MODEL 3
REMARK VINA RESULT:      -8.1      3.240      4.900
REMARK  Name = 
REMARK  9 active torsions:
REMARK  status: ('A' for Active; 'I' for Inactive)
REMARK    1  A    between atoms: C_1  and  C_2
REMARK    2  A    between atoms: C_2  and  O_3
REMARK    3  A    between atoms: O_3  and  C_4
REMARK    4  A    between atoms: C_4  and  C_6
REMARK    5  A    between atoms: N_9  and  C_10
REMARK    6  A    between atoms: C_12  and  O_13
REMARK    7  A    between atoms: O_13  and  C_14
REMARK    8  A    between atoms: C_18  and  C_19
REMARK    9  A    between atoms: C_22  and  N_23
REMARK                            x       y       z     vdW  Elec       q    Type
REMARK                         _______ _______ _______ _____ _____    ______ ____
ROOT
ATOM      1  C   UNL     1       1.924   4.183  18.515  0.00  0.00    +0.000 A 
ATOM      2  N   UNL     1       2.012   5.438  18.989  0.00  0.00    +0.000 NA
ATOM      3  C   UNL     1       2.996   6.201  18.494  0.00  0.00    +0.000 A 
ATOM      4  N   UNL     1       3.116   7.522  18.981  0.00  0.00    +0.000 N 
ATOM      5  C   UNL     1       3.887   5.735  17.506  0.00  0.00    +0.000 A 
ATOM      6  C   UNL     1       4.948   6.483  16.937  0.00  0.00    +0.000 A 
ATOM      7  C   UNL     1       5.715   5.959  15.897  0.00  0.00    +0.000 A 
ATOM      8  C   UNL     1       5.430   4.690  15.407  0.00  0.00    +0.000 A 
ATOM      9  C   UNL     1       4.403   3.943  15.986  0.00  0.00    +0.000 A 
ATOM     10  C   UNL     1       3.639   4.437  17.037  0.00  0.00    +0.000 A 
ATOM     11  N   UNL     1       2.687   3.656  17.541  0.00  0.00    +0.000 NA
ATOM     12  H   UNL     1       4.013   7.669  19.426  0.00  0.00    +0.000 HD
ENDROOT
BRANCH   4  13
ATOM     13  C   UNL     1       2.090   8.389  19.415  0.00  0.00    +0.000 A 
ATOM     14  C   UNL     1       1.466   9.246  18.493  0.00  0.00    +0.000 A 
ATOM     15  C   UNL     1       0.352  10.017  18.854  0.00  0.00    +0.000 A 
ATOM     16  C   UNL     1      -0.207   9.868  20.122  0.00  0.00    +0.000 A 
ATOM     17  C   UNL     1       0.452   9.081  21.071  0.00  0.00    +0.000 A 
ATOM     18  C   UNL     1       1.608   8.362  20.731  0.00  0.00    +0.000 A 
BRANCH  17  19
ATOM     19  N   UNL     1      -0.081   9.012  22.434  0.00  0.00    +0.000 N 
ATOM     20  O   UNL     1      -1.081   8.304  22.631  0.00  0.00    +0.000 OA
ATOM     21  O   UNL     1       0.496   9.666  23.316  0.00  0.00    +0.000 OA
ENDBRANCH  17  19
BRANCH  15  22
ATOM     22  O   UNL     1      -0.154  10.849  17.876  0.00  0.00    +0.000 OA
BRANCH  22  23
ATOM     23  C   UNL     1      -1.505  10.844  17.604  0.00  0.00    +0.000 A 
ATOM     24  C   UNL     1      -2.331  11.438  18.559  0.00  0.00    +0.000 A 
ATOM     25  C   UNL     1      -3.709  11.509  18.345  0.00  0.00    +0.000 A 
ATOM     26  C   UNL     1      -4.263  11.000  17.169  0.00  0.00    +0.000 A 
ATOM     27  C   UNL     1      -3.450  10.375  16.219  0.00  0.00    +0.000 A 
ATOM     28  C   UNL     1      -4.013   9.873  14.922  0.00  0.00    +0.000 C 
ATOM     29  C   UNL     1      -2.076  10.258  16.468  0.00  0.00    +0.000 A 
ENDBRANCH  22  23
ENDBRANCH  15  22
ENDBRANCH   4  13
BRANCH   1  30
ATOM     30  C   UNL     1       0.815   3.310  19.031  0.00  0.00    +0.000 C 
ATOM     31  O   UNL     1       0.114   2.580  18.346  0.00  0.00    +0.000 OA
BRANCH  30  32
ATOM     32  O   UNL     1       0.649   3.542  20.362  0.00  0.00    +0.000 OA
BRANCH  32  34
ATOM     33  C   UNL     1       2.342   3.419  22.033  0.00  0.00    +0.000 C 
ATOM     34  C   UNL     1       1.326   2.628  21.227  0.00  0.00    +0.000 C 
ENDBRANCH  32  34
ENDBRANCH  30  32
ENDBRANCH   1  30
TORSDOF 7
ENDMDL
MODEL 4
REMARK VINA RESULT:      -8.1      3.338      4.861
REMARK  Name = 
REMARK  9 active torsions:
REMARK  status: ('A' for Active; 'I' for Inactive)
REMARK    1  A    between atoms: C_1  and  C_2
REMARK    2  A    between atoms: C_2  and  O_3
REMARK    3  A    between atoms: O_3  and  C_4
REMARK    4  A    between atoms: C_4  and  C_6
REMARK    5  A    between atoms: N_9  and  C_10
REMARK    6  A    between atoms: C_12  and  O_13
REMARK    7  A    between atoms: O_13  and  C_14
REMARK    8  A    between atoms: C_18  and  C_19
REMARK    9  A    between atoms: C_22  and  N_23
REMARK                            x       y       z     vdW  Elec       q    Type
REMARK                         _______ _______ _______ _____ _____    ______ ____
ROOT
ATOM      1  C   UNL     1       2.083   4.580  18.913  0.00  0.00    +0.000 A 
ATOM      2  N   UNL     1       2.021   5.896  19.180  0.00  0.00    +0.000 NA
ATOM      3  C   UNL     1       2.880   6.686  18.522  0.00  0.00    +0.000 A 
ATOM      4  N   UNL     1       2.841   8.072  18.790  0.00  0.00    +0.000 N 
ATOM      5  C   UNL     1       3.793   6.181  17.574  0.00  0.00    +0.000 A 
ATOM      6  C   UNL     1       4.729   6.953  16.841  0.00  0.00    +0.000 A 
ATOM      7  C   UNL     1       5.525   6.367  15.858  0.00  0.00    +0.000 A 
ATOM      8  C   UNL     1       5.394   5.010  15.587  0.00  0.00    +0.000 A 
ATOM      9  C   UNL     1       4.492   4.245  16.328  0.00  0.00    +0.000 A 
ATOM     10  C   UNL     1       3.703   4.803  17.326  0.00  0.00    +0.000 A 
ATOM     11  N   UNL     1       2.877   4.001  17.995  0.00  0.00    +0.000 NA
ATOM     12  H   UNL     1       3.725   8.400  19.160  0.00  0.00    +0.000 HD
ENDROOT
BRANCH   4  13
ATOM     13  C   UNL     1       1.725   8.864  19.135  0.00  0.00    +0.000 A 
ATOM     14  C   UNL     1       0.885   9.363  18.126  0.00  0.00    +0.000 A 
ATOM     15  C   UNL     1      -0.308  10.032  18.435  0.00  0.00    +0.000 A 
ATOM     16  C   UNL     1      -0.720  10.126  19.762  0.00  0.00    +0.000 A 
ATOM     17  C   UNL     1       0.144   9.706  20.777  0.00  0.00    +0.000 A 
ATOM     18  C   UNL     1       1.371   9.099  20.471  0.00  0.00    +0.000 A 
BRANCH  17  19
ATOM     19  N   UNL     1      -0.249   9.906  22.175  0.00  0.00    +0.000 N 
ATOM     20  O   UNL     1      -0.057  11.024  22.679  0.00  0.00    +0.000 OA
ATOM     21  O   UNL     1      -0.751   8.946  22.778  0.00  0.00    +0.000 OA
ENDBRANCH  17  19
BRANCH  15  22
ATOM     22  O   UNL     1      -1.032  10.511  17.361  0.00  0.00    +0.000 OA
BRANCH  22  23
ATOM     23  C   UNL     1      -2.327  10.944  17.548  0.00  0.00    +0.000 A 
ATOM     24  C   UNL     1      -3.243  10.603  16.551  0.00  0.00    +0.000 A 
ATOM     25  C   UNL     1      -4.584  10.969  16.680  0.00  0.00    +0.000 A 
ATOM     26  C   UNL     1      -5.016  11.664  17.811  0.00  0.00    +0.000 A 
ATOM     27  C   UNL     1      -4.103  12.038  18.801  0.00  0.00    +0.000 A 
ATOM     28  C   UNL     1      -4.552  12.732  20.053  0.00  0.00    +0.000 C 
ATOM     29  C   UNL     1      -2.748  11.715  18.637  0.00  0.00    +0.000 A 
ENDBRANCH  22  23
ENDBRANCH  15  22
ENDBRANCH   4  13
BRANCH   1  30
ATOM     30  C   UNL     1       1.114   3.671  19.615  0.00  0.00    +0.000 C 
ATOM     31  O   UNL     1       0.352   2.891  19.064  0.00  0.00    +0.000 OA
BRANCH  30  32
ATOM     32  O   UNL     1       1.148   3.931  20.951  0.00  0.00    +0.000 OA
BRANCH  32  34
ATOM     33  C   UNL     1       2.838   2.355  21.530  0.00  0.00    +0.000 C 
ATOM     34  C   UNL     1       1.407   2.799  21.784  0.00  0.00    +0.000 C 
ENDBRANCH  32  34
ENDBRANCH  30  32
ENDBRANCH   1  30
TORSDOF 7
ENDMDL
MODEL 5
REMARK VINA RESULT:      -7.9      3.477      5.140
REMARK  Name = 
REMARK  9 active torsions:
REMARK  status: ('A' for Active; 'I' for Inactive)
REMARK    1  A    between atoms: C_1  and  C_2
REMARK    2  A    between atoms: C_2  and  O_3
REMARK    3  A    between atoms: O_3  and  C_4
REMARK    4  A    between atoms: C_4  and  C_6
REMARK    5  A    between atoms: N_9  and  C_10
REMARK    6  A    between atoms: C_12  and  O_13
REMARK    7  A    between atoms: O_13  and  C_14
REMARK    8  A    between atoms: C_18  and  C_19
REMARK    9  A    between atoms: C_22  and  N_23
REMARK                            x       y       z     vdW  Elec       q    Type
REMARK                         _______ _______ _______ _____ _____    ______ ____
ROOT
ATOM      1  C   UNL     1       2.011   4.548  18.927  0.00  0.00    +0.000 A 
ATOM      2  N   UNL     1       1.891   5.858  19.206  0.00  0.00    +0.000 NA
ATOM      3  C   UNL     1       2.732   6.688  18.573  0.00  0.00    +0.000 A 
ATOM      4  N   UNL     1       2.632   8.069  18.853  0.00  0.00    +0.000 N 
ATOM      5  C   UNL     1       3.684   6.229  17.640  0.00  0.00    +0.000 A 
ATOM      6  C   UNL     1       4.603   7.045  16.934  0.00  0.00    +0.000 A 
ATOM      7  C   UNL     1       5.443   6.501  15.963  0.00  0.00    +0.000 A 
ATOM      8  C   UNL     1       5.371   5.142  15.677  0.00  0.00    +0.000 A 
ATOM      9  C   UNL     1       4.485   4.335  16.391  0.00  0.00    +0.000 A 
ATOM     10  C   UNL     1       3.653   4.851  17.378  0.00  0.00    +0.000 A 
ATOM     11  N   UNL     1       2.847   4.010  18.021  0.00  0.00    +0.000 NA
ATOM     12  H   UNL     1       3.494   8.427  19.244  0.00  0.00    +0.000 HD
ENDROOT
BRANCH   4  13
ATOM     13  C   UNL     1       1.478   8.812  19.182  0.00  0.00    +0.000 A 
ATOM     14  C   UNL     1       1.354   9.377  20.461  0.00  0.00    +0.000 A 
ATOM     15  C   UNL     1       0.293  10.237  20.779  0.00  0.00    +0.000 A 
ATOM     16  C   UNL     1      -0.608  10.614  19.786  0.00  0.00    +0.000 A 
ATOM     17  C   UNL     1      -0.543   9.996  18.534  0.00  0.00    +0.000 A 
ATOM     18  C   UNL     1       0.479   9.082  18.236  0.00  0.00    +0.000 A 
BRANCH  17  19
ATOM     19  N   UNL     1      -1.558  10.317  17.527  0.00  0.00    +0.000 N 
ATOM     20  O   UNL     1      -2.308  11.282  17.746  0.00  0.00    +0.000 OA
ATOM     21  O   UNL     1      -1.612   9.607  16.512  0.00  0.00    +0.000 OA
ENDBRANCH  17  19
BRANCH  15  22
ATOM     22  O   UNL     1       0.256  10.701  22.079  0.00  0.00    +0.000 OA
BRANCH  22  23
ATOM     23  C   UNL     1      -0.612  11.717  22.417  0.00  0.00    +0.000 A 
ATOM     24  C   UNL     1      -0.243  13.004  22.023  0.00  0.00    +0.000 A 
ATOM     25  C   UNL     1      -1.082  14.086  22.292  0.00  0.00    +0.000 A 
ATOM     26  C   UNL     1      -2.300  13.883  22.943  0.00  0.00    +0.000 A 
ATOM     27  C   UNL     1      -2.668  12.604  23.371  0.00  0.00    +0.000 A 
ATOM     28  C   UNL     1      -3.997  12.352  24.019  0.00  0.00    +0.000 C 
ATOM     29  C   UNL     1      -1.793  11.532  23.146  0.00  0.00    +0.000 A 
ENDBRANCH  22  23
ENDBRANCH  15  22
ENDBRANCH   4  13
BRANCH   1  30
ATOM     30  C   UNL     1       1.064   3.594  19.600  0.00  0.00    +0.000 C 
ATOM     31  O   UNL     1       0.346   2.790  19.027  0.00  0.00    +0.000 OA
BRANCH  30  32
ATOM     32  O   UNL     1       1.060   3.842  20.939  0.00  0.00    +0.000 OA
BRANCH  32  34
ATOM     33  C   UNL     1       2.877   2.402  21.484  0.00  0.00    +0.000 C 
ATOM     34  C   UNL     1       1.421   2.732  21.764  0.00  0.00    +0.000 C 
ENDBRANCH  32  34
ENDBRANCH  30  32
ENDBRANCH   1  30
TORSDOF 7
ENDMDL
MODEL 6
REMARK VINA RESULT:      -7.9      2.805      7.967
REMARK  Name = 
REMARK  9 active torsions:
REMARK  status: ('A' for Active; 'I' for Inactive)
REMARK    1  A    between atoms: C_1  and  C_2
REMARK    2  A    between atoms: C_2  and  O_3
REMARK    3  A    between atoms: O_3  and  C_4
REMARK    4  A    between atoms: C_4  and  C_6
REMARK    5  A    between atoms: N_9  and  C_10
REMARK    6  A    between atoms: C_12  and  O_13
REMARK    7  A    between atoms: O_13  and  C_14
REMARK    8  A    between atoms: C_18  and  C_19
REMARK    9  A    between atoms: C_22  and  N_23
REMARK                            x       y       z     vdW  Elec       q    Type
REMARK                         _______ _______ _______ _____ _____    ______ ____
ROOT
ATOM      1  C   UNL     1       1.404  10.986  19.404  0.00  0.00    +0.000 A 
ATOM      2  N   UNL     1       1.677   9.707  19.714  0.00  0.00    +0.000 NA
ATOM      3  C   UNL     1       1.112   9.224  20.830  0.00  0.00    +0.000 A 
ATOM      4  N   UNL     1       1.388   7.885  21.184  0.00  0.00    +0.000 N 
ATOM      5  C   UNL     1       0.253   9.999  21.635  0.00  0.00    +0.000 A 
ATOM      6  C   UNL     1      -0.379   9.558  22.825  0.00  0.00    +0.000 A 
ATOM      7  C   UNL     1      -1.286  10.375  23.498  0.00  0.00    +0.000 A 
ATOM      8  C   UNL     1      -1.581  11.635  22.991  0.00  0.00    +0.000 A 
ATOM      9  C   UNL     1      -0.938  12.079  21.835  0.00  0.00    +0.000 A 
ATOM     10  C   UNL     1      -0.016  11.291  21.159  0.00  0.00    +0.000 A 
ATOM     11  N   UNL     1       0.562  11.795  20.071  0.00  0.00    +0.000 NA
ATOM     12  H   UNL     1       1.845   7.830  22.085  0.00  0.00    +0.000 HD
ENDROOT
BRANCH   4  13
ATOM     13  C   UNL     1       1.631   6.788  20.329  0.00  0.00    +0.000 A 
ATOM     14  C   UNL     1       2.485   6.941  19.224  0.00  0.00    +0.000 A 
ATOM     15  C   UNL     1       2.862   5.845  18.436  0.00  0.00    +0.000 A 
ATOM     16  C   UNL     1       2.459   4.562  18.804  0.00  0.00    +0.000 A 
ATOM     17  C   UNL     1       1.546   4.407  19.850  0.00  0.00    +0.000 A 
ATOM     18  C   UNL     1       1.113   5.513  20.597  0.00  0.00    +0.000 A 
BRANCH  17  19
ATOM     19  N   UNL     1       1.043   3.067  20.164  0.00  0.00    +0.000 N 
ATOM     20  O   UNL     1       0.549   2.401  19.240  0.00  0.00    +0.000 OA
ATOM     21  O   UNL     1       1.139   2.672  21.336  0.00  0.00    +0.000 OA
ENDBRANCH  17  19
BRANCH  15  22
ATOM     22  O   UNL     1       3.674   6.123  17.355  0.00  0.00    +0.000 OA
BRANCH  22  23
ATOM     23  C   UNL     1       4.959   5.625  17.318  0.00  0.00    +0.000 A 
ATOM     24  C   UNL     1       5.313   4.910  16.173  0.00  0.00    +0.000 A 
ATOM     25  C   UNL     1       6.607   4.404  16.037  0.00  0.00    +0.000 A 
ATOM     26  C   UNL     1       7.554   4.622  17.038  0.00  0.00    +0.000 A 
ATOM     27  C   UNL     1       7.203   5.309  18.205  0.00  0.00    +0.000 A 
ATOM     28  C   UNL     1       8.218   5.607  19.268  0.00  0.00    +0.000 C 
ATOM     29  C   UNL     1       5.887   5.766  18.357  0.00  0.00    +0.000 A 
ENDBRANCH  22  23
ENDBRANCH  15  22
ENDBRANCH   4  13
BRANCH   1  30
ATOM     30  C   UNL     1       2.001  11.548  18.144  0.00  0.00    +0.000 C 
ATOM     31  O   UNL     1       2.635  10.910  17.317  0.00  0.00    +0.000 OA
BRANCH  30  32
ATOM     32  O   UNL     1       1.811  12.896  18.125  0.00  0.00    +0.000 OA
BRANCH  32  34
ATOM     33  C   UNL     1       3.140  14.247  19.568  0.00  0.00    +0.000 C 
ATOM     34  C   UNL     1       3.007  13.679  18.166  0.00  0.00    +0.000 C 
ENDBRANCH  32  34
ENDBRANCH  30  32
ENDBRANCH   1  30
TORSDOF 7
ENDMDL
MODEL 7
REMARK VINA RESULT:      -7.9      3.359      5.060
REMARK  Name = 
REMARK  9 active torsions:
REMARK  status: ('A' for Active; 'I' for Inactive)
REMARK    1  A    between atoms: C_1  and  C_2
REMARK    2  A    between atoms: C_2  and  O_3
REMARK    3  A    between atoms: O_3  and  C_4
REMARK    4  A    between atoms: C_4  and  C_6
REMARK    5  A    between atoms: N_9  and  C_10
REMARK    6  A    between atoms: C_12  and  O_13
REMARK    7  A    between atoms: O_13  and  C_14
REMARK    8  A    between atoms: C_18  and  C_19
REMARK    9  A    between atoms: C_22  and  N_23
REMARK                            x       y       z     vdW  Elec       q    Type
REMARK                         _______ _______ _______ _____ _____    ______ ____
ROOT
ATOM      1  C   UNL     1       2.619   5.496  19.564  0.00  0.00    +0.000 A 
ATOM      2  N   UNL     1       2.305   6.791  19.389  0.00  0.00    +0.000 NA
ATOM      3  C   UNL     1       2.881   7.416  18.352  0.00  0.00    +0.000 A 
ATOM      4  N   UNL     1       2.575   8.780  18.150  0.00  0.00    +0.000 N 
ATOM      5  C   UNL     1       3.755   6.755  17.466  0.00  0.00    +0.000 A 
ATOM      6  C   UNL     1       4.399   7.349  16.351  0.00  0.00    +0.000 A 
ATOM      7  C   UNL     1       5.173   6.583  15.481  0.00  0.00    +0.000 A 
ATOM      8  C   UNL     1       5.308   5.217  15.704  0.00  0.00    +0.000 A 
ATOM      9  C   UNL     1       4.696   4.639  16.816  0.00  0.00    +0.000 A 
ATOM     10  C   UNL     1       3.937   5.386  17.709  0.00  0.00    +0.000 A 
ATOM     11  N   UNL     1       3.398   4.759  18.752  0.00  0.00    +0.000 NA
ATOM     12  H   UNL     1       3.404   9.356  18.211  0.00  0.00    +0.000 HD
ENDROOT
BRANCH   4  13
ATOM     13  C   UNL     1       1.365   9.453  18.426  0.00  0.00    +0.000 A 
ATOM     14  C   UNL     1       1.341  10.480  19.384  0.00  0.00    +0.000 A 
ATOM     15  C   UNL     1       0.197  11.265  19.584  0.00  0.00    +0.000 A 
ATOM     16  C   UNL     1      -0.912  11.088  18.759  0.00  0.00    +0.000 A 
ATOM     17  C   UNL     1      -0.930  10.018  17.859  0.00  0.00    +0.000 A 
ATOM     18  C   UNL     1       0.191   9.189  17.706  0.00  0.00    +0.000 A 
BRANCH  17  19
ATOM     19  N   UNL     1      -2.139   9.772  17.069  0.00  0.00    +0.000 N 
ATOM     20  O   UNL     1      -3.146   9.354  17.663  0.00  0.00    +0.000 OA
ATOM     21  O   UNL     1      -2.090   9.996  15.850  0.00  0.00    +0.000 OA
ENDBRANCH  17  19
BRANCH  15  22
ATOM     22  O   UNL     1       0.280  12.218  20.579  0.00  0.00    +0.000 OA
BRANCH  22  23
ATOM     23  C   UNL     1      -0.779  12.400  21.443  0.00  0.00    +0.000 A 
ATOM     24  C   UNL     1      -0.955  11.418  22.420  0.00  0.00    +0.000 A 
ATOM     25  C   UNL     1      -1.980  11.544  23.360  0.00  0.00    +0.000 A 
ATOM     26  C   UNL     1      -2.822  12.657  23.335  0.00  0.00    +0.000 A 
ATOM     27  C   UNL     1      -2.675  13.631  22.343  0.00  0.00    +0.000 A 
ATOM     28  C   UNL     1      -3.528  14.865  22.330  0.00  0.00    +0.000 C 
ATOM     29  C   UNL     1      -1.679  13.469  21.370  0.00  0.00    +0.000 A 
ENDBRANCH  22  23
ENDBRANCH  15  22
ENDBRANCH   4  13
BRANCH   1  30
ATOM     30  C   UNL     1       1.969   4.760  20.702  0.00  0.00    +0.000 C 
ATOM     31  O   UNL     1       2.455   4.606  21.812  0.00  0.00    +0.000 OA
BRANCH  30  32
ATOM     32  O   UNL     1       0.804   4.208  20.266  0.00  0.00    +0.000 OA
BRANCH  32  34
ATOM     33  C   UNL     1       0.788   2.379  18.740  0.00  0.00    +0.000 C 
ATOM     34  C   UNL     1       0.793   2.779  20.205  0.00  0.00    +0.000 C 
ENDBRANCH  32  34
ENDBRANCH  30  32
ENDBRANCH   1  30
TORSDOF 7
ENDMDL
MODEL 8
REMARK VINA RESULT:      -7.8      3.032      4.609
REMARK  Name = 
REMARK  9 active torsions:
REMARK  status: ('A' for Active; 'I' for Inactive)
REMARK    1  A    between atoms: C_1  and  C_2
REMARK    2  A    between atoms: C_2  and  O_3
REMARK    3  A    between atoms: O_3  and  C_4
REMARK    4  A    between atoms: C_4  and  C_6
REMARK    5  A    between atoms: N_9  and  C_10
REMARK    6  A    between atoms: C_12  and  O_13
REMARK    7  A    between atoms: O_13  and  C_14
REMARK    8  A    between atoms: C_18  and  C_19
REMARK    9  A    between atoms: C_22  and  N_23
REMARK                            x       y       z     vdW  Elec       q    Type
REMARK                         _______ _______ _______ _____ _____    ______ ____
ROOT
ATOM      1  C   UNL     1       7.084   6.746  17.299  0.00  0.00    +0.000 A 
ATOM      2  N   UNL     1       5.814   6.579  17.709  0.00  0.00    +0.000 NA
ATOM      3  C   UNL     1       5.016   5.852  16.915  0.00  0.00    +0.000 A 
ATOM      4  N   UNL     1       3.675   5.667  17.318  0.00  0.00    +0.000 N 
ATOM      5  C   UNL     1       5.475   5.266  15.718  0.00  0.00    +0.000 A 
ATOM      6  C   UNL     1       4.691   4.487  14.830  0.00  0.00    +0.000 A 
ATOM      7  C   UNL     1       5.266   3.874  13.719  0.00  0.00    +0.000 A 
ATOM      8  C   UNL     1       6.628   4.021  13.482  0.00  0.00    +0.000 A 
ATOM      9  C   UNL     1       7.394   4.810  14.342  0.00  0.00    +0.000 A 
ATOM     10  C   UNL     1       6.839   5.447  15.444  0.00  0.00    +0.000 A 
ATOM     11  N   UNL     1       7.636   6.192  16.206  0.00  0.00    +0.000 NA
ATOM     12  H   UNL     1       3.030   6.052  16.639  0.00  0.00    +0.000 HD
ENDROOT
BRANCH   4  13
ATOM     13  C   UNL     1       3.163   5.568  18.630  0.00  0.00    +0.000 A 
ATOM     14  C   UNL     1       2.610   6.700  19.250  0.00  0.00    +0.000 A 
ATOM     15  C   UNL     1       1.966   6.610  20.492  0.00  0.00    +0.000 A 
ATOM     16  C   UNL     1       1.788   5.363  21.087  0.00  0.00    +0.000 A 
ATOM     17  C   UNL     1       2.405   4.243  20.521  0.00  0.00    +0.000 A 
ATOM     18  C   UNL     1       3.108   4.344  19.312  0.00  0.00    +0.000 A 
BRANCH  17  19
ATOM     19  N   UNL     1       2.304   2.952  21.207  0.00  0.00    +0.000 N 
ATOM     20  O   UNL     1       3.356   2.334  21.439  0.00  0.00    +0.000 OA
ATOM     21  O   UNL     1       1.174   2.547  21.518  0.00  0.00    +0.000 OA
ENDBRANCH  17  19
BRANCH  15  22
ATOM     22  O   UNL     1       1.495   7.796  21.020  0.00  0.00    +0.000 OA
BRANCH  22  23
ATOM     23  C   UNL     1       1.029   8.782  20.177  0.00  0.00    +0.000 A 
ATOM     24  C   UNL     1       1.644   8.870  18.927  0.00  0.00    +0.000 A 
ATOM     25  C   UNL     1       1.208   9.816  17.998  0.00  0.00    +0.000 A 
ATOM     26  C   UNL     1       0.146  10.667  18.310  0.00  0.00    +0.000 A 
ATOM     27  C   UNL     1      -0.458  10.610  19.569  0.00  0.00    +0.000 A 
ATOM     28  C   UNL     1      -1.638  11.472  19.907  0.00  0.00    +0.000 C 
ATOM     29  C   UNL     1       0.024   9.695  20.516  0.00  0.00    +0.000 A 
ENDBRANCH  22  23
ENDBRANCH  15  22
ENDBRANCH   4  13
BRANCH   1  30
ATOM     30  C   UNL     1       8.011   7.533  18.182  0.00  0.00    +0.000 C 
ATOM     31  O   UNL     1       8.632   7.083  19.134  0.00  0.00    +0.000 OA
BRANCH  30  32
ATOM     32  O   UNL     1       7.969   8.844  17.816  0.00  0.00    +0.000 OA
BRANCH  32  34
ATOM     33  C   UNL     1       8.949  11.014  17.856  0.00  0.00    +0.000 C 
ATOM     34  C   UNL     1       8.734   9.729  18.637  0.00  0.00    +0.000 C 
ENDBRANCH  32  34
ENDBRANCH  30  32
ENDBRANCH   1  30
TORSDOF 7
ENDMDL
MODEL 9
REMARK VINA RESULT:      -7.8      3.452      5.347
REMARK  Name = 
REMARK  9 active torsions:
REMARK  status: ('A' for Active; 'I' for Inactive)
REMARK    1  A    between atoms: C_1  and  C_2
REMARK    2  A    between atoms: C_2  and  O_3
REMARK    3  A    between atoms: O_3  and  C_4
REMARK    4  A    between atoms: C_4  and  C_6
REMARK    5  A    between atoms: N_9  and  C_10
REMARK    6  A    between atoms: C_12  and  O_13
REMARK    7  A    between atoms: O_13  and  C_14
REMARK    8  A    between atoms: C_18  and  C_19
REMARK    9  A    between atoms: C_22  and  N_23
REMARK                            x       y       z     vdW  Elec       q    Type
REMARK                         _______ _______ _______ _____ _____    ______ ____
ROOT
ATOM      1  C   UNL     1       2.547   5.640  19.322  0.00  0.00    +0.000 A 
ATOM      2  N   UNL     1       2.541   6.961  19.073  0.00  0.00    +0.000 NA
ATOM      3  C   UNL     1       3.271   7.381  18.030  0.00  0.00    +0.000 A 
ATOM      4  N   UNL     1       3.289   8.765  17.751  0.00  0.00    +0.000 N 
ATOM      5  C   UNL     1       3.996   6.492  17.211  0.00  0.00    +0.000 A 
ATOM      6  C   UNL     1       4.788   6.861  16.095  0.00  0.00    +0.000 A 
ATOM      7  C   UNL     1       5.390   5.893  15.293  0.00  0.00    +0.000 A 
ATOM      8  C   UNL     1       5.205   4.547  15.587  0.00  0.00    +0.000 A 
ATOM      9  C   UNL     1       4.448   4.184  16.701  0.00  0.00    +0.000 A 
ATOM     10  C   UNL     1       3.855   5.132  17.527  0.00  0.00    +0.000 A 
ATOM     11  N   UNL     1       3.160   4.703  18.577  0.00  0.00    +0.000 NA
ATOM     12  H   UNL     1       4.226   9.142  17.816  0.00  0.00    +0.000 HD
ENDROOT
BRANCH   4  13
ATOM     13  C   UNL     1       2.257   9.709  17.947  0.00  0.00    +0.000 A 
ATOM     14  C   UNL     1       0.927   9.273  18.063  0.00  0.00    +0.000 A 
ATOM     15  C   UNL     1      -0.105  10.162  18.398  0.00  0.00    +0.000 A 
ATOM     16  C   UNL     1       0.201  11.484  18.712  0.00  0.00    +0.000 A 
ATOM     17  C   UNL     1       1.506  11.947  18.522  0.00  0.00    +0.000 A 
ATOM     18  C   UNL     1       2.527  11.074  18.119  0.00  0.00    +0.000 A 
BRANCH  17  19
ATOM     19  N   UNL     1       1.800  13.365  18.751  0.00  0.00    +0.000 N 
ATOM     20  O   UNL     1       2.966  13.676  19.042  0.00  0.00    +0.000 OA
ATOM     21  O   UNL     1       0.867  14.175  18.642  0.00  0.00    +0.000 OA
ENDBRANCH  17  19
BRANCH  15  22
ATOM     22  O   UNL     1      -1.376   9.626  18.446  0.00  0.00    +0.000 OA
BRANCH  22  23
ATOM     23  C   UNL     1      -2.353  10.108  17.602  0.00  0.00    +0.000 A 
ATOM     24  C   UNL     1      -3.303  10.956  18.174  0.00  0.00    +0.000 A 
ATOM     25  C   UNL     1      -4.305  11.519  17.383  0.00  0.00    +0.000 A 
ATOM     26  C   UNL     1      -4.353  11.249  16.014  0.00  0.00    +0.000 A 
ATOM     27  C   UNL     1      -3.426  10.377  15.434  0.00  0.00    +0.000 A 
ATOM     28  C   UNL     1      -3.420  10.117  13.957  0.00  0.00    +0.000 C 
ATOM     29  C   UNL     1      -2.458   9.772  16.247  0.00  0.00    +0.000 A 
ENDBRANCH  22  23
ENDBRANCH  15  22
ENDBRANCH   4  13
BRANCH   1  30
ATOM     30  C   UNL     1       1.716   5.135  20.467  0.00  0.00    +0.000 C 
ATOM     31  O   UNL     1       0.542   5.412  20.664  0.00  0.00    +0.000 OA
BRANCH  30  32
ATOM     32  O   UNL     1       2.506   4.406  21.303  0.00  0.00    +0.000 OA
BRANCH  32  34
ATOM     33  C   UNL     1       1.696   2.296  20.549  0.00  0.00    +0.000 C 
ATOM     34  C   UNL     1       1.935   3.178  21.762  0.00  0.00    +0.000 C 
ENDBRANCH  32  34
ENDBRANCH  30  32
ENDBRANCH   1  30
TORSDOF 7
ENDMDL
