MODEL 1
REMARK VINA RESULT:      -7.3      0.000      0.000
REMARK  Name = 
REMARK  8 active torsions:
REMARK  status: ('A' for Active; 'I' for Inactive)
REMARK    1  A    between atoms: C_2  and  C_3
REMARK    2  A    between atoms: C_3  and  N_4
REMARK    3  A    between atoms: C_5  and  S_6
REMARK    4  A    between atoms: S_6  and  C_7
REMARK    5  A    between atoms: C_7  and  C_8
REMARK    6  A    between atoms: N_10  and  C_11
REMARK    7  A    between atoms: N_10  and  C_12
REMARK    8  A    between atoms: C_21  and  C_22
REMARK                            x       y       z     vdW  Elec       q    Type
REMARK                         _______ _______ _______ _____ _____    ______ ____
ROOT
ATOM      1  N   UNL     1       2.370   6.788  19.588  0.00  0.00    +0.000 N 
ATOM      2  C   UNL     1       1.709   7.965  19.870  0.00  0.00    +0.000 A 
ATOM      3  N   UNL     1       1.841   8.790  18.863  0.00  0.00    +0.000 NA
ATOM      4  N   UNL     1       2.607   8.163  17.904  0.00  0.00    +0.000 NA
ATOM      5  C   UNL     1       2.916   6.942  18.317  0.00  0.00    +0.000 A 
ENDROOT
BRANCH   5   6
ATOM      6  C   UNL     1       3.730   5.984  17.525  0.00  0.00    +0.000 A 
ATOM      7  C   UNL     1       4.755   6.473  16.706  0.00  0.00    +0.000 A 
ATOM      8  C   UNL     1       5.534   5.619  15.905  0.00  0.00    +0.000 A 
ATOM      9  C   UNL     1       5.291   4.250  15.911  0.00  0.00    +0.000 A 
ATOM     10  C   UNL     1       4.273   3.740  16.701  0.00  0.00    +0.000 A 
ATOM     11  C   UNL     1       3.495   4.601  17.492  0.00  0.00    +0.000 A 
ENDBRANCH   5   6
BRANCH   1  12
ATOM     12  C   UNL     1       2.528   5.646  20.472  0.00  0.00    +0.000 C 
BRANCH  12  14
ATOM     13  C   UNL     1       1.295   3.454  20.402  0.00  0.00    +0.000 C 
ATOM     14  C   UNL     1       1.296   4.785  20.495  0.00  0.00    +0.000 C 
ENDBRANCH  12  14
ENDBRANCH   1  12
BRANCH   2  15
ATOM     15  S   UNL     1       0.847   8.304  21.351  0.00  0.00    +0.000 S 
BRANCH  15  16
ATOM     16  C   UNL     1       0.249  10.005  21.039  0.00  0.00    +0.000 C 
BRANCH  16  17
ATOM     17  C   UNL     1      -0.257  10.728  22.316  0.00  0.00    +0.000 C 
ATOM     18  O   UNL     1      -0.095  10.271  23.446  0.00  0.00    +0.000 OA
ATOM     19  N   UNL     1      -0.921  11.960  22.146  0.00  0.00    +0.000 N 
ATOM     20  C   UNL     1      -1.145  12.561  20.834  0.00  0.00    +0.000 C 
BRANCH  19  21
ATOM     21  C   UNL     1      -1.772  12.516  23.232  0.00  0.00    +0.000 C 
ATOM     22  C   UNL     1      -3.304  12.387  23.105  0.00  0.00    +0.000 C 
ATOM     23  C   UNL     1      -3.926  13.758  22.891  0.00  0.00    +0.000 C 
ATOM     24  S   UNL     1      -2.848  14.911  23.685  0.00  0.00    +0.000 S 
ATOM     25  O   UNL     1      -3.226  15.004  25.088  0.00  0.00    +0.000 OA
ATOM     26  O   UNL     1      -2.695  16.088  22.863  0.00  0.00    +0.000 OA
ATOM     27  C   UNL     1      -1.368  13.944  23.598  0.00  0.00    +0.000 C 
ENDBRANCH  19  21
ENDBRANCH  16  17
ENDBRANCH  15  16
ENDBRANCH   2  15
TORSDOF 7
ENDMDL
MODEL 2
REMARK VINA RESULT:      -7.2      3.281      5.077
REMARK  Name = 
REMARK  8 active torsions:
REMARK  status: ('A' for Active; 'I' for Inactive)
REMARK    1  A    between atoms: C_2  and  C_3
REMARK    2  A    between atoms: C_3  and  N_4
REMARK    3  A    between atoms: C_5  and  S_6
REMARK    4  A    between atoms: S_6  and  C_7
REMARK    5  A    between atoms: C_7  and  C_8
REMARK    6  A    between atoms: N_10  and  C_11
REMARK    7  A    between atoms: N_10  and  C_12
REMARK    8  A    between atoms: C_21  and  C_22
REMARK                            x       y       z     vdW  Elec       q    Type
REMARK                         _______ _______ _______ _____ _____    ______ ____
ROOT
ATOM      1  N   UNL     1       5.038   5.419  16.853  0.00  0.00    +0.000 N 
ATOM      2  C   UNL     1       4.259   4.924  17.877  0.00  0.00    +0.000 A 
ATOM      3  N   UNL     1       3.910   3.693  17.601  0.00  0.00    +0.000 NA
ATOM      4  N   UNL     1       4.452   3.368  16.378  0.00  0.00    +0.000 NA
ATOM      5  C   UNL     1       5.156   4.393  15.921  0.00  0.00    +0.000 A 
ENDROOT
BRANCH   5   6
ATOM      6  C   UNL     1       5.884   4.384  14.626  0.00  0.00    +0.000 A 
ATOM      7  C   UNL     1       5.356   3.658  13.552  0.00  0.00    +0.000 A 
ATOM      8  C   UNL     1       6.018   3.581  12.313  0.00  0.00    +0.000 A 
ATOM      9  C   UNL     1       7.233   4.234  12.135  0.00  0.00    +0.000 A 
ATOM     10  C   UNL     1       7.786   4.948  13.185  0.00  0.00    +0.000 A 
ATOM     11  C   UNL     1       7.121   5.013  14.421  0.00  0.00    +0.000 A 
ENDBRANCH   5   6
BRANCH   1  12
ATOM     12  C   UNL     1       5.565   6.768  16.737  0.00  0.00    +0.000 C 
BRANCH  12  14
ATOM     13  C   UNL     1       7.604   8.036  17.490  0.00  0.00    +0.000 C 
ATOM     14  C   UNL     1       6.885   6.913  17.441  0.00  0.00    +0.000 C 
ENDBRANCH  12  14
ENDBRANCH   1  12
BRANCH   2  15
ATOM     15  S   UNL     1       3.796   5.812  19.309  0.00  0.00    +0.000 S 
BRANCH  15  16
ATOM     16  C   UNL     1       2.397   6.810  18.678  0.00  0.00    +0.000 C 
BRANCH  16  17
ATOM     17  C   UNL     1       1.888   7.871  19.689  0.00  0.00    +0.000 C 
ATOM     18  O   UNL     1       1.678   7.614  20.874  0.00  0.00    +0.000 OA
ATOM     19  N   UNL     1       1.667   9.178  19.206  0.00  0.00    +0.000 N 
ATOM     20  C   UNL     1       1.897   9.553  17.813  0.00  0.00    +0.000 C 
BRANCH  19  21
ATOM     21  C   UNL     1       0.823  10.134  19.971  0.00  0.00    +0.000 C 
ATOM     22  C   UNL     1      -0.709   9.947  19.944  0.00  0.00    +0.000 C 
ATOM     23  C   UNL     1      -1.360  11.089  19.181  0.00  0.00    +0.000 C 
ATOM     24  S   UNL     1      -0.291  12.482  19.386  0.00  0.00    +0.000 S 
ATOM     25  O   UNL     1      -0.650  13.159  20.623  0.00  0.00    +0.000 OA
ATOM     26  O   UNL     1      -0.174  13.199  18.137  0.00  0.00    +0.000 OA
ATOM     27  C   UNL     1       1.204  11.586  19.686  0.00  0.00    +0.000 C 
ENDBRANCH  19  21
ENDBRANCH  16  17
ENDBRANCH  15  16
ENDBRANCH   2  15
TORSDOF 7
ENDMDL
MODEL 3
REMARK VINA RESULT:      -7.1      7.074      9.118
REMARK  Name = 
REMARK  8 active torsions:
REMARK  status: ('A' for Active; 'I' for Inactive)
REMARK    1  A    between atoms: C_2  and  C_3
REMARK    2  A    between atoms: C_3  and  N_4
REMARK    3  A    between atoms: C_5  and  S_6
REMARK    4  A    between atoms: S_6  and  C_7
REMARK    5  A    between atoms: C_7  and  C_8
REMARK    6  A    between atoms: N_10  and  C_11
REMARK    7  A    between atoms: N_10  and  C_12
REMARK    8  A    between atoms: C_21  and  C_22
REMARK                            x       y       z     vdW  Elec       q    Type
REMARK                         _______ _______ _______ _____ _____    ______ ____
ROOT
ATOM      1  N   UNL     1       5.234   5.732  18.095  0.00  0.00    +0.000 N 
ATOM      2  C   UNL     1       6.570   5.991  18.313  0.00  0.00    +0.000 A 
ATOM      3  N   UNL     1       6.962   5.369  19.396  0.00  0.00    +0.000 NA
ATOM      4  N   UNL     1       5.875   4.698  19.911  0.00  0.00    +0.000 NA
ATOM      5  C   UNL     1       4.827   4.888  19.124  0.00  0.00    +0.000 A 
ENDROOT
BRANCH   5   6
ATOM      6  C   UNL     1       3.485   4.301  19.378  0.00  0.00    +0.000 A 
ATOM      7  C   UNL     1       2.704   4.812  20.422  0.00  0.00    +0.000 A 
ATOM      8  C   UNL     1       1.444   4.273  20.735  0.00  0.00    +0.000 A 
ATOM      9  C   UNL     1       0.945   3.203  20.001  0.00  0.00    +0.000 A 
ATOM     10  C   UNL     1       1.703   2.668  18.971  0.00  0.00    +0.000 A 
ATOM     11  C   UNL     1       2.964   3.208  18.671  0.00  0.00    +0.000 A 
ENDBRANCH   5   6
BRANCH   1  12
ATOM     12  C   UNL     1       4.400   6.290  17.043  0.00  0.00    +0.000 C 
BRANCH  12  14
ATOM     13  C   UNL     1       2.485   7.578  18.044  0.00  0.00    +0.000 C 
ATOM     14  C   UNL     1       3.700   7.541  17.492  0.00  0.00    +0.000 C 
ENDBRANCH  12  14
ENDBRANCH   1  12
BRANCH   2  15
ATOM     15  S   UNL     1       7.575   7.008  17.308  0.00  0.00    +0.000 S 
BRANCH  15  16
ATOM     16  C   UNL     1       8.258   8.173  18.543  0.00  0.00    +0.000 C 
BRANCH  16  17
ATOM     17  C   UNL     1       8.233   9.653  18.079  0.00  0.00    +0.000 C 
ATOM     18  O   UNL     1       7.611  10.028  17.087  0.00  0.00    +0.000 OA
ATOM     19  N   UNL     1       8.958  10.588  18.847  0.00  0.00    +0.000 N 
ATOM     20  C   UNL     1       9.716  10.213  20.037  0.00  0.00    +0.000 C 
BRANCH  19  21
ATOM     21  C   UNL     1       9.318  11.915  18.278  0.00  0.00    +0.000 C 
ATOM     22  C   UNL     1      10.690  12.071  17.590  0.00  0.00    +0.000 C 
ATOM     23  C   UNL     1      11.587  12.979  18.417  0.00  0.00    +0.000 C 
ATOM     24  S   UNL     1      10.504  14.083  19.273  0.00  0.00    +0.000 S 
ATOM     25  O   UNL     1      10.223  15.218  18.406  0.00  0.00    +0.000 OA
ATOM     26  O   UNL     1      10.961  14.263  20.631  0.00  0.00    +0.000 OA
ATOM     27  C   UNL     1       9.069  13.048  19.273  0.00  0.00    +0.000 C 
ENDBRANCH  19  21
ENDBRANCH  16  17
ENDBRANCH  15  16
ENDBRANCH   2  15
TORSDOF 7
ENDMDL
MODEL 4
REMARK VINA RESULT:      -7.0      2.950      4.871
REMARK  Name = 
REMARK  8 active torsions:
REMARK  status: ('A' for Active; 'I' for Inactive)
REMARK    1  A    between atoms: C_2  and  C_3
REMARK    2  A    between atoms: C_3  and  N_4
REMARK    3  A    between atoms: C_5  and  S_6
REMARK    4  A    between atoms: S_6  and  C_7
REMARK    5  A    between atoms: C_7  and  C_8
REMARK    6  A    between atoms: N_10  and  C_11
REMARK    7  A    between atoms: N_10  and  C_12
REMARK    8  A    between atoms: C_21  and  C_22
REMARK                            x       y       z     vdW  Elec       q    Type
REMARK                         _______ _______ _______ _____ _____    ______ ____
ROOT
ATOM      1  N   UNL     1       5.154   5.388  16.834  0.00  0.00    +0.000 N 
ATOM      2  C   UNL     1       4.455   4.897  17.916  0.00  0.00    +0.000 A 
ATOM      3  N   UNL     1       4.187   3.630  17.721  0.00  0.00    +0.000 NA
ATOM      4  N   UNL     1       4.703   3.276  16.494  0.00  0.00    +0.000 NA
ATOM      5  C   UNL     1       5.311   4.322  15.954  0.00  0.00    +0.000 A 
ENDROOT
BRANCH   5   6
ATOM      6  C   UNL     1       5.986   4.293  14.630  0.00  0.00    +0.000 A 
ATOM      7  C   UNL     1       7.175   5.012  14.456  0.00  0.00    +0.000 A 
ATOM      8  C   UNL     1       7.840   5.053  13.217  0.00  0.00    +0.000 A 
ATOM      9  C   UNL     1       7.314   4.371  12.125  0.00  0.00    +0.000 A 
ATOM     10  C   UNL     1       6.131   3.664  12.266  0.00  0.00    +0.000 A 
ATOM     11  C   UNL     1       5.471   3.634  13.505  0.00  0.00    +0.000 A 
ENDBRANCH   5   6
BRANCH   1  12
ATOM     12  C   UNL     1       5.576   6.763  16.623  0.00  0.00    +0.000 C 
BRANCH  12  14
ATOM     13  C   UNL     1       7.573   6.181  18.039  0.00  0.00    +0.000 C 
ATOM     14  C   UNL     1       6.856   7.070  17.347  0.00  0.00    +0.000 C 
ENDBRANCH  12  14
ENDBRANCH   1  12
BRANCH   2  15
ATOM     15  S   UNL     1       3.984   5.829  19.317  0.00  0.00    +0.000 S 
BRANCH  15  16
ATOM     16  C   UNL     1       2.579   6.795  18.653  0.00  0.00    +0.000 C 
BRANCH  16  17
ATOM     17  C   UNL     1       1.791   7.572  19.741  0.00  0.00    +0.000 C 
ATOM     18  O   UNL     1       1.520   7.086  20.838  0.00  0.00    +0.000 OA
ATOM     19  N   UNL     1       1.385   8.887  19.436  0.00  0.00    +0.000 N 
ATOM     20  C   UNL     1       1.675   9.526  18.156  0.00  0.00    +0.000 C 
BRANCH  19  21
ATOM     21  C   UNL     1       0.312   9.549  20.226  0.00  0.00    +0.000 C 
ATOM     22  C   UNL     1      -0.773  10.343  19.470  0.00  0.00    +0.000 C 
ATOM     23  C   UNL     1      -0.629  11.828  19.762  0.00  0.00    +0.000 C 
ATOM     24  S   UNL     1       0.081  11.941  21.376  0.00  0.00    +0.000 S 
ATOM     25  O   UNL     1      -0.994  11.895  22.357  0.00  0.00    +0.000 OA
ATOM     26  O   UNL     1       1.083  12.981  21.400  0.00  0.00    +0.000 OA
ATOM     27  C   UNL     1       0.879  10.362  21.389  0.00  0.00    +0.000 C 
ENDBRANCH  19  21
ENDBRANCH  16  17
ENDBRANCH  15  16
ENDBRANCH   2  15
TORSDOF 7
ENDMDL
MODEL 5
REMARK VINA RESULT:      -6.9      1.569      1.968
REMARK  Name = 
REMARK  8 active torsions:
REMARK  status: ('A' for Active; 'I' for Inactive)
REMARK    1  A    between atoms: C_2  and  C_3
REMARK    2  A    between atoms: C_3  and  N_4
REMARK    3  A    between atoms: C_5  and  S_6
REMARK    4  A    between atoms: S_6  and  C_7
REMARK    5  A    between atoms: C_7  and  C_8
REMARK    6  A    between atoms: N_10  and  C_11
REMARK    7  A    between atoms: N_10  and  C_12
REMARK    8  A    between atoms: C_21  and  C_22
REMARK                            x       y       z     vdW  Elec       q    Type
REMARK                         _______ _______ _______ _____ _____    ______ ____
ROOT
ATOM      1  N   UNL     1       2.883   6.490  19.308  0.00  0.00    +0.000 N 
ATOM      2  C   UNL     1       2.054   7.564  19.551  0.00  0.00    +0.000 A 
ATOM      3  N   UNL     1       2.212   8.456  18.605  0.00  0.00    +0.000 NA
ATOM      4  N   UNL     1       3.162   7.976  17.731  0.00  0.00    +0.000 NA
ATOM      5  C   UNL     1       3.562   6.777  18.129  0.00  0.00    +0.000 A 
ENDROOT
BRANCH   5   6
ATOM      6  C   UNL     1       4.579   5.965  17.412  0.00  0.00    +0.000 A 
ATOM      7  C   UNL     1       5.894   6.440  17.325  0.00  0.00    +0.000 A 
ATOM      8  C   UNL     1       6.891   5.734  16.628  0.00  0.00    +0.000 A 
ATOM      9  C   UNL     1       6.579   4.534  15.999  0.00  0.00    +0.000 A 
ATOM     10  C   UNL     1       5.283   4.048  16.055  0.00  0.00    +0.000 A 
ATOM     11  C   UNL     1       4.292   4.763  16.748  0.00  0.00    +0.000 A 
ENDBRANCH   5   6
BRANCH   1  12
ATOM     12  C   UNL     1       3.064   5.324  20.157  0.00  0.00    +0.000 C 
BRANCH  12  14
ATOM     13  C   UNL     1       1.098   3.806  20.555  0.00  0.00    +0.000 C 
ATOM     14  C   UNL     1       2.114   4.217  19.794  0.00  0.00    +0.000 C 
ENDBRANCH  12  14
ENDBRANCH   1  12
BRANCH   2  15
ATOM     15  S   UNL     1       0.978   7.717  20.918  0.00  0.00    +0.000 S 
BRANCH  15  16
ATOM     16  C   UNL     1       1.544   9.297  21.648  0.00  0.00    +0.000 C 
BRANCH  16  17
ATOM     17  C   UNL     1       0.714  10.525  21.189  0.00  0.00    +0.000 C 
ATOM     18  O   UNL     1       0.990  11.175  20.182  0.00  0.00    +0.000 OA
ATOM     19  N   UNL     1      -0.402  10.887  21.972  0.00  0.00    +0.000 N 
ATOM     20  C   UNL     1      -0.788  10.158  23.178  0.00  0.00    +0.000 C 
BRANCH  19  21
ATOM     21  C   UNL     1      -1.003  12.242  21.852  0.00  0.00    +0.000 C 
ATOM     22  C   UNL     1      -1.202  13.074  23.135  0.00  0.00    +0.000 C 
ATOM     23  C   UNL     1      -2.686  13.224  23.433  0.00  0.00    +0.000 C 
ATOM     24  S   UNL     1      -3.506  13.154  21.869  0.00  0.00    +0.000 S 
ATOM     25  O   UNL     1      -3.527  14.494  21.300  0.00  0.00    +0.000 OA
ATOM     26  O   UNL     1      -4.707  12.359  21.979  0.00  0.00    +0.000 OA
ATOM     27  C   UNL     1      -2.272  12.229  21.001  0.00  0.00    +0.000 C 
ENDBRANCH  19  21
ENDBRANCH  16  17
ENDBRANCH  15  16
ENDBRANCH   2  15
TORSDOF 7
ENDMDL
MODEL 6
REMARK VINA RESULT:      -6.9      4.147     10.551
REMARK  Name = 
REMARK  8 active torsions:
REMARK  status: ('A' for Active; 'I' for Inactive)
REMARK    1  A    between atoms: C_2  and  C_3
REMARK    2  A    between atoms: C_3  and  N_4
REMARK    3  A    between atoms: C_5  and  S_6
REMARK    4  A    between atoms: S_6  and  C_7
REMARK    5  A    between atoms: C_7  and  C_8
REMARK    6  A    between atoms: N_10  and  C_11
REMARK    7  A    between atoms: N_10  and  C_12
REMARK    8  A    between atoms: C_21  and  C_22
REMARK                            x       y       z     vdW  Elec       q    Type
REMARK                         _______ _______ _______ _____ _____    ______ ____
ROOT
ATOM      1  N   UNL     1      -0.398  11.271  20.486  0.00  0.00    +0.000 N 
ATOM      2  C   UNL     1       0.490  10.248  20.226  0.00  0.00    +0.000 A 
ATOM      3  N   UNL     1       0.928   9.756  21.357  0.00  0.00    +0.000 NA
ATOM      4  N   UNL     1       0.336  10.463  22.380  0.00  0.00    +0.000 NA
ATOM      5  C   UNL     1      -0.487  11.368  21.871  0.00  0.00    +0.000 A 
ENDROOT
BRANCH   5   6
ATOM      6  C   UNL     1      -1.298  12.304  22.693  0.00  0.00    +0.000 A 
ATOM      7  C   UNL     1      -2.580  11.916  23.102  0.00  0.00    +0.000 A 
ATOM      8  C   UNL     1      -3.408  12.773  23.849  0.00  0.00    +0.000 A 
ATOM      9  C   UNL     1      -2.961  14.042  24.195  0.00  0.00    +0.000 A 
ATOM     10  C   UNL     1      -1.702  14.457  23.791  0.00  0.00    +0.000 A 
ATOM     11  C   UNL     1      -0.884  13.598  23.039  0.00  0.00    +0.000 A 
ENDBRANCH   5   6
BRANCH   1  12
ATOM     12  C   UNL     1      -1.052  12.123  19.507  0.00  0.00    +0.000 C 
BRANCH  12  14
ATOM     13  C   UNL     1      -2.561  11.449  17.610  0.00  0.00    +0.000 C 
ATOM     14  C   UNL     1      -2.262  11.461  18.911  0.00  0.00    +0.000 C 
ENDBRANCH  12  14
ENDBRANCH   1  12
BRANCH   2  15
ATOM     15  S   UNL     1       0.967   9.710  18.633  0.00  0.00    +0.000 S 
BRANCH  15  16
ATOM     16  C   UNL     1       1.883   8.176  19.031  0.00  0.00    +0.000 C 
BRANCH  16  17
ATOM     17  C   UNL     1       2.993   7.834  18.003  0.00  0.00    +0.000 C 
ATOM     18  O   UNL     1       3.211   8.520  17.005  0.00  0.00    +0.000 OA
ATOM     19  N   UNL     1       3.775   6.686  18.247  0.00  0.00    +0.000 N 
ATOM     20  C   UNL     1       3.574   5.828  19.411  0.00  0.00    +0.000 C 
BRANCH  19  21
ATOM     21  C   UNL     1       4.568   6.065  17.153  0.00  0.00    +0.000 C 
ATOM     22  C   UNL     1       4.289   4.592  16.788  0.00  0.00    +0.000 C 
ATOM     23  C   UNL     1       5.478   3.725  17.174  0.00  0.00    +0.000 C 
ATOM     24  S   UNL     1       6.897   4.773  17.071  0.00  0.00    +0.000 S 
ATOM     25  O   UNL     1       7.383   4.757  15.699  0.00  0.00    +0.000 OA
ATOM     26  O   UNL     1       7.776   4.520  18.189  0.00  0.00    +0.000 OA
ATOM     27  C   UNL     1       6.066   6.315  17.321  0.00  0.00    +0.000 C 
ENDBRANCH  19  21
ENDBRANCH  16  17
ENDBRANCH  15  16
ENDBRANCH   2  15
TORSDOF 7
ENDMDL
MODEL 7
REMARK VINA RESULT:      -6.9      3.835     10.597
REMARK  Name = 
REMARK  8 active torsions:
REMARK  status: ('A' for Active; 'I' for Inactive)
REMARK    1  A    between atoms: C_2  and  C_3
REMARK    2  A    between atoms: C_3  and  N_4
REMARK    3  A    between atoms: C_5  and  S_6
REMARK    4  A    between atoms: S_6  and  C_7
REMARK    5  A    between atoms: C_7  and  C_8
REMARK    6  A    between atoms: N_10  and  C_11
REMARK    7  A    between atoms: N_10  and  C_12
REMARK    8  A    between atoms: C_21  and  C_22
REMARK                            x       y       z     vdW  Elec       q    Type
REMARK                         _______ _______ _______ _____ _____    ______ ____
ROOT
ATOM      1  N   UNL     1      -0.990  11.621  21.389  0.00  0.00    +0.000 N 
ATOM      2  C   UNL     1      -0.220  10.481  21.311  0.00  0.00    +0.000 A 
ATOM      3  N   UNL     1      -0.089   9.962  22.506  0.00  0.00    +0.000 NA
ATOM      4  N   UNL     1      -0.770  10.770  23.390  0.00  0.00    +0.000 NA
ATOM      5  C   UNL     1      -1.340  11.766  22.727  0.00  0.00    +0.000 A 
ENDROOT
BRANCH   5   6
ATOM      6  C   UNL     1      -2.160  12.825  23.371  0.00  0.00    +0.000 A 
ATOM      7  C   UNL     1      -3.516  12.578  23.624  0.00  0.00    +0.000 A 
ATOM      8  C   UNL     1      -4.351  13.554  24.195  0.00  0.00    +0.000 A 
ATOM      9  C   UNL     1      -3.836  14.804  24.521  0.00  0.00    +0.000 A 
ATOM     10  C   UNL     1      -2.502  15.080  24.269  0.00  0.00    +0.000 A 
ATOM     11  C   UNL     1      -1.676  14.102  23.691  0.00  0.00    +0.000 A 
ENDBRANCH   5   6
BRANCH   1  12
ATOM     12  C   UNL     1      -1.310  12.530  20.300  0.00  0.00    +0.000 C 
BRANCH  12  14
ATOM     13  C   UNL     1      -3.797  12.761  20.005  0.00  0.00    +0.000 C 
ATOM     14  C   UNL     1      -2.634  12.201  19.670  0.00  0.00    +0.000 C 
ENDBRANCH  12  14
ENDBRANCH   1  12
BRANCH   2  15
ATOM     15  S   UNL     1       0.487   9.841  19.847  0.00  0.00    +0.000 S 
BRANCH  15  16
ATOM     16  C   UNL     1       1.366   8.368  20.484  0.00  0.00    +0.000 C 
BRANCH  16  17
ATOM     17  C   UNL     1       2.173   7.610  19.397  0.00  0.00    +0.000 C 
ATOM     18  O   UNL     1       2.631   8.166  18.400  0.00  0.00    +0.000 OA
ATOM     19  N   UNL     1       2.381   6.228  19.586  0.00  0.00    +0.000 N 
ATOM     20  C   UNL     1       1.868   5.504  20.746  0.00  0.00    +0.000 C 
BRANCH  19  21
ATOM     21  C   UNL     1       2.778   5.360  18.445  0.00  0.00    +0.000 C 
ATOM     22  C   UNL     1       1.702   4.469  17.790  0.00  0.00    +0.000 C 
ATOM     23  C   UNL     1       1.993   3.005  18.077  0.00  0.00    +0.000 C 
ATOM     24  S   UNL     1       3.747   2.885  18.264  0.00  0.00    +0.000 S 
ATOM     25  O   UNL     1       4.339   2.702  16.946  0.00  0.00    +0.000 OA
ATOM     26  O   UNL     1       4.065   2.006  19.365  0.00  0.00    +0.000 OA
ATOM     27  C   UNL     1       4.044   4.560  18.750  0.00  0.00    +0.000 C 
ENDBRANCH  19  21
ENDBRANCH  16  17
ENDBRANCH  15  16
ENDBRANCH   2  15
TORSDOF 7
ENDMDL
MODEL 8
REMARK VINA RESULT:      -6.9      4.533     10.047
REMARK  Name = 
REMARK  8 active torsions:
REMARK  status: ('A' for Active; 'I' for Inactive)
REMARK    1  A    between atoms: C_2  and  C_3
REMARK    2  A    between atoms: C_3  and  N_4
REMARK    3  A    between atoms: C_5  and  S_6
REMARK    4  A    between atoms: S_6  and  C_7
REMARK    5  A    between atoms: C_7  and  C_8
REMARK    6  A    between atoms: N_10  and  C_11
REMARK    7  A    between atoms: N_10  and  C_12
REMARK    8  A    between atoms: C_21  and  C_22
REMARK                            x       y       z     vdW  Elec       q    Type
REMARK                         _______ _______ _______ _____ _____    ______ ____
ROOT
ATOM      1  N   UNL     1      -2.017  11.647  18.568  0.00  0.00    +0.000 N 
ATOM      2  C   UNL     1      -0.882  11.629  19.351  0.00  0.00    +0.000 A 
ATOM      3  N   UNL     1      -1.203  11.915  20.588  0.00  0.00    +0.000 NA
ATOM      4  N   UNL     1      -2.562  12.136  20.628  0.00  0.00    +0.000 NA
ATOM      5  C   UNL     1      -3.074  11.956  19.419  0.00  0.00    +0.000 A 
ENDROOT
BRANCH   5   6
ATOM      6  C   UNL     1      -4.517  12.107  19.101  0.00  0.00    +0.000 A 
ATOM      7  C   UNL     1      -5.197  13.248  19.546  0.00  0.00    +0.000 A 
ATOM      8  C   UNL     1      -6.572  13.429  19.309  0.00  0.00    +0.000 A 
ATOM      9  C   UNL     1      -7.290  12.459  18.620  0.00  0.00    +0.000 A 
ATOM     10  C   UNL     1      -6.646  11.314  18.180  0.00  0.00    +0.000 A 
ATOM     11  C   UNL     1      -5.275  11.138  18.428  0.00  0.00    +0.000 A 
ENDBRANCH   5   6
BRANCH   1  12
ATOM     12  C   UNL     1      -2.082  11.455  17.129  0.00  0.00    +0.000 C 
BRANCH  12  14
ATOM     13  C   UNL     1      -2.881   9.612  15.615  0.00  0.00    +0.000 C 
ATOM     14  C   UNL     1      -2.354  10.021  16.770  0.00  0.00    +0.000 C 
ENDBRANCH  12  14
ENDBRANCH   1  12
BRANCH   2  15
ATOM     15  S   UNL     1       0.733  11.295  18.775  0.00  0.00    +0.000 S 
BRANCH  15  16
ATOM     16  C   UNL     1       0.994   9.595  19.401  0.00  0.00    +0.000 C 
BRANCH  16  17
ATOM     17  C   UNL     1       1.855   8.713  18.457  0.00  0.00    +0.000 C 
ATOM     18  O   UNL     1       2.152   9.056  17.314  0.00  0.00    +0.000 OA
ATOM     19  N   UNL     1       2.307   7.474  18.957  0.00  0.00    +0.000 N 
ATOM     20  C   UNL     1       1.995   7.005  20.304  0.00  0.00    +0.000 C 
BRANCH  19  21
ATOM     21  C   UNL     1       2.780   6.412  18.029  0.00  0.00    +0.000 C 
ATOM     22  C   UNL     1       2.128   5.016  18.116  0.00  0.00    +0.000 C 
ATOM     23  C   UNL     1       3.133   4.005  18.645  0.00  0.00    +0.000 C 
ATOM     24  S   UNL     1       4.723   4.594  18.148  0.00  0.00    +0.000 S 
ATOM     25  O   UNL     1       4.998   4.103  16.805  0.00  0.00    +0.000 OA
ATOM     26  O   UNL     1       5.670   4.420  19.225  0.00  0.00    +0.000 OA
ATOM     27  C   UNL     1       4.304   6.307  18.011  0.00  0.00    +0.000 C 
ENDBRANCH  19  21
ENDBRANCH  16  17
ENDBRANCH  15  16
ENDBRANCH   2  15
TORSDOF 7
ENDMDL
MODEL 9
REMARK VINA RESULT:      -6.9      3.433      5.586
REMARK  Name = 
REMARK  8 active torsions:
REMARK  status: ('A' for Active; 'I' for Inactive)
REMARK    1  A    between atoms: C_2  and  C_3
REMARK    2  A    between atoms: C_3  and  N_4
REMARK    3  A    between atoms: C_5  and  S_6
REMARK    4  A    between atoms: S_6  and  C_7
REMARK    5  A    between atoms: C_7  and  C_8
REMARK    6  A    between atoms: N_10  and  C_11
REMARK    7  A    between atoms: N_10  and  C_12
REMARK    8  A    between atoms: C_21  and  C_22
REMARK                            x       y       z     vdW  Elec       q    Type
REMARK                         _______ _______ _______ _____ _____    ______ ____
ROOT
ATOM      1  N   UNL     1       5.441   5.421  16.896  0.00  0.00    +0.000 N 
ATOM      2  C   UNL     1       4.768   4.920  17.990  0.00  0.00    +0.000 A 
ATOM      3  N   UNL     1       4.380   3.695  17.738  0.00  0.00    +0.000 NA
ATOM      4  N   UNL     1       4.790   3.380  16.461  0.00  0.00    +0.000 NA
ATOM      5  C   UNL     1       5.453   4.405  15.945  0.00  0.00    +0.000 A 
ENDROOT
BRANCH   5   6
ATOM      6  C   UNL     1       6.044   4.406  14.582  0.00  0.00    +0.000 A 
ATOM      7  C   UNL     1       5.447   3.630  13.580  0.00  0.00    +0.000 A 
ATOM      8  C   UNL     1       5.982   3.560  12.281  0.00  0.00    +0.000 A 
ATOM      9  C   UNL     1       7.135   4.271  11.967  0.00  0.00    +0.000 A 
ATOM     10  C   UNL     1       7.754   5.035  12.943  0.00  0.00    +0.000 A 
ATOM     11  C   UNL     1       7.217   5.093  14.239  0.00  0.00    +0.000 A 
ENDBRANCH   5   6
BRANCH   1  12
ATOM     12  C   UNL     1       5.968   6.767  16.741  0.00  0.00    +0.000 C 
BRANCH  12  14
ATOM     13  C   UNL     1       7.901   8.095  17.650  0.00  0.00    +0.000 C 
ATOM     14  C   UNL     1       7.298   6.926  17.420  0.00  0.00    +0.000 C 
ENDBRANCH  12  14
ENDBRANCH   1  12
BRANCH   2  15
ATOM     15  S   UNL     1       4.463   5.795  19.471  0.00  0.00    +0.000 S 
BRANCH  15  16
ATOM     16  C   UNL     1       2.649   6.022  19.390  0.00  0.00    +0.000 C 
BRANCH  16  17
ATOM     17  C   UNL     1       2.222   7.432  18.902  0.00  0.00    +0.000 C 
ATOM     18  O   UNL     1       2.536   7.877  17.799  0.00  0.00    +0.000 OA
ATOM     19  N   UNL     1       1.438   8.213  19.776  0.00  0.00    +0.000 N 
ATOM     20  C   UNL     1       1.028   7.747  21.097  0.00  0.00    +0.000 C 
BRANCH  19  21
ATOM     21  C   UNL     1       1.322   9.683  19.577  0.00  0.00    +0.000 C 
ATOM     22  C   UNL     1       1.007  10.568  20.801  0.00  0.00    +0.000 C 
ATOM     23  C   UNL     1      -0.387  11.159  20.671  0.00  0.00    +0.000 C 
ATOM     24  S   UNL     1      -0.696  11.299  18.936  0.00  0.00    +0.000 S 
ATOM     25  O   UNL     1      -0.158  12.571  18.474  0.00  0.00    +0.000 OA
ATOM     26  O   UNL     1      -2.054  10.902  18.646  0.00  0.00    +0.000 OA
ATOM     27  C   UNL     1       0.411  10.028  18.399  0.00  0.00    +0.000 C 
ENDBRANCH  19  21
ENDBRANCH  16  17
ENDBRANCH  15  16
ENDBRANCH   2  15
TORSDOF 7
ENDMDL
