MODEL 1
REMARK VINA RESULT:      -7.3      0.000      0.000
REMARK  Name = 
REMARK  6 active torsions:
REMARK  status: ('A' for Active; 'I' for Inactive)
REMARK    1  A    between atoms: C_1  and  C_2
REMARK    2  A    between atoms: C_4  and  S_5
REMARK    3  A    between atoms: S_5  and  N_8
REMARK    4  A    between atoms: N_8  and  C_9
REMARK    5  A    between atoms: C_13  and  N_14
REMARK    6  A    between atoms: C_18  and  C_19
REMARK                            x       y       z     vdW  Elec       q    Type
REMARK                         _______ _______ _______ _____ _____    ______ ____
ROOT
ATOM      1  N   UNL     1       6.666   4.762  15.899  0.00  0.00    +0.000 N 
ATOM      2  H   UNL     1       7.454   4.560  16.512  0.00  0.00    +0.000 HD
ENDROOT
BRANCH   1   3
ATOM      3  C   UNL     1       6.834   4.626  14.494  0.00  0.00    +0.000 A 
ATOM      4  C   UNL     1       7.783   5.386  13.808  0.00  0.00    +0.000 A 
ATOM      5  C   UNL     1       7.913   5.257  12.418  0.00  0.00    +0.000 A 
ATOM      6  C   UNL     1       7.108   4.362  11.716  0.00  0.00    +0.000 A 
ATOM      7  C   UNL     1       6.156   3.604  12.415  0.00  0.00    +0.000 A 
ATOM      8  C   UNL     1       6.015   3.739  13.803  0.00  0.00    +0.000 A 
BRANCH   7   9
ATOM      9  N   UNL     1       5.282   2.677  11.690  0.00  0.00    +0.000 N 
ATOM     10  O   UNL     1       5.752   1.571  11.378  0.00  0.00    +0.000 OA
ATOM     11  O   UNL     1       4.132   3.042  11.442  0.00  0.00    +0.000 OA
ENDBRANCH   7   9
ENDBRANCH   1   3
BRANCH   1  12
ATOM     12  S   UNL     1       5.650   5.992  16.465  0.00  0.00    +0.000 S 
ATOM     13  O   UNL     1       5.131   6.757  15.353  0.00  0.00    +0.000 OA
ATOM     14  O   UNL     1       6.318   6.632  17.580  0.00  0.00    +0.000 OA
BRANCH  12  18
ATOM     15  C   UNL     1       2.270   2.154  18.076  0.00  0.00    +0.000 C 
ATOM     16  C   UNL     1       2.855   3.506  17.859  0.00  0.00    +0.000 A 
ATOM     17  C   UNL     1       4.049   3.830  17.242  0.00  0.00    +0.000 A 
ATOM     18  C   UNL     1       4.260   5.243  17.191  0.00  0.00    +0.000 A 
ATOM     19  C   UNL     1       3.232   5.950  17.798  0.00  0.00    +0.000 A 
ATOM     20  C   UNL     1       3.072   7.421  17.990  0.00  0.00    +0.000 C 
ATOM     21  S   UNL     1       2.023   4.894  18.395  0.00  0.00    +0.000 S 
ENDBRANCH  12  18
ENDBRANCH   1  12
TORSDOF 4
ENDMDL
MODEL 2
REMARK VINA RESULT:      -7.1      2.959      4.482
REMARK  Name = 
REMARK  6 active torsions:
REMARK  status: ('A' for Active; 'I' for Inactive)
REMARK    1  A    between atoms: C_1  and  C_2
REMARK    2  A    between atoms: C_4  and  S_5
REMARK    3  A    between atoms: S_5  and  N_8
REMARK    4  A    between atoms: N_8  and  C_9
REMARK    5  A    between atoms: C_13  and  N_14
REMARK    6  A    between atoms: C_18  and  C_19
REMARK                            x       y       z     vdW  Elec       q    Type
REMARK                         _______ _______ _______ _____ _____    ______ ____
ROOT
ATOM      1  N   UNL     1       4.256   2.900  18.355  0.00  0.00    +0.000 N 
ATOM      2  H   UNL     1       4.457   2.322  19.169  0.00  0.00    +0.000 HD
ENDROOT
BRANCH   1   3
ATOM      3  C   UNL     1       5.230   3.841  17.921  0.00  0.00    +0.000 A 
ATOM      4  C   UNL     1       5.775   4.770  18.810  0.00  0.00    +0.000 A 
ATOM      5  C   UNL     1       6.714   5.707  18.355  0.00  0.00    +0.000 A 
ATOM      6  C   UNL     1       7.119   5.708  17.022  0.00  0.00    +0.000 A 
ATOM      7  C   UNL     1       6.564   4.770  16.137  0.00  0.00    +0.000 A 
ATOM      8  C   UNL     1       5.616   3.839  16.585  0.00  0.00    +0.000 A 
BRANCH   7   9
ATOM      9  N   UNL     1       6.958   4.771  14.725  0.00  0.00    +0.000 N 
ATOM     10  O   UNL     1       7.836   5.576  14.375  0.00  0.00    +0.000 OA
ATOM     11  O   UNL     1       6.404   3.970  13.971  0.00  0.00    +0.000 OA
ENDBRANCH   7   9
ENDBRANCH   1   3
BRANCH   1  12
ATOM     12  S   UNL     1       2.623   3.311  18.187  0.00  0.00    +0.000 S 
ATOM     13  O   UNL     1       1.821   2.547  19.118  0.00  0.00    +0.000 OA
ATOM     14  O   UNL     1       2.321   3.335  16.770  0.00  0.00    +0.000 OA
BRANCH  12  18
ATOM     15  C   UNL     1       2.250   8.648  17.843  0.00  0.00    +0.000 C 
ATOM     16  C   UNL     1       2.277   7.280  18.429  0.00  0.00    +0.000 A 
ATOM     17  C   UNL     1       2.423   6.073  17.772  0.00  0.00    +0.000 A 
ATOM     18  C   UNL     1       2.436   4.967  18.679  0.00  0.00    +0.000 A 
ATOM     19  C   UNL     1       2.269   5.366  19.997  0.00  0.00    +0.000 A 
ATOM     20  C   UNL     1       2.194   4.543  21.239  0.00  0.00    +0.000 C 
ATOM     21  S   UNL     1       2.126   7.069  20.115  0.00  0.00    +0.000 S 
ENDBRANCH  12  18
ENDBRANCH   1  12
TORSDOF 4
ENDMDL
MODEL 3
REMARK VINA RESULT:      -7.1      3.608      5.472
REMARK  Name = 
REMARK  6 active torsions:
REMARK  status: ('A' for Active; 'I' for Inactive)
REMARK    1  A    between atoms: C_1  and  C_2
REMARK    2  A    between atoms: C_4  and  S_5
REMARK    3  A    between atoms: S_5  and  N_8
REMARK    4  A    between atoms: N_8  and  C_9
REMARK    5  A    between atoms: C_13  and  N_14
REMARK    6  A    between atoms: C_18  and  C_19
REMARK                            x       y       z     vdW  Elec       q    Type
REMARK                         _______ _______ _______ _____ _____    ______ ____
ROOT
ATOM      1  N   UNL     1       4.148   2.762  18.055  0.00  0.00    +0.000 N 
ATOM      2  H   UNL     1       4.437   2.111  18.783  0.00  0.00    +0.000 HD
ENDROOT
BRANCH   1   3
ATOM      3  C   UNL     1       5.073   3.742  17.602  0.00  0.00    +0.000 A 
ATOM      4  C   UNL     1       5.191   4.043  16.244  0.00  0.00    +0.000 A 
ATOM      5  C   UNL     1       6.129   4.992  15.815  0.00  0.00    +0.000 A 
ATOM      6  C   UNL     1       6.937   5.651  16.739  0.00  0.00    +0.000 A 
ATOM      7  C   UNL     1       6.811   5.340  18.102  0.00  0.00    +0.000 A 
ATOM      8  C   UNL     1       5.883   4.383  18.534  0.00  0.00    +0.000 A 
BRANCH   7   9
ATOM      9  N   UNL     1       7.670   6.004  19.088  0.00  0.00    +0.000 N 
ATOM     10  O   UNL     1       8.249   7.045  18.737  0.00  0.00    +0.000 OA
ATOM     11  O   UNL     1       7.762   5.497  20.207  0.00  0.00    +0.000 OA
ENDBRANCH   7   9
ENDBRANCH   1   3
BRANCH   1  12
ATOM     12  S   UNL     1       2.509   3.181  18.116  0.00  0.00    +0.000 S 
ATOM     13  O   UNL     1       1.833   2.395  19.124  0.00  0.00    +0.000 OA
ATOM     14  O   UNL     1       2.023   3.245  16.752  0.00  0.00    +0.000 OA
BRANCH  12  18
ATOM     15  C   UNL     1       2.298   8.537  17.968  0.00  0.00    +0.000 C 
ATOM     16  C   UNL     1       2.306   7.149  18.507  0.00  0.00    +0.000 A 
ATOM     17  C   UNL     1       2.382   5.961  17.803  0.00  0.00    +0.000 A 
ATOM     18  C   UNL     1       2.399   4.825  18.671  0.00  0.00    +0.000 A 
ATOM     19  C   UNL     1       2.305   5.182  20.008  0.00  0.00    +0.000 A 
ATOM     20  C   UNL     1       2.258   4.319  21.223  0.00  0.00    +0.000 C 
ATOM     21  S   UNL     1       2.223   6.883  20.189  0.00  0.00    +0.000 S 
ENDBRANCH  12  18
ENDBRANCH   1  12
TORSDOF 4
ENDMDL
MODEL 4
REMARK VINA RESULT:      -6.9      3.323      5.077
REMARK  Name = 
REMARK  6 active torsions:
REMARK  status: ('A' for Active; 'I' for Inactive)
REMARK    1  A    between atoms: C_1  and  C_2
REMARK    2  A    between atoms: C_4  and  S_5
REMARK    3  A    between atoms: S_5  and  N_8
REMARK    4  A    between atoms: N_8  and  C_9
REMARK    5  A    between atoms: C_13  and  N_14
REMARK    6  A    between atoms: C_18  and  C_19
REMARK                            x       y       z     vdW  Elec       q    Type
REMARK                         _______ _______ _______ _____ _____    ______ ____
ROOT
ATOM      1  N   UNL     1       4.443   2.992  18.109  0.00  0.00    +0.000 N 
ATOM      2  H   UNL     1       4.845   2.626  18.970  0.00  0.00    +0.000 HD
ENDROOT
BRANCH   1   3
ATOM      3  C   UNL     1       5.228   3.853  17.293  0.00  0.00    +0.000 A 
ATOM      4  C   UNL     1       5.269   3.687  15.908  0.00  0.00    +0.000 A 
ATOM      5  C   UNL     1       6.072   4.529  15.124  0.00  0.00    +0.000 A 
ATOM      6  C   UNL     1       6.820   5.542  15.720  0.00  0.00    +0.000 A 
ATOM      7  C   UNL     1       6.773   5.699  17.115  0.00  0.00    +0.000 A 
ATOM      8  C   UNL     1       5.980   4.851  17.902  0.00  0.00    +0.000 A 
BRANCH   7   9
ATOM      9  N   UNL     1       7.572   6.742  17.763  0.00  0.00    +0.000 N 
ATOM     10  O   UNL     1       8.036   6.495  18.888  0.00  0.00    +0.000 OA
ATOM     11  O   UNL     1       7.745   7.799  17.153  0.00  0.00    +0.000 OA
ENDBRANCH   7   9
ENDBRANCH   1   3
BRANCH   1  12
ATOM     12  S   UNL     1       2.777   3.275  18.192  0.00  0.00    +0.000 S 
ATOM     13  O   UNL     1       2.191   2.480  19.249  0.00  0.00    +0.000 OA
ATOM     14  O   UNL     1       2.258   3.238  16.840  0.00  0.00    +0.000 OA
BRANCH  12  18
ATOM     15  C   UNL     1       2.305   8.605  17.848  0.00  0.00    +0.000 C 
ATOM     16  C   UNL     1       2.342   7.236  18.432  0.00  0.00    +0.000 A 
ATOM     17  C   UNL     1       2.533   6.034  17.777  0.00  0.00    +0.000 A 
ATOM     18  C   UNL     1       2.540   4.926  18.681  0.00  0.00    +0.000 A 
ATOM     19  C   UNL     1       2.324   5.317  19.994  0.00  0.00    +0.000 A 
ATOM     20  C   UNL     1       2.226   4.490  21.231  0.00  0.00    +0.000 C 
ATOM     21  S   UNL     1       2.142   7.016  20.111  0.00  0.00    +0.000 S 
ENDBRANCH  12  18
ENDBRANCH   1  12
TORSDOF 4
ENDMDL
MODEL 5
REMARK VINA RESULT:      -6.7      4.130      7.606
REMARK  Name = 
REMARK  6 active torsions:
REMARK  status: ('A' for Active; 'I' for Inactive)
REMARK    1  A    between atoms: C_1  and  C_2
REMARK    2  A    between atoms: C_4  and  S_5
REMARK    3  A    between atoms: S_5  and  N_8
REMARK    4  A    between atoms: N_8  and  C_9
REMARK    5  A    between atoms: C_13  and  N_14
REMARK    6  A    between atoms: C_18  and  C_19
REMARK                            x       y       z     vdW  Elec       q    Type
REMARK                         _______ _______ _______ _____ _____    ______ ____
ROOT
ATOM      1  N   UNL     1       3.467   5.918  19.760  0.00  0.00    +0.000 N 
ATOM      2  H   UNL     1       3.596   5.733  20.753  0.00  0.00    +0.000 HD
ENDROOT
BRANCH   1   3
ATOM      3  C   UNL     1       2.722   7.062  19.362  0.00  0.00    +0.000 A 
ATOM      4  C   UNL     1       2.890   7.622  18.095  0.00  0.00    +0.000 A 
ATOM      5  C   UNL     1       2.167   8.767  17.733  0.00  0.00    +0.000 A 
ATOM      6  C   UNL     1       1.267   9.343  18.628  0.00  0.00    +0.000 A 
ATOM      7  C   UNL     1       1.106   8.772  19.900  0.00  0.00    +0.000 A 
ATOM      8  C   UNL     1       1.837   7.634  20.269  0.00  0.00    +0.000 A 
BRANCH   7   9
ATOM      9  N   UNL     1       0.184   9.378  20.864  0.00  0.00    +0.000 N 
ATOM     10  O   UNL     1      -0.007  10.603  20.785  0.00  0.00    +0.000 OA
ATOM     11  O   UNL     1      -0.354   8.639  21.691  0.00  0.00    +0.000 OA
ENDBRANCH   7   9
ENDBRANCH   1   3
BRANCH   1  12
ATOM     12  S   UNL     1       3.351   4.522  18.809  0.00  0.00    +0.000 S 
ATOM     13  O   UNL     1       2.170   4.585  17.978  0.00  0.00    +0.000 OA
ATOM     14  O   UNL     1       3.614   3.384  19.668  0.00  0.00    +0.000 OA
BRANCH  12  18
ATOM     15  C   UNL     1       6.105   3.894  14.251  0.00  0.00    +0.000 C 
ATOM     16  C   UNL     1       5.800   4.224  15.671  0.00  0.00    +0.000 A 
ATOM     17  C   UNL     1       4.582   4.154  16.321  0.00  0.00    +0.000 A 
ATOM     18  C   UNL     1       4.689   4.520  17.699  0.00  0.00    +0.000 A 
ATOM     19  C   UNL     1       5.981   4.886  18.048  0.00  0.00    +0.000 A 
ATOM     20  C   UNL     1       6.516   5.359  19.358  0.00  0.00    +0.000 C 
ATOM     21  S   UNL     1       7.042   4.757  16.710  0.00  0.00    +0.000 S 
ENDBRANCH  12  18
ENDBRANCH   1  12
TORSDOF 4
ENDMDL
MODEL 6
REMARK VINA RESULT:      -6.6      3.671      7.192
REMARK  Name = 
REMARK  6 active torsions:
REMARK  status: ('A' for Active; 'I' for Inactive)
REMARK    1  A    between atoms: C_1  and  C_2
REMARK    2  A    between atoms: C_4  and  S_5
REMARK    3  A    between atoms: S_5  and  N_8
REMARK    4  A    between atoms: N_8  and  C_9
REMARK    5  A    between atoms: C_13  and  N_14
REMARK    6  A    between atoms: C_18  and  C_19
REMARK                            x       y       z     vdW  Elec       q    Type
REMARK                         _______ _______ _______ _____ _____    ______ ____
ROOT
ATOM      1  N   UNL     1       4.431   2.765  17.918  0.00  0.00    +0.000 N 
ATOM      2  H   UNL     1       4.587   2.203  17.084  0.00  0.00    +0.000 HD
ENDROOT
BRANCH   1   3
ATOM      3  C   UNL     1       3.156   2.724  18.547  0.00  0.00    +0.000 A 
ATOM      4  C   UNL     1       1.985   2.660  17.790  0.00  0.00    +0.000 A 
ATOM      5  C   UNL     1       0.737   2.648  18.429  0.00  0.00    +0.000 A 
ATOM      6  C   UNL     1       0.658   2.686  19.820  0.00  0.00    +0.000 A 
ATOM      7  C   UNL     1       1.841   2.753  20.571  0.00  0.00    +0.000 A 
ATOM      8  C   UNL     1       3.091   2.776  19.935  0.00  0.00    +0.000 A 
BRANCH   7   9
ATOM      9  N   UNL     1       1.779   2.820  22.034  0.00  0.00    +0.000 N 
ATOM     10  O   UNL     1       0.989   2.054  22.611  0.00  0.00    +0.000 OA
ATOM     11  O   UNL     1       2.517   3.623  22.607  0.00  0.00    +0.000 OA
ENDBRANCH   7   9
ENDBRANCH   1   3
BRANCH   1  12
ATOM     12  S   UNL     1       5.278   4.230  17.931  0.00  0.00    +0.000 S 
ATOM     13  O   UNL     1       6.421   4.134  18.812  0.00  0.00    +0.000 OA
ATOM     14  O   UNL     1       4.307   5.297  18.064  0.00  0.00    +0.000 OA
BRANCH  12  18
ATOM     15  C   UNL     1       6.244   3.480  12.710  0.00  0.00    +0.000 C 
ATOM     16  C   UNL     1       6.297   4.075  14.074  0.00  0.00    +0.000 A 
ATOM     17  C   UNL     1       5.609   3.677  15.206  0.00  0.00    +0.000 A 
ATOM     18  C   UNL     1       5.946   4.474  16.345  0.00  0.00    +0.000 A 
ATOM     19  C   UNL     1       6.857   5.473  16.037  0.00  0.00    +0.000 A 
ATOM     20  C   UNL     1       7.444   6.529  16.912  0.00  0.00    +0.000 C 
ATOM     21  S   UNL     1       7.307   5.413  14.386  0.00  0.00    +0.000 S 
ENDBRANCH  12  18
ENDBRANCH   1  12
TORSDOF 4
ENDMDL
MODEL 7
REMARK VINA RESULT:      -6.6      2.382      3.028
REMARK  Name = 
REMARK  6 active torsions:
REMARK  status: ('A' for Active; 'I' for Inactive)
REMARK    1  A    between atoms: C_1  and  C_2
REMARK    2  A    between atoms: C_4  and  S_5
REMARK    3  A    between atoms: S_5  and  N_8
REMARK    4  A    between atoms: N_8  and  C_9
REMARK    5  A    between atoms: C_13  and  N_14
REMARK    6  A    between atoms: C_18  and  C_19
REMARK                            x       y       z     vdW  Elec       q    Type
REMARK                         _______ _______ _______ _____ _____    ______ ____
ROOT
ATOM      1  N   UNL     1       7.205   4.293  17.721  0.00  0.00    +0.000 N 
ATOM      2  H   UNL     1       8.120   3.900  17.936  0.00  0.00    +0.000 HD
ENDROOT
BRANCH   1   3
ATOM      3  C   UNL     1       6.736   4.255  16.379  0.00  0.00    +0.000 A 
ATOM      4  C   UNL     1       5.519   3.650  16.061  0.00  0.00    +0.000 A 
ATOM      5  C   UNL     1       5.089   3.599  14.728  0.00  0.00    +0.000 A 
ATOM      6  C   UNL     1       5.864   4.164  13.716  0.00  0.00    +0.000 A 
ATOM      7  C   UNL     1       7.087   4.768  14.047  0.00  0.00    +0.000 A 
ATOM      8  C   UNL     1       7.525   4.810  15.378  0.00  0.00    +0.000 A 
BRANCH   7   9
ATOM      9  N   UNL     1       7.928   5.345  12.994  0.00  0.00    +0.000 N 
ATOM     10  O   UNL     1       8.895   6.040  13.348  0.00  0.00    +0.000 OA
ATOM     11  O   UNL     1       7.635   5.100  11.823  0.00  0.00    +0.000 OA
ENDBRANCH   7   9
ENDBRANCH   1   3
BRANCH   1  12
ATOM     12  S   UNL     1       6.787   5.628  18.674  0.00  0.00    +0.000 S 
ATOM     13  O   UNL     1       7.170   6.852  18.007  0.00  0.00    +0.000 OA
ATOM     14  O   UNL     1       7.202   5.343  20.033  0.00  0.00    +0.000 OA
BRANCH  12  18
ATOM     15  C   UNL     1       1.820   4.737  20.486  0.00  0.00    +0.000 C 
ATOM     16  C   UNL     1       2.932   5.253  19.643  0.00  0.00    +0.000 A 
ATOM     17  C   UNL     1       4.291   5.064  19.812  0.00  0.00    +0.000 A 
ATOM     18  C   UNL     1       5.052   5.688  18.775  0.00  0.00    +0.000 A 
ATOM     19  C   UNL     1       4.250   6.361  17.865  0.00  0.00    +0.000 A 
ATOM     20  C   UNL     1       4.634   7.160  16.666  0.00  0.00    +0.000 C 
ATOM     21  S   UNL     1       2.593   6.202  18.267  0.00  0.00    +0.000 S 
ENDBRANCH  12  18
ENDBRANCH   1  12
TORSDOF 4
ENDMDL
MODEL 8
REMARK VINA RESULT:      -6.6      2.812      4.258
REMARK  Name = 
REMARK  6 active torsions:
REMARK  status: ('A' for Active; 'I' for Inactive)
REMARK    1  A    between atoms: C_1  and  C_2
REMARK    2  A    between atoms: C_4  and  S_5
REMARK    3  A    between atoms: S_5  and  N_8
REMARK    4  A    between atoms: N_8  and  C_9
REMARK    5  A    between atoms: C_13  and  N_14
REMARK    6  A    between atoms: C_18  and  C_19
REMARK                            x       y       z     vdW  Elec       q    Type
REMARK                         _______ _______ _______ _____ _____    ______ ____
ROOT
ATOM      1  N   UNL     1       5.782   3.998  18.782  0.00  0.00    +0.000 N 
ATOM      2  H   UNL     1       6.207   4.386  19.622  0.00  0.00    +0.000 HD
ENDROOT
BRANCH   1   3
ATOM      3  C   UNL     1       5.681   4.813  17.621  0.00  0.00    +0.000 A 
ATOM      4  C   UNL     1       4.915   5.980  17.628  0.00  0.00    +0.000 A 
ATOM      5  C   UNL     1       4.807   6.754  16.464  0.00  0.00    +0.000 A 
ATOM      6  C   UNL     1       5.473   6.374  15.301  0.00  0.00    +0.000 A 
ATOM      7  C   UNL     1       6.240   5.198  15.305  0.00  0.00    +0.000 A 
ATOM      8  C   UNL     1       6.341   4.415  16.463  0.00  0.00    +0.000 A 
BRANCH   7   9
ATOM      9  N   UNL     1       6.927   4.768  14.084  0.00  0.00    +0.000 N 
ATOM     10  O   UNL     1       6.494   3.757  13.506  0.00  0.00    +0.000 OA
ATOM     11  O   UNL     1       7.888   5.435  13.697  0.00  0.00    +0.000 OA
ENDBRANCH   7   9
ENDBRANCH   1   3
BRANCH   1  12
ATOM     12  S   UNL     1       4.539   2.890  19.088  0.00  0.00    +0.000 S 
ATOM     13  O   UNL     1       4.903   2.029  20.191  0.00  0.00    +0.000 OA
ATOM     14  O   UNL     1       4.111   2.350  17.813  0.00  0.00    +0.000 OA
BRANCH  12  18
ATOM     15  C   UNL     1       1.601   6.969  20.953  0.00  0.00    +0.000 C 
ATOM     16  C   UNL     1       1.958   5.615  20.449  0.00  0.00    +0.000 A 
ATOM     17  C   UNL     1       3.194   5.159  20.030  0.00  0.00    +0.000 A 
ATOM     18  C   UNL     1       3.155   3.782  19.644  0.00  0.00    +0.000 A 
ATOM     19  C   UNL     1       1.882   3.242  19.753  0.00  0.00    +0.000 A 
ATOM     20  C   UNL     1       1.400   1.868  19.430  0.00  0.00    +0.000 C 
ATOM     21  S   UNL     1       0.766   4.400  20.342  0.00  0.00    +0.000 S 
ENDBRANCH  12  18
ENDBRANCH   1  12
TORSDOF 4
ENDMDL
MODEL 9
REMARK VINA RESULT:      -6.5      3.986      7.409
REMARK  Name = 
REMARK  6 active torsions:
REMARK  status: ('A' for Active; 'I' for Inactive)
REMARK    1  A    between atoms: C_1  and  C_2
REMARK    2  A    between atoms: C_4  and  S_5
REMARK    3  A    between atoms: S_5  and  N_8
REMARK    4  A    between atoms: N_8  and  C_9
REMARK    5  A    between atoms: C_13  and  N_14
REMARK    6  A    between atoms: C_18  and  C_19
REMARK                            x       y       z     vdW  Elec       q    Type
REMARK                         _______ _______ _______ _____ _____    ______ ____
ROOT
ATOM      1  N   UNL     1       3.047   4.754  18.885  0.00  0.00    +0.000 N 
ATOM      2  H   UNL     1       2.581   4.113  18.245  0.00  0.00    +0.000 HD
ENDROOT
BRANCH   1   3
ATOM      3  C   UNL     1       2.618   6.109  18.935  0.00  0.00    +0.000 A 
ATOM      4  C   UNL     1       2.832   6.969  17.856  0.00  0.00    +0.000 A 
ATOM      5  C   UNL     1       2.427   8.308  17.936  0.00  0.00    +0.000 A 
ATOM      6  C   UNL     1       1.797   8.786  19.084  0.00  0.00    +0.000 A 
ATOM      7  C   UNL     1       1.588   7.913  20.163  0.00  0.00    +0.000 A 
ATOM      8  C   UNL     1       2.002   6.576  20.091  0.00  0.00    +0.000 A 
BRANCH   7   9
ATOM      9  N   UNL     1       0.950   8.403  21.389  0.00  0.00    +0.000 N 
ATOM     10  O   UNL     1       1.670   8.980  22.220  0.00  0.00    +0.000 OA
ATOM     11  O   UNL     1      -0.262   8.222  21.521  0.00  0.00    +0.000 OA
ENDBRANCH   7   9
ENDBRANCH   1   3
BRANCH   1  12
ATOM     12  S   UNL     1       4.693   4.430  19.110  0.00  0.00    +0.000 S 
ATOM     13  O   UNL     1       4.871   3.077  19.587  0.00  0.00    +0.000 OA
ATOM     14  O   UNL     1       5.271   5.562  19.806  0.00  0.00    +0.000 OA
BRANCH  12  18
ATOM     15  C   UNL     1       5.327   3.997  13.803  0.00  0.00    +0.000 C 
ATOM     16  C   UNL     1       5.639   4.259  15.235  0.00  0.00    +0.000 A 
ATOM     17  C   UNL     1       4.790   4.173  16.323  0.00  0.00    +0.000 A 
ATOM     18  C   UNL     1       5.461   4.467  17.551  0.00  0.00    +0.000 A 
ATOM     19  C   UNL     1       6.793   4.800  17.356  0.00  0.00    +0.000 A 
ATOM     20  C   UNL     1       7.831   5.199  18.350  0.00  0.00    +0.000 C 
ATOM     21  S   UNL     1       7.213   4.724  15.697  0.00  0.00    +0.000 S 
ENDBRANCH  12  18
ENDBRANCH   1  12
TORSDOF 4
ENDMDL
