MODEL 1
REMARK VINA RESULT:      -8.3      0.000      0.000
REMARK  Name = 
REMARK  8 active torsions:
REMARK  status: ('A' for Active; 'I' for Inactive)
REMARK    1  A    between atoms: C_1  and  C_2
REMARK    2  A    between atoms: C_4  and  C_5
REMARK    3  A    between atoms: C_11  and  C_12
REMARK    4  A    between atoms: C_12  and  N_13
REMARK    5  A    between atoms: C_18  and  C_19
REMARK    6  A    between atoms: C_19  and  N_20
REMARK    7  A    between atoms: N_20  and  S_21
REMARK    8  A    between atoms: S_21  and  C_22
REMARK                            x       y       z     vdW  Elec       q    Type
REMARK                         _______ _______ _______ _____ _____    ______ ____
ROOT
ATOM      1  C   UNL     1       3.406   6.290  17.777  0.00  0.00    +0.000 C 
ENDROOT
BRANCH   1  12
ATOM      2  C   UNL     1       1.977   7.284  20.236  0.00  0.00    +0.000 C 
ATOM      3  C   UNL     1       2.121   5.814  19.942  0.00  0.00    +0.000 A 
ATOM      4  C   UNL     1       1.636   4.906  20.895  0.00  0.00    +0.000 A 
ATOM      5  C   UNL     1       1.674   3.521  20.699  0.00  0.00    +0.000 A 
ATOM      6  C   UNL     1       1.289   2.588  21.808  0.00  0.00    +0.000 C 
ATOM      7  C   UNL     1       2.074   3.090  19.423  0.00  0.00    +0.000 A 
ATOM      8  N   UNL     1       2.088   1.819  18.889  0.00  0.00    +0.000 N 
ATOM      9  C   UNL     1       2.519   1.850  17.595  0.00  0.00    +0.000 A 
ATOM     10  C   UNL     1       2.857   3.148  17.300  0.00  0.00    +0.000 A 
ATOM     11  C   UNL     1       2.573   3.955  18.449  0.00  0.00    +0.000 A 
ATOM     12  C   UNL     1       2.688   5.341  18.725  0.00  0.00    +0.000 A 
ATOM     13  H   UNL     1       1.781   0.992  19.382  0.00  0.00    +0.000 HD
ENDBRANCH   1  12
BRANCH   1  14
ATOM     14  N   UNL     1       4.816   6.524  18.130  0.00  0.00    +0.000 NA
ATOM     15  C   UNL     1       5.382   5.500  19.005  0.00  0.00    +0.000 C 
ATOM     16  C   UNL     1       6.894   5.512  19.229  0.00  0.00    +0.000 C 
ATOM     17  C   UNL     1       7.684   5.886  17.990  0.00  0.00    +0.000 C 
ATOM     18  C   UNL     1       7.144   7.181  17.409  0.00  0.00    +0.000 C 
ATOM     19  C   UNL     1       5.645   7.129  17.076  0.00  0.00    +0.000 C 
BRANCH  19  20
ATOM     20  C   UNL     1       5.371   6.761  15.589  0.00  0.00    +0.000 C 
BRANCH  20  21
ATOM     21  N   UNL     1       5.218   5.328  15.317  0.00  0.00    +0.000 NA
ATOM     22  H   UNL     1       4.338   5.004  14.917  0.00  0.00    +0.000 HD
BRANCH  21  23
ATOM     23  S   UNL     1       6.578   4.513  14.745  0.00  0.00    +0.000 S 
ATOM     24  C   UNL     1       5.979   3.740  13.250  0.00  0.00    +0.000 C 
ATOM     25  O   UNL     1       7.570   5.498  14.374  0.00  0.00    +0.000 OA
ATOM     26  O   UNL     1       6.862   3.469  15.700  0.00  0.00    +0.000 OA
ENDBRANCH  21  23
ENDBRANCH  20  21
ENDBRANCH  19  20
ENDBRANCH   1  14
TORSDOF 5
ENDMDL
MODEL 2
REMARK VINA RESULT:      -7.1      2.513      5.152
REMARK  Name = 
REMARK  8 active torsions:
REMARK  status: ('A' for Active; 'I' for Inactive)
REMARK    1  A    between atoms: C_1  and  C_2
REMARK    2  A    between atoms: C_4  and  C_5
REMARK    3  A    between atoms: C_11  and  C_12
REMARK    4  A    between atoms: C_12  and  N_13
REMARK    5  A    between atoms: C_18  and  C_19
REMARK    6  A    between atoms: C_19  and  N_20
REMARK    7  A    between atoms: N_20  and  S_21
REMARK    8  A    between atoms: S_21  and  C_22
REMARK                            x       y       z     vdW  Elec       q    Type
REMARK                         _______ _______ _______ _____ _____    ______ ____
ROOT
ATOM      1  C   UNL     1       3.593   5.836  19.922  0.00  0.00    +0.000 C 
ENDROOT
BRANCH   1  12
ATOM      2  C   UNL     1       3.805   6.732  17.052  0.00  0.00    +0.000 C 
ATOM      3  C   UNL     1       2.964   7.476  18.056  0.00  0.00    +0.000 A 
ATOM      4  C   UNL     1       2.338   8.658  17.636  0.00  0.00    +0.000 A 
ATOM      5  C   UNL     1       1.495   9.400  18.472  0.00  0.00    +0.000 A 
ATOM      6  C   UNL     1       0.974  10.735  18.032  0.00  0.00    +0.000 C 
ATOM      7  C   UNL     1       1.178   8.809  19.706  0.00  0.00    +0.000 A 
ATOM      8  N   UNL     1       0.287   9.221  20.675  0.00  0.00    +0.000 N 
ATOM      9  C   UNL     1       0.259   8.330  21.708  0.00  0.00    +0.000 A 
ATOM     10  C   UNL     1       1.194   7.359  21.445  0.00  0.00    +0.000 A 
ATOM     11  C   UNL     1       1.783   7.641  20.170  0.00  0.00    +0.000 A 
ATOM     12  C   UNL     1       2.765   6.992  19.380  0.00  0.00    +0.000 A 
ATOM     13  H   UNL     1      -0.290  10.048  20.601  0.00  0.00    +0.000 HD
ENDBRANCH   1  12
BRANCH   1  14
ATOM     14  N   UNL     1       2.962   4.518  19.737  0.00  0.00    +0.000 NA
ATOM     15  C   UNL     1       1.570   4.589  19.300  0.00  0.00    +0.000 C 
ATOM     16  C   UNL     1       0.900   3.293  18.843  0.00  0.00    +0.000 C 
ATOM     17  C   UNL     1       1.828   2.377  18.070  0.00  0.00    +0.000 C 
ATOM     18  C   UNL     1       3.106   2.156  18.859  0.00  0.00    +0.000 C 
ATOM     19  C   UNL     1       3.840   3.458  19.220  0.00  0.00    +0.000 C 
BRANCH  19  20
ATOM     20  C   UNL     1       4.954   3.824  18.197  0.00  0.00    +0.000 C 
BRANCH  20  21
ATOM     21  N   UNL     1       6.254   4.163  18.783  0.00  0.00    +0.000 NA
ATOM     22  H   UNL     1       6.645   3.537  19.486  0.00  0.00    +0.000 HD
BRANCH  21  23
ATOM     23  S   UNL     1       7.400   4.840  17.748  0.00  0.00    +0.000 S 
ATOM     24  C   UNL     1       6.687   4.570  16.133  0.00  0.00    +0.000 C 
ATOM     25  O   UNL     1       7.438   6.266  17.989  0.00  0.00    +0.000 OA
ATOM     26  O   UNL     1       8.583   4.019  17.852  0.00  0.00    +0.000 OA
ENDBRANCH  21  23
ENDBRANCH  20  21
ENDBRANCH  19  20
ENDBRANCH   1  14
TORSDOF 5
ENDMDL
MODEL 3
REMARK VINA RESULT:      -7.1      2.178      4.582
REMARK  Name = 
REMARK  8 active torsions:
REMARK  status: ('A' for Active; 'I' for Inactive)
REMARK    1  A    between atoms: C_1  and  C_2
REMARK    2  A    between atoms: C_4  and  C_5
REMARK    3  A    between atoms: C_11  and  C_12
REMARK    4  A    between atoms: C_12  and  N_13
REMARK    5  A    between atoms: C_18  and  C_19
REMARK    6  A    between atoms: C_19  and  N_20
REMARK    7  A    between atoms: N_20  and  S_21
REMARK    8  A    between atoms: S_21  and  C_22
REMARK                            x       y       z     vdW  Elec       q    Type
REMARK                         _______ _______ _______ _____ _____    ______ ____
ROOT
ATOM      1  C   UNL     1       2.901   5.973  18.208  0.00  0.00    +0.000 C 
ENDROOT
BRANCH   1  12
ATOM      2  C   UNL     1       2.301   5.138  21.040  0.00  0.00    +0.000 C 
ATOM      3  C   UNL     1       1.868   6.475  20.498  0.00  0.00    +0.000 A 
ATOM      4  C   UNL     1       1.098   7.300  21.331  0.00  0.00    +0.000 A 
ATOM      5  C   UNL     1       0.685   8.580  20.946  0.00  0.00    +0.000 A 
ATOM      6  C   UNL     1      -0.264   9.361  21.805  0.00  0.00    +0.000 C 
ATOM      7  C   UNL     1       1.223   9.063  19.742  0.00  0.00    +0.000 A 
ATOM      8  N   UNL     1       1.115  10.314  19.170  0.00  0.00    +0.000 N 
ATOM      9  C   UNL     1       1.826  10.371  18.007  0.00  0.00    +0.000 A 
ATOM     10  C   UNL     1       2.349   9.121  17.779  0.00  0.00    +0.000 A 
ATOM     11  C   UNL     1       1.984   8.277  18.877  0.00  0.00    +0.000 A 
ATOM     12  C   UNL     1       2.251   6.923  19.203  0.00  0.00    +0.000 A 
ATOM     13  H   UNL     1       0.611  11.086  19.584  0.00  0.00    +0.000 HD
ENDBRANCH   1  12
BRANCH   1  14
ATOM     14  N   UNL     1       2.864   4.562  18.627  0.00  0.00    +0.000 NA
ATOM     15  C   UNL     1       1.867   3.764  17.917  0.00  0.00    +0.000 C 
ATOM     16  C   UNL     1       1.912   2.246  18.094  0.00  0.00    +0.000 C 
ATOM     17  C   UNL     1       3.321   1.692  18.177  0.00  0.00    +0.000 C 
ATOM     18  C   UNL     1       4.111   2.451  19.227  0.00  0.00    +0.000 C 
ATOM     19  C   UNL     1       4.161   3.968  18.983  0.00  0.00    +0.000 C 
BRANCH  19  20
ATOM     20  C   UNL     1       5.438   4.411  18.211  0.00  0.00    +0.000 C 
BRANCH  20  21
ATOM     21  N   UNL     1       5.561   3.884  16.849  0.00  0.00    +0.000 NA
ATOM     22  H   UNL     1       4.744   3.443  16.426  0.00  0.00    +0.000 HD
BRANCH  21  23
ATOM     23  S   UNL     1       6.500   4.776  15.770  0.00  0.00    +0.000 S 
ATOM     24  C   UNL     1       6.218   3.943  14.215  0.00  0.00    +0.000 C 
ATOM     25  O   UNL     1       5.938   6.105  15.676  0.00  0.00    +0.000 OA
ATOM     26  O   UNL     1       7.876   4.556  16.146  0.00  0.00    +0.000 OA
ENDBRANCH  21  23
ENDBRANCH  20  21
ENDBRANCH  19  20
ENDBRANCH   1  14
TORSDOF 5
ENDMDL
MODEL 4
REMARK VINA RESULT:      -7.0      1.579      1.682
REMARK  Name = 
REMARK  8 active torsions:
REMARK  status: ('A' for Active; 'I' for Inactive)
REMARK    1  A    between atoms: C_1  and  C_2
REMARK    2  A    between atoms: C_4  and  C_5
REMARK    3  A    between atoms: C_11  and  C_12
REMARK    4  A    between atoms: C_12  and  N_13
REMARK    5  A    between atoms: C_18  and  C_19
REMARK    6  A    between atoms: C_19  and  N_20
REMARK    7  A    between atoms: N_20  and  S_21
REMARK    8  A    between atoms: S_21  and  C_22
REMARK                            x       y       z     vdW  Elec       q    Type
REMARK                         _______ _______ _______ _____ _____    ______ ____
ROOT
ATOM      1  C   UNL     1       3.807   6.057  17.187  0.00  0.00    +0.000 C 
ENDROOT
BRANCH   1  12
ATOM      2  C   UNL     1       2.256   7.480  19.344  0.00  0.00    +0.000 C 
ATOM      3  C   UNL     1       2.464   5.988  19.368  0.00  0.00    +0.000 A 
ATOM      4  C   UNL     1       1.979   5.278  20.476  0.00  0.00    +0.000 A 
ATOM      5  C   UNL     1       2.074   3.885  20.576  0.00  0.00    +0.000 A 
ATOM      6  C   UNL     1       1.684   3.188  21.845  0.00  0.00    +0.000 C 
ATOM      7  C   UNL     1       2.535   3.217  19.430  0.00  0.00    +0.000 A 
ATOM      8  N   UNL     1       2.614   1.864  19.174  0.00  0.00    +0.000 N 
ATOM      9  C   UNL     1       3.089   1.643  17.915  0.00  0.00    +0.000 A 
ATOM     10  C   UNL     1       3.390   2.865  17.364  0.00  0.00    +0.000 A 
ATOM     11  C   UNL     1       3.036   3.880  18.311  0.00  0.00    +0.000 A 
ATOM     12  C   UNL     1       3.091   5.296  18.293  0.00  0.00    +0.000 A 
ATOM     13  H   UNL     1       2.319   1.145  19.822  0.00  0.00    +0.000 HD
ENDBRANCH   1  12
BRANCH   1  14
ATOM     14  N   UNL     1       5.275   5.990  17.278  0.00  0.00    +0.000 NA
ATOM     15  C   UNL     1       5.767   5.616  18.602  0.00  0.00    +0.000 C 
ATOM     16  C   UNL     1       7.251   5.278  18.741  0.00  0.00    +0.000 C 
ATOM     17  C   UNL     1       7.810   4.525  17.550  0.00  0.00    +0.000 C 
ATOM     18  C   UNL     1       7.472   5.265  16.269  0.00  0.00    +0.000 C 
ATOM     19  C   UNL     1       5.967   5.504  16.074  0.00  0.00    +0.000 C 
BRANCH  19  20
ATOM     20  C   UNL     1       5.292   4.407  15.201  0.00  0.00    +0.000 C 
BRANCH  20  21
ATOM     21  N   UNL     1       6.214   3.545  14.456  0.00  0.00    +0.000 NA
ATOM     22  H   UNL     1       6.421   2.621  14.831  0.00  0.00    +0.000 HD
BRANCH  21  23
ATOM     23  S   UNL     1       6.115   3.601  12.773  0.00  0.00    +0.000 S 
ATOM     24  C   UNL     1       7.266   4.899  12.350  0.00  0.00    +0.000 C 
ATOM     25  O   UNL     1       6.631   2.355  12.251  0.00  0.00    +0.000 OA
ATOM     26  O   UNL     1       4.786   4.067  12.456  0.00  0.00    +0.000 OA
ENDBRANCH  21  23
ENDBRANCH  20  21
ENDBRANCH  19  20
ENDBRANCH   1  14
TORSDOF 5
ENDMDL
MODEL 5
REMARK VINA RESULT:      -6.9      2.456      5.252
REMARK  Name = 
REMARK  8 active torsions:
REMARK  status: ('A' for Active; 'I' for Inactive)
REMARK    1  A    between atoms: C_1  and  C_2
REMARK    2  A    between atoms: C_4  and  C_5
REMARK    3  A    between atoms: C_11  and  C_12
REMARK    4  A    between atoms: C_12  and  N_13
REMARK    5  A    between atoms: C_18  and  C_19
REMARK    6  A    between atoms: C_19  and  N_20
REMARK    7  A    between atoms: N_20  and  S_21
REMARK    8  A    between atoms: S_21  and  C_22
REMARK                            x       y       z     vdW  Elec       q    Type
REMARK                         _______ _______ _______ _____ _____    ______ ____
ROOT
ATOM      1  C   UNL     1       3.418   6.330  19.755  0.00  0.00    +0.000 C 
ENDROOT
BRANCH   1  12
ATOM      2  C   UNL     1       3.631   7.559  17.012  0.00  0.00    +0.000 C 
ATOM      3  C   UNL     1       2.742   8.145  18.078  0.00  0.00    +0.000 A 
ATOM      4  C   UNL     1       2.069   9.339  17.783  0.00  0.00    +0.000 A 
ATOM      5  C   UNL     1       1.181   9.942  18.682  0.00  0.00    +0.000 A 
ATOM      6  C   UNL     1       0.606  11.295  18.386  0.00  0.00    +0.000 C 
ATOM      7  C   UNL     1       0.873   9.199  19.833  0.00  0.00    +0.000 A 
ATOM      8  N   UNL     1      -0.050   9.458  20.825  0.00  0.00    +0.000 N 
ATOM      9  C   UNL     1      -0.053   8.454  21.748  0.00  0.00    +0.000 A 
ATOM     10  C   UNL     1       0.929   7.561  21.394  0.00  0.00    +0.000 A 
ATOM     11  C   UNL     1       1.524   8.014  20.172  0.00  0.00    +0.000 A 
ATOM     12  C   UNL     1       2.546   7.503  19.333  0.00  0.00    +0.000 A 
ATOM     13  H   UNL     1      -0.663  10.262  20.835  0.00  0.00    +0.000 HD
ENDBRANCH   1  12
BRANCH   1  14
ATOM     14  N   UNL     1       2.885   5.019  19.344  0.00  0.00    +0.000 NA
ATOM     15  C   UNL     1       1.889   5.097  18.278  0.00  0.00    +0.000 C 
ATOM     16  C   UNL     1       1.459   3.791  17.610  0.00  0.00    +0.000 C 
ATOM     17  C   UNL     1       2.594   2.802  17.435  0.00  0.00    +0.000 C 
ATOM     18  C   UNL     1       3.310   2.601  18.758  0.00  0.00    +0.000 C 
ATOM     19  C   UNL     1       3.844   3.905  19.373  0.00  0.00    +0.000 C 
BRANCH  19  20
ATOM     20  C   UNL     1       5.334   4.174  19.012  0.00  0.00    +0.000 C 
BRANCH  20  21
ATOM     21  N   UNL     1       5.591   4.479  17.602  0.00  0.00    +0.000 NA
ATOM     22  H   UNL     1       4.812   4.796  17.026  0.00  0.00    +0.000 HD
BRANCH  21  23
ATOM     23  S   UNL     1       7.063   5.218  17.240  0.00  0.00    +0.000 S 
ATOM     24  C   UNL     1       7.484   6.034  18.771  0.00  0.00    +0.000 C 
ATOM     25  O   UNL     1       8.041   4.180  17.000  0.00  0.00    +0.000 OA
ATOM     26  O   UNL     1       6.779   6.237  16.258  0.00  0.00    +0.000 OA
ENDBRANCH  21  23
ENDBRANCH  20  21
ENDBRANCH  19  20
ENDBRANCH   1  14
TORSDOF 5
ENDMDL
MODEL 6
REMARK VINA RESULT:      -6.8      3.358      6.317
REMARK  Name = 
REMARK  8 active torsions:
REMARK  status: ('A' for Active; 'I' for Inactive)
REMARK    1  A    between atoms: C_1  and  C_2
REMARK    2  A    between atoms: C_4  and  C_5
REMARK    3  A    between atoms: C_11  and  C_12
REMARK    4  A    between atoms: C_12  and  N_13
REMARK    5  A    between atoms: C_18  and  C_19
REMARK    6  A    between atoms: C_19  and  N_20
REMARK    7  A    between atoms: N_20  and  S_21
REMARK    8  A    between atoms: S_21  and  C_22
REMARK                            x       y       z     vdW  Elec       q    Type
REMARK                         _______ _______ _______ _____ _____    ______ ____
ROOT
ATOM      1  C   UNL     1       3.978   5.601  19.185  0.00  0.00    +0.000 C 
ENDROOT
BRANCH   1  12
ATOM      2  C   UNL     1       2.562   3.902  17.139  0.00  0.00    +0.000 C 
ATOM      3  C   UNL     1       3.954   4.427  16.908  0.00  0.00    +0.000 A 
ATOM      4  C   UNL     1       4.616   4.034  15.735  0.00  0.00    +0.000 A 
ATOM      5  C   UNL     1       5.890   4.502  15.399  0.00  0.00    +0.000 A 
ATOM      6  C   UNL     1       6.619   3.935  14.217  0.00  0.00    +0.000 C 
ATOM      7  C   UNL     1       6.408   5.519  16.218  0.00  0.00    +0.000 A 
ATOM      8  N   UNL     1       7.560   6.264  16.072  0.00  0.00    +0.000 N 
ATOM      9  C   UNL     1       7.668   7.177  17.081  0.00  0.00    +0.000 A 
ATOM     10  C   UNL     1       6.611   6.980  17.935  0.00  0.00    +0.000 A 
ATOM     11  C   UNL     1       5.792   5.934  17.398  0.00  0.00    +0.000 A 
ATOM     12  C   UNL     1       4.581   5.327  17.816  0.00  0.00    +0.000 A 
ATOM     13  H   UNL     1       8.205   6.167  15.300  0.00  0.00    +0.000 HD
ENDBRANCH   1  12
BRANCH   1  14
ATOM     14  N   UNL     1       3.293   6.902  19.280  0.00  0.00    +0.000 NA
ATOM     15  C   UNL     1       3.059   7.539  17.986  0.00  0.00    +0.000 C 
ATOM     16  C   UNL     1       2.143   8.762  17.951  0.00  0.00    +0.000 C 
ATOM     17  C   UNL     1       0.968   8.662  18.903  0.00  0.00    +0.000 C 
ATOM     18  C   UNL     1       1.462   8.312  20.295  0.00  0.00    +0.000 C 
ATOM     19  C   UNL     1       2.288   7.017  20.347  0.00  0.00    +0.000 C 
BRANCH  19  20
ATOM     20  C   UNL     1       1.433   5.773  20.723  0.00  0.00    +0.000 C 
BRANCH  20  21
ATOM     21  N   UNL     1       2.139   4.732  21.476  0.00  0.00    +0.000 NA
ATOM     22  H   UNL     1       2.347   4.904  22.459  0.00  0.00    +0.000 HD
BRANCH  21  23
ATOM     23  S   UNL     1       1.734   3.133  21.126  0.00  0.00    +0.000 S 
ATOM     24  C   UNL     1       3.266   2.463  20.499  0.00  0.00    +0.000 C 
ATOM     25  O   UNL     1       1.428   2.463  22.371  0.00  0.00    +0.000 OA
ATOM     26  O   UNL     1       0.791   3.179  20.034  0.00  0.00    +0.000 OA
ENDBRANCH  21  23
ENDBRANCH  20  21
ENDBRANCH  19  20
ENDBRANCH   1  14
TORSDOF 5
ENDMDL
MODEL 7
REMARK VINA RESULT:      -6.8      2.178      4.678
REMARK  Name = 
REMARK  8 active torsions:
REMARK  status: ('A' for Active; 'I' for Inactive)
REMARK    1  A    between atoms: C_1  and  C_2
REMARK    2  A    between atoms: C_4  and  C_5
REMARK    3  A    between atoms: C_11  and  C_12
REMARK    4  A    between atoms: C_12  and  N_13
REMARK    5  A    between atoms: C_18  and  C_19
REMARK    6  A    between atoms: C_19  and  N_20
REMARK    7  A    between atoms: N_20  and  S_21
REMARK    8  A    between atoms: S_21  and  C_22
REMARK                            x       y       z     vdW  Elec       q    Type
REMARK                         _______ _______ _______ _____ _____    ______ ____
ROOT
ATOM      1  C   UNL     1       3.117   5.983  18.240  0.00  0.00    +0.000 C 
ENDROOT
BRANCH   1  12
ATOM      2  C   UNL     1       2.382   5.129  21.034  0.00  0.00    +0.000 C 
ATOM      3  C   UNL     1       1.938   6.451  20.465  0.00  0.00    +0.000 A 
ATOM      4  C   UNL     1       1.094   7.251  21.251  0.00  0.00    +0.000 A 
ATOM      5  C   UNL     1       0.663   8.517  20.839  0.00  0.00    +0.000 A 
ATOM      6  C   UNL     1      -0.359   9.267  21.641  0.00  0.00    +0.000 C 
ATOM      7  C   UNL     1       1.253   9.017  19.667  0.00  0.00    +0.000 A 
ATOM      8  N   UNL     1       1.138  10.264  19.088  0.00  0.00    +0.000 N 
ATOM      9  C   UNL     1       1.913  10.343  17.968  0.00  0.00    +0.000 A 
ATOM     10  C   UNL     1       2.489   9.111  17.772  0.00  0.00    +0.000 A 
ATOM     11  C   UNL     1       2.088   8.256  18.850  0.00  0.00    +0.000 A 
ATOM     12  C   UNL     1       2.380   6.912  19.193  0.00  0.00    +0.000 A 
ATOM     13  H   UNL     1       0.586  11.019  19.470  0.00  0.00    +0.000 HD
ENDBRANCH   1  12
BRANCH   1  14
ATOM     14  N   UNL     1       3.010   4.559  18.600  0.00  0.00    +0.000 NA
ATOM     15  C   UNL     1       2.104   3.801  17.741  0.00  0.00    +0.000 C 
ATOM     16  C   UNL     1       2.109   2.278  17.869  0.00  0.00    +0.000 C 
ATOM     17  C   UNL     1       3.489   1.699  18.111  0.00  0.00    +0.000 C 
ATOM     18  C   UNL     1       4.147   2.411  19.279  0.00  0.00    +0.000 C 
ATOM     19  C   UNL     1       4.245   3.934  19.097  0.00  0.00    +0.000 C 
BRANCH  19  20
ATOM     20  C   UNL     1       5.615   4.383  18.511  0.00  0.00    +0.000 C 
BRANCH  20  21
ATOM     21  N   UNL     1       5.830   4.051  17.100  0.00  0.00    +0.000 NA
ATOM     22  H   UNL     1       5.159   3.437  16.639  0.00  0.00    +0.000 HD
BRANCH  21  23
ATOM     23  S   UNL     1       6.433   5.278  16.113  0.00  0.00    +0.000 S 
ATOM     24  C   UNL     1       7.031   6.478  17.293  0.00  0.00    +0.000 C 
ATOM     25  O   UNL     1       7.570   4.756  15.389  0.00  0.00    +0.000 OA
ATOM     26  O   UNL     1       5.297   5.854  15.435  0.00  0.00    +0.000 OA
ENDBRANCH  21  23
ENDBRANCH  20  21
ENDBRANCH  19  20
ENDBRANCH   1  14
TORSDOF 5
ENDMDL
MODEL 8
REMARK VINA RESULT:      -6.7      1.826      3.572
REMARK  Name = 
REMARK  8 active torsions:
REMARK  status: ('A' for Active; 'I' for Inactive)
REMARK    1  A    between atoms: C_1  and  C_2
REMARK    2  A    between atoms: C_4  and  C_5
REMARK    3  A    between atoms: C_11  and  C_12
REMARK    4  A    between atoms: C_12  and  N_13
REMARK    5  A    between atoms: C_18  and  C_19
REMARK    6  A    between atoms: C_19  and  N_20
REMARK    7  A    between atoms: N_20  and  S_21
REMARK    8  A    between atoms: S_21  and  C_22
REMARK                            x       y       z     vdW  Elec       q    Type
REMARK                         _______ _______ _______ _____ _____    ______ ____
ROOT
ATOM      1  C   UNL     1       3.315   5.825  18.357  0.00  0.00    +0.000 C 
ENDROOT
BRANCH   1  12
ATOM      2  C   UNL     1       2.424   4.862  21.070  0.00  0.00    +0.000 C 
ATOM      3  C   UNL     1       1.964   6.180  20.505  0.00  0.00    +0.000 A 
ATOM      4  C   UNL     1       1.033   6.921  21.249  0.00  0.00    +0.000 A 
ATOM      5  C   UNL     1       0.578   8.179  20.841  0.00  0.00    +0.000 A 
ATOM      6  C   UNL     1      -0.530   8.863  21.586  0.00  0.00    +0.000 C 
ATOM      7  C   UNL     1       1.226   8.737  19.726  0.00  0.00    +0.000 A 
ATOM      8  N   UNL     1       1.097   9.993  19.172  0.00  0.00    +0.000 N 
ATOM      9  C   UNL     1       1.944  10.137  18.112  0.00  0.00    +0.000 A 
ATOM     10  C   UNL     1       2.585   8.936  17.927  0.00  0.00    +0.000 A 
ATOM     11  C   UNL     1       2.148   8.035  18.951  0.00  0.00    +0.000 A 
ATOM     12  C   UNL     1       2.473   6.694  19.279  0.00  0.00    +0.000 A 
ATOM     13  H   UNL     1       0.487  10.714  19.534  0.00  0.00    +0.000 HD
ENDBRANCH   1  12
BRANCH   1  14
ATOM     14  N   UNL     1       4.753   6.141  18.396  0.00  0.00    +0.000 NA
ATOM     15  C   UNL     1       5.502   5.355  19.373  0.00  0.00    +0.000 C 
ATOM     16  C   UNL     1       7.028   5.425  19.324  0.00  0.00    +0.000 C 
ATOM     17  C   UNL     1       7.582   5.498  17.914  0.00  0.00    +0.000 C 
ATOM     18  C   UNL     1       6.896   6.616  17.150  0.00  0.00    +0.000 C 
ATOM     19  C   UNL     1       5.366   6.481  17.103  0.00  0.00    +0.000 C 
BRANCH  19  20
ATOM     20  C   UNL     1       4.864   5.771  15.813  0.00  0.00    +0.000 C 
BRANCH  20  21
ATOM     21  N   UNL     1       5.781   5.826  14.671  0.00  0.00    +0.000 NA
ATOM     22  H   UNL     1       6.265   6.703  14.482  0.00  0.00    +0.000 HD
BRANCH  21  23
ATOM     23  S   UNL     1       6.705   4.448  14.372  0.00  0.00    +0.000 S 
ATOM     24  C   UNL     1       6.014   3.830  12.845  0.00  0.00    +0.000 C 
ATOM     25  O   UNL     1       8.065   4.866  14.112  0.00  0.00    +0.000 OA
ATOM     26  O   UNL     1       6.385   3.505  15.416  0.00  0.00    +0.000 OA
ENDBRANCH  21  23
ENDBRANCH  20  21
ENDBRANCH  19  20
ENDBRANCH   1  14
TORSDOF 5
ENDMDL
MODEL 9
REMARK VINA RESULT:      -6.6      2.474      5.042
REMARK  Name = 
REMARK  8 active torsions:
REMARK  status: ('A' for Active; 'I' for Inactive)
REMARK    1  A    between atoms: C_1  and  C_2
REMARK    2  A    between atoms: C_4  and  C_5
REMARK    3  A    between atoms: C_11  and  C_12
REMARK    4  A    between atoms: C_12  and  N_13
REMARK    5  A    between atoms: C_18  and  C_19
REMARK    6  A    between atoms: C_19  and  N_20
REMARK    7  A    between atoms: N_20  and  S_21
REMARK    8  A    between atoms: S_21  and  C_22
REMARK                            x       y       z     vdW  Elec       q    Type
REMARK                         _______ _______ _______ _____ _____    ______ ____
ROOT
ATOM      1  C   UNL     1       2.744   5.890  18.252  0.00  0.00    +0.000 C 
ENDROOT
BRANCH   1  12
ATOM      2  C   UNL     1       2.153   5.166  21.117  0.00  0.00    +0.000 C 
ATOM      3  C   UNL     1       1.776   6.506  20.543  0.00  0.00    +0.000 A 
ATOM      4  C   UNL     1       1.061   7.391  21.364  0.00  0.00    +0.000 A 
ATOM      5  C   UNL     1       0.704   8.678  20.948  0.00  0.00    +0.000 A 
ATOM      6  C   UNL     1      -0.191   9.529  21.799  0.00  0.00    +0.000 C 
ATOM      7  C   UNL     1       1.243   9.100  19.721  0.00  0.00    +0.000 A 
ATOM      8  N   UNL     1       1.185  10.338  19.115  0.00  0.00    +0.000 N 
ATOM      9  C   UNL     1       1.878  10.327  17.940  0.00  0.00    +0.000 A 
ATOM     10  C   UNL     1       2.336   9.047  17.740  0.00  0.00    +0.000 A 
ATOM     11  C   UNL     1       1.950   8.253  18.868  0.00  0.00    +0.000 A 
ATOM     12  C   UNL     1       2.157   6.898  19.229  0.00  0.00    +0.000 A 
ATOM     13  H   UNL     1       0.726  11.145  19.514  0.00  0.00    +0.000 HD
ENDBRANCH   1  12
BRANCH   1  14
ATOM     14  N   UNL     1       2.679   4.498  18.729  0.00  0.00    +0.000 NA
ATOM     15  C   UNL     1       1.670   3.689  18.050  0.00  0.00    +0.000 C 
ATOM     16  C   UNL     1       1.687   2.180  18.290  0.00  0.00    +0.000 C 
ATOM     17  C   UNL     1       3.085   1.604  18.400  0.00  0.00    +0.000 C 
ATOM     18  C   UNL     1       3.886   2.392  19.421  0.00  0.00    +0.000 C 
ATOM     19  C   UNL     1       3.965   3.896  19.114  0.00  0.00    +0.000 C 
BRANCH  19  20
ATOM     20  C   UNL     1       5.251   4.283  18.329  0.00  0.00    +0.000 C 
BRANCH  20  21
ATOM     21  N   UNL     1       5.987   5.433  18.862  0.00  0.00    +0.000 NA
ATOM     22  H   UNL     1       5.728   5.788  19.782  0.00  0.00    +0.000 HD
BRANCH  21  23
ATOM     23  S   UNL     1       7.641   5.494  18.539  0.00  0.00    +0.000 S 
ATOM     24  C   UNL     1       7.898   7.208  18.106  0.00  0.00    +0.000 C 
ATOM     25  O   UNL     1       8.350   5.231  19.771  0.00  0.00    +0.000 OA
ATOM     26  O   UNL     1       7.855   4.701  17.352  0.00  0.00    +0.000 OA
ENDBRANCH  21  23
ENDBRANCH  20  21
ENDBRANCH  19  20
ENDBRANCH   1  14
TORSDOF 5
ENDMDL
