MODEL 1
REMARK VINA RESULT:      -7.9      0.000      0.000
REMARK  Name = 
REMARK  6 active torsions:
REMARK  status: ('A' for Active; 'I' for Inactive)
REMARK    1  A    between atoms: C_1  and  C_2
REMARK    2  A    between atoms: C_2  and  N_3
REMARK    3  A    between atoms: N_8  and  C_9
REMARK    4  A    between atoms: C_9  and  C_10
REMARK    5  A    between atoms: N_20  and  C_21
REMARK    6  A    between atoms: C_21  and  C_22
REMARK                            x       y       z     vdW  Elec       q    Type
REMARK                         _______ _______ _______ _____ _____    ______ ____
ROOT
ATOM      1  N   UNL     1       0.131  11.838  19.679  0.00  0.00    +0.000 N 
ATOM      2  C   UNL     1       0.508  10.514  19.874  0.00  0.00    +0.000 A 
ATOM      3  C   UNL     1       0.402   9.937  21.081  0.00  0.00    +0.000 A 
ATOM      4  C   UNL     1      -0.202  10.700  22.197  0.00  0.00    +0.000 A 
ATOM      5  O   UNL     1      -0.236  10.196  23.320  0.00  0.00    +0.000 OA
ATOM      6  N   UNL     1      -0.662  11.971  21.905  0.00  0.00    +0.000 N 
ATOM      7  C   UNL     1      -0.400  12.624  20.708  0.00  0.00    +0.000 A 
ATOM      8  O   UNL     1      -0.595  13.833  20.565  0.00  0.00    +0.000 OA
ATOM      9  C   UNL     1       0.911   8.547  21.391  0.00  0.00    +0.000 C 
ATOM     10  N   UNL     1       1.299   7.744  20.205  0.00  0.00    +0.000 NA
ATOM     11  C   UNL     1       2.014   8.583  19.237  0.00  0.00    +0.000 C 
ATOM     12  C   UNL     1       1.103   9.707  18.741  0.00  0.00    +0.000 C 
ENDROOT
BRANCH   1  14
ATOM     13  C   UNL     1       1.789  13.107  18.327  0.00  0.00    +0.000 C 
ATOM     14  C   UNL     1       0.386  12.514  18.399  0.00  0.00    +0.000 C 
ENDBRANCH   1  14
BRANCH   6  15
ATOM     15  C   UNL     1      -1.242  12.756  22.989  0.00  0.00    +0.000 C 
BRANCH  15  16
ATOM     16  C   UNL     1      -2.757  12.682  23.077  0.00  0.00    +0.000 A 
ATOM     17  C   UNL     1      -3.394  12.583  24.325  0.00  0.00    +0.000 A 
ATOM     18  C   UNL     1      -4.787  12.653  24.424  0.00  0.00    +0.000 A 
ATOM     19  C   UNL     1      -5.556  12.816  23.273  0.00  0.00    +0.000 A 
ATOM     20 BR   UNL     1      -7.432  12.994  23.417  0.00  0.00    +0.000 Br
ATOM     21  C   UNL     1      -4.944  12.871  22.022  0.00  0.00    +0.000 A 
ATOM     22  C   UNL     1      -3.550  12.797  21.924  0.00  0.00    +0.000 A 
ENDBRANCH  15  16
ENDBRANCH   6  15
BRANCH  10  23
ATOM     23  C   UNL     1       2.111   6.583  20.621  0.00  0.00    +0.000 C 
BRANCH  23  24
ATOM     24  C   UNL     1       1.781   5.296  19.888  0.00  0.00    +0.000 A 
ATOM     25  C   UNL     1       2.094   5.149  18.526  0.00  0.00    +0.000 A 
ATOM     26  C   UNL     1       1.804   3.960  17.852  0.00  0.00    +0.000 A 
ATOM     27  C   UNL     1       1.195   2.906  18.529  0.00  0.00    +0.000 A 
ATOM     28  C   UNL     1       0.865   3.041  19.875  0.00  0.00    +0.000 A 
ATOM     29  C   UNL     1       1.154   4.232  20.552  0.00  0.00    +0.000 A 
ENDBRANCH  23  24
ENDBRANCH  10  23
TORSDOF 5
ENDMDL
MODEL 2
REMARK VINA RESULT:      -7.7      3.888      6.004
REMARK  Name = 
REMARK  6 active torsions:
REMARK  status: ('A' for Active; 'I' for Inactive)
REMARK    1  A    between atoms: C_1  and  C_2
REMARK    2  A    between atoms: C_2  and  N_3
REMARK    3  A    between atoms: N_8  and  C_9
REMARK    4  A    between atoms: C_9  and  C_10
REMARK    5  A    between atoms: N_20  and  C_21
REMARK    6  A    between atoms: C_21  and  C_22
REMARK                            x       y       z     vdW  Elec       q    Type
REMARK                         _______ _______ _______ _____ _____    ______ ____
ROOT
ATOM      1  N   UNL     1       0.416   9.007  20.950  0.00  0.00    +0.000 N 
ATOM      2  C   UNL     1       1.239   8.049  20.369  0.00  0.00    +0.000 A 
ATOM      3  C   UNL     1       1.842   8.279  19.193  0.00  0.00    +0.000 A 
ATOM      4  C   UNL     1       1.690   9.604  18.549  0.00  0.00    +0.000 A 
ATOM      5  O   UNL     1       2.186   9.793  17.438  0.00  0.00    +0.000 OA
ATOM      6  N   UNL     1       0.952  10.550  19.237  0.00  0.00    +0.000 N 
ATOM      7  C   UNL     1       0.194  10.258  20.363  0.00  0.00    +0.000 A 
ATOM      8  O   UNL     1      -0.648  11.042  20.808  0.00  0.00    +0.000 OA
ATOM      9  C   UNL     1       2.646   7.238  18.446  0.00  0.00    +0.000 C 
ATOM     10  N   UNL     1       2.957   6.013  19.224  0.00  0.00    +0.000 NA
ATOM     11  C   UNL     1       1.791   5.605  20.016  0.00  0.00    +0.000 C 
ATOM     12  C   UNL     1       1.431   6.699  21.024  0.00  0.00    +0.000 C 
ENDROOT
BRANCH   1  14
ATOM     13  C   UNL     1       0.169   9.428  23.389  0.00  0.00    +0.000 C 
ATOM     14  C   UNL     1      -0.362   8.700  22.159  0.00  0.00    +0.000 C 
ENDBRANCH   1  14
BRANCH   6  15
ATOM     15  C   UNL     1       0.766  11.857  18.618  0.00  0.00    +0.000 C 
BRANCH  15  16
ATOM     16  C   UNL     1       1.841  12.874  18.962  0.00  0.00    +0.000 A 
ATOM     17  C   UNL     1       2.631  13.444  17.950  0.00  0.00    +0.000 A 
ATOM     18  C   UNL     1       3.527  14.478  18.240  0.00  0.00    +0.000 A 
ATOM     19  C   UNL     1       3.644  14.947  19.547  0.00  0.00    +0.000 A 
ATOM     20 BR   UNL     1       4.793  16.400  19.922  0.00  0.00    +0.000 Br
ATOM     21  C   UNL     1       2.901  14.363  20.572  0.00  0.00    +0.000 A 
ATOM     22  C   UNL     1       2.008  13.326  20.281  0.00  0.00    +0.000 A 
ENDBRANCH  15  16
ENDBRANCH   6  15
BRANCH  10  23
ATOM     23  C   UNL     1       3.402   4.935  18.318  0.00  0.00    +0.000 C 
BRANCH  23  24
ATOM     24  C   UNL     1       4.899   4.902  18.075  0.00  0.00    +0.000 A 
ATOM     25  C   UNL     1       5.794   5.338  19.068  0.00  0.00    +0.000 A 
ATOM     26  C   UNL     1       7.174   5.295  18.852  0.00  0.00    +0.000 A 
ATOM     27  C   UNL     1       7.676   4.823  17.642  0.00  0.00    +0.000 A 
ATOM     28  C   UNL     1       6.802   4.401  16.643  0.00  0.00    +0.000 A 
ATOM     29  C   UNL     1       5.419   4.443  16.857  0.00  0.00    +0.000 A 
ENDBRANCH  23  24
ENDBRANCH  10  23
TORSDOF 5
ENDMDL
MODEL 3
REMARK VINA RESULT:      -7.7      3.923      5.918
REMARK  Name = 
REMARK  6 active torsions:
REMARK  status: ('A' for Active; 'I' for Inactive)
REMARK    1  A    between atoms: C_1  and  C_2
REMARK    2  A    between atoms: C_2  and  N_3
REMARK    3  A    between atoms: N_8  and  C_9
REMARK    4  A    between atoms: C_9  and  C_10
REMARK    5  A    between atoms: N_20  and  C_21
REMARK    6  A    between atoms: C_21  and  C_22
REMARK                            x       y       z     vdW  Elec       q    Type
REMARK                         _______ _______ _______ _____ _____    ______ ____
ROOT
ATOM      1  N   UNL     1       0.395   9.090  20.950  0.00  0.00    +0.000 N 
ATOM      2  C   UNL     1       1.228   8.163  20.334  0.00  0.00    +0.000 A 
ATOM      3  C   UNL     1       1.811   8.435  19.156  0.00  0.00    +0.000 A 
ATOM      4  C   UNL     1       1.626   9.773  18.549  0.00  0.00    +0.000 A 
ATOM      5  O   UNL     1       2.104  10.000  17.437  0.00  0.00    +0.000 OA
ATOM      6  N   UNL     1       0.881  10.687  19.272  0.00  0.00    +0.000 N 
ATOM      7  C   UNL     1       0.144  10.353  20.400  0.00  0.00    +0.000 A 
ATOM      8  O   UNL     1      -0.706  11.109  20.876  0.00  0.00    +0.000 OA
ATOM      9  C   UNL     1       2.623   7.428  18.372  0.00  0.00    +0.000 C 
ATOM     10  N   UNL     1       2.966   6.189  19.114  0.00  0.00    +0.000 NA
ATOM     11  C   UNL     1       1.819   5.740  19.909  0.00  0.00    +0.000 C 
ATOM     12  C   UNL     1       1.452   6.800  20.950  0.00  0.00    +0.000 C 
ENDROOT
BRANCH   1  14
ATOM     13  C   UNL     1       0.167   9.451  23.401  0.00  0.00    +0.000 C 
ATOM     14  C   UNL     1      -0.361   8.738  22.161  0.00  0.00    +0.000 C 
ENDBRANCH   1  14
BRANCH   6  15
ATOM     15  C   UNL     1       0.663  12.006  18.690  0.00  0.00    +0.000 C 
BRANCH  15  16
ATOM     16  C   UNL     1       1.743  13.023  19.017  0.00  0.00    +0.000 A 
ATOM     17  C   UNL     1       1.944  13.448  20.340  0.00  0.00    +0.000 A 
ATOM     18  C   UNL     1       3.021  14.277  20.669  0.00  0.00    +0.000 A 
ATOM     19  C   UNL     1       3.905  14.693  19.674  0.00  0.00    +0.000 A 
ATOM     20 BR   UNL     1       5.407  15.744  20.135  0.00  0.00    +0.000 Br
ATOM     21  C   UNL     1       3.695  14.318  18.349  0.00  0.00    +0.000 A 
ATOM     22  C   UNL     1       2.614  13.492  18.020  0.00  0.00    +0.000 A 
ENDBRANCH  15  16
ENDBRANCH   6  15
BRANCH  10  23
ATOM     23  C   UNL     1       3.418   5.143  18.174  0.00  0.00    +0.000 C 
BRANCH  23  24
ATOM     24  C   UNL     1       4.925   5.033  18.041  0.00  0.00    +0.000 A 
ATOM     25  C   UNL     1       5.504   4.539  16.860  0.00  0.00    +0.000 A 
ATOM     26  C   UNL     1       6.893   4.449  16.730  0.00  0.00    +0.000 A 
ATOM     27  C   UNL     1       7.718   4.847  17.778  0.00  0.00    +0.000 A 
ATOM     28  C   UNL     1       7.159   5.325  18.961  0.00  0.00    +0.000 A 
ATOM     29  C   UNL     1       5.768   5.416  19.094  0.00  0.00    +0.000 A 
ENDBRANCH  23  24
ENDBRANCH  10  23
TORSDOF 5
ENDMDL
MODEL 4
REMARK VINA RESULT:      -7.7      0.259      1.289
REMARK  Name = 
REMARK  6 active torsions:
REMARK  status: ('A' for Active; 'I' for Inactive)
REMARK    1  A    between atoms: C_1  and  C_2
REMARK    2  A    between atoms: C_2  and  N_3
REMARK    3  A    between atoms: N_8  and  C_9
REMARK    4  A    between atoms: C_9  and  C_10
REMARK    5  A    between atoms: N_20  and  C_21
REMARK    6  A    between atoms: C_21  and  C_22
REMARK                            x       y       z     vdW  Elec       q    Type
REMARK                         _______ _______ _______ _____ _____    ______ ____
ROOT
ATOM      1  N   UNL     1       0.243  11.784  19.796  0.00  0.00    +0.000 N 
ATOM      2  C   UNL     1       0.553  10.444  20.001  0.00  0.00    +0.000 A 
ATOM      3  C   UNL     1       0.364   9.867  21.197  0.00  0.00    +0.000 A 
ATOM      4  C   UNL     1      -0.262  10.650  22.288  0.00  0.00    +0.000 A 
ATOM      5  O   UNL     1      -0.373  10.143  23.404  0.00  0.00    +0.000 OA
ATOM      6  N   UNL     1      -0.653  11.941  21.981  0.00  0.00    +0.000 N 
ATOM      7  C   UNL     1      -0.305  12.588  20.803  0.00  0.00    +0.000 A 
ATOM      8  O   UNL     1      -0.440  13.805  20.658  0.00  0.00    +0.000 OA
ATOM      9  C   UNL     1       0.796   8.455  21.523  0.00  0.00    +0.000 C 
ATOM     10  N   UNL     1       1.209   7.642  20.352  0.00  0.00    +0.000 NA
ATOM     11  C   UNL     1       2.005   8.453  19.426  0.00  0.00    +0.000 C 
ATOM     12  C   UNL     1       1.168   9.618  18.893  0.00  0.00    +0.000 C 
ENDROOT
BRANCH   1  14
ATOM     13  C   UNL     1       2.006  13.016  18.547  0.00  0.00    +0.000 C 
ATOM     14  C   UNL     1       0.589  12.454  18.534  0.00  0.00    +0.000 C 
ENDBRANCH   1  14
BRANCH   6  15
ATOM     15  C   UNL     1      -1.252  12.745  23.041  0.00  0.00    +0.000 C 
BRANCH  15  16
ATOM     16  C   UNL     1      -2.768  12.828  22.986  0.00  0.00    +0.000 A 
ATOM     17  C   UNL     1      -3.439  12.786  21.753  0.00  0.00    +0.000 A 
ATOM     18  C   UNL     1      -4.835  12.724  21.700  0.00  0.00    +0.000 A 
ATOM     19  C   UNL     1      -5.572  12.709  22.883  0.00  0.00    +0.000 A 
ATOM     20 BR   UNL     1      -7.454  12.541  22.811  0.00  0.00    +0.000 Br
ATOM     21  C   UNL     1      -4.926  12.795  24.114  0.00  0.00    +0.000 A 
ATOM     22  C   UNL     1      -3.529  12.861  24.165  0.00  0.00    +0.000 A 
ENDBRANCH  15  16
ENDBRANCH   6  15
BRANCH  10  23
ATOM     23  C   UNL     1       1.949   6.445  20.800  0.00  0.00    +0.000 C 
BRANCH  23  24
ATOM     24  C   UNL     1       1.715   5.212  19.948  0.00  0.00    +0.000 A 
ATOM     25  C   UNL     1       1.050   4.092  20.476  0.00  0.00    +0.000 A 
ATOM     26  C   UNL     1       0.821   2.961  19.689  0.00  0.00    +0.000 A 
ATOM     27  C   UNL     1       1.258   2.932  18.367  0.00  0.00    +0.000 A 
ATOM     28  C   UNL     1       1.932   4.027  17.832  0.00  0.00    +0.000 A 
ATOM     29  C   UNL     1       2.162   5.162  18.619  0.00  0.00    +0.000 A 
ENDBRANCH  23  24
ENDBRANCH  10  23
TORSDOF 5
ENDMDL
MODEL 5
REMARK VINA RESULT:      -7.6      5.475     10.522
REMARK  Name = 
REMARK  6 active torsions:
REMARK  status: ('A' for Active; 'I' for Inactive)
REMARK    1  A    between atoms: C_1  and  C_2
REMARK    2  A    between atoms: C_2  and  N_3
REMARK    3  A    between atoms: N_8  and  C_9
REMARK    4  A    between atoms: C_9  and  C_10
REMARK    5  A    between atoms: N_20  and  C_21
REMARK    6  A    between atoms: C_21  and  C_22
REMARK                            x       y       z     vdW  Elec       q    Type
REMARK                         _______ _______ _______ _____ _____    ______ ____
ROOT
ATOM      1  N   UNL     1       3.141   4.785  20.075  0.00  0.00    +0.000 N 
ATOM      2  C   UNL     1       2.607   6.012  19.699  0.00  0.00    +0.000 A 
ATOM      3  C   UNL     1       3.253   6.810  18.836  0.00  0.00    +0.000 A 
ATOM      4  C   UNL     1       4.511   6.336  18.214  0.00  0.00    +0.000 A 
ATOM      5  O   UNL     1       5.140   7.094  17.476  0.00  0.00    +0.000 OA
ATOM      6  N   UNL     1       4.925   5.058  18.544  0.00  0.00    +0.000 N 
ATOM      7  C   UNL     1       4.351   4.305  19.560  0.00  0.00    +0.000 A 
ATOM      8  O   UNL     1       4.887   3.288  20.006  0.00  0.00    +0.000 OA
ATOM      9  C   UNL     1       2.794   8.207  18.483  0.00  0.00    +0.000 C 
ATOM     10  N   UNL     1       1.427   8.552  18.948  0.00  0.00    +0.000 NA
ATOM     11  C   UNL     1       1.205   8.032  20.301  0.00  0.00    +0.000 C 
ATOM     12  C   UNL     1       1.309   6.504  20.301  0.00  0.00    +0.000 C 
ENDROOT
BRANCH   1  14
ATOM     13  C   UNL     1       1.499   2.984  20.576  0.00  0.00    +0.000 C 
ATOM     14  C   UNL     1       2.511   3.980  21.132  0.00  0.00    +0.000 C 
ENDBRANCH   1  14
BRANCH   6  15
ATOM     15  C   UNL     1       6.172   4.571  17.966  0.00  0.00    +0.000 C 
BRANCH  15  16
ATOM     16  C   UNL     1       6.150   4.429  16.453  0.00  0.00    +0.000 A 
ATOM     17  C   UNL     1       7.190   4.959  15.673  0.00  0.00    +0.000 A 
ATOM     18  C   UNL     1       7.248   4.715  14.297  0.00  0.00    +0.000 A 
ATOM     19  C   UNL     1       6.260   3.942  13.689  0.00  0.00    +0.000 A 
ATOM     20 BR   UNL     1       6.385   3.545  11.845  0.00  0.00    +0.000 Br
ATOM     21  C   UNL     1       5.196   3.446  14.439  0.00  0.00    +0.000 A 
ATOM     22  C   UNL     1       5.138   3.694  15.816  0.00  0.00    +0.000 A 
ENDBRANCH  15  16
ENDBRANCH   6  15
BRANCH  10  23
ATOM     23  C   UNL     1       1.224  10.014  18.888  0.00  0.00    +0.000 C 
BRANCH  23  24
ATOM     24  C   UNL     1      -0.216  10.434  18.666  0.00  0.00    +0.000 A 
ATOM     25  C   UNL     1      -0.989   9.834  17.657  0.00  0.00    +0.000 A 
ATOM     26  C   UNL     1      -2.320  10.210  17.460  0.00  0.00    +0.000 A 
ATOM     27  C   UNL     1      -2.894  11.192  18.263  0.00  0.00    +0.000 A 
ATOM     28  C   UNL     1      -2.137  11.807  19.258  0.00  0.00    +0.000 A 
ATOM     29  C   UNL     1      -0.803  11.432  19.457  0.00  0.00    +0.000 A 
ENDBRANCH  23  24
ENDBRANCH  10  23
TORSDOF 5
ENDMDL
MODEL 6
REMARK VINA RESULT:      -7.5      3.877      5.920
REMARK  Name = 
REMARK  6 active torsions:
REMARK  status: ('A' for Active; 'I' for Inactive)
REMARK    1  A    between atoms: C_1  and  C_2
REMARK    2  A    between atoms: C_2  and  N_3
REMARK    3  A    between atoms: N_8  and  C_9
REMARK    4  A    between atoms: C_9  and  C_10
REMARK    5  A    between atoms: N_20  and  C_21
REMARK    6  A    between atoms: C_21  and  C_22
REMARK                            x       y       z     vdW  Elec       q    Type
REMARK                         _______ _______ _______ _____ _____    ______ ____
ROOT
ATOM      1  N   UNL     1       0.298   9.117  21.001  0.00  0.00    +0.000 N 
ATOM      2  C   UNL     1       1.149   8.168  20.446  0.00  0.00    +0.000 A 
ATOM      3  C   UNL     1       1.751   8.387  19.267  0.00  0.00    +0.000 A 
ATOM      4  C   UNL     1       1.568   9.693  18.593  0.00  0.00    +0.000 A 
ATOM      5  O   UNL     1       2.064   9.869  17.480  0.00  0.00    +0.000 OA
ATOM      6  N   UNL     1       0.803  10.634  19.256  0.00  0.00    +0.000 N 
ATOM      7  C   UNL     1       0.047  10.349  20.385  0.00  0.00    +0.000 A 
ATOM      8  O   UNL     1      -0.818  11.120  20.809  0.00  0.00    +0.000 OA
ATOM      9  C   UNL     1       2.585   7.351  18.548  0.00  0.00    +0.000 C 
ATOM     10  N   UNL     1       2.924   6.152  19.355  0.00  0.00    +0.000 NA
ATOM     11  C   UNL     1       1.766   5.732  20.150  0.00  0.00    +0.000 C 
ATOM     12  C   UNL     1       1.372   6.838  21.131  0.00  0.00    +0.000 C 
ENDROOT
BRANCH   1  14
ATOM     13  C   UNL     1       0.122   9.461  23.458  0.00  0.00    +0.000 C 
ATOM     14  C   UNL     1      -0.478   8.817  22.214  0.00  0.00    +0.000 C 
ENDBRANCH   1  14
BRANCH   6  15
ATOM     15  C   UNL     1       0.585  11.922  18.607  0.00  0.00    +0.000 C 
BRANCH  15  16
ATOM     16  C   UNL     1       1.628  12.976  18.939  0.00  0.00    +0.000 A 
ATOM     17  C   UNL     1       1.732  13.490  20.242  0.00  0.00    +0.000 A 
ATOM     18  C   UNL     1       2.774  14.356  20.588  0.00  0.00    +0.000 A 
ATOM     19  C   UNL     1       3.718  14.721  19.630  0.00  0.00    +0.000 A 
ATOM     20 BR   UNL     1       5.172  15.826  20.121  0.00  0.00    +0.000 Br
ATOM     21  C   UNL     1       3.605  14.258  18.321  0.00  0.00    +0.000 A 
ATOM     22  C   UNL     1       2.560  13.394  17.975  0.00  0.00    +0.000 A 
ENDBRANCH  15  16
ENDBRANCH   6  15
BRANCH  10  23
ATOM     23  C   UNL     1       3.401   5.066  18.475  0.00  0.00    +0.000 C 
BRANCH  23  24
ATOM     24  C   UNL     1       4.766   5.314  17.862  0.00  0.00    +0.000 A 
ATOM     25  C   UNL     1       5.885   5.553  18.679  0.00  0.00    +0.000 A 
ATOM     26  C   UNL     1       7.146   5.767  18.117  0.00  0.00    +0.000 A 
ATOM     27  C   UNL     1       7.304   5.751  16.734  0.00  0.00    +0.000 A 
ATOM     28  C   UNL     1       6.203   5.531  15.909  0.00  0.00    +0.000 A 
ATOM     29  C   UNL     1       4.939   5.315  16.470  0.00  0.00    +0.000 A 
ENDBRANCH  23  24
ENDBRANCH  10  23
TORSDOF 5
ENDMDL
MODEL 7
REMARK VINA RESULT:      -7.5      0.569      1.187
REMARK  Name = 
REMARK  6 active torsions:
REMARK  status: ('A' for Active; 'I' for Inactive)
REMARK    1  A    between atoms: C_1  and  C_2
REMARK    2  A    between atoms: C_2  and  N_3
REMARK    3  A    between atoms: N_8  and  C_9
REMARK    4  A    between atoms: C_9  and  C_10
REMARK    5  A    between atoms: N_20  and  C_21
REMARK    6  A    between atoms: C_21  and  C_22
REMARK                            x       y       z     vdW  Elec       q    Type
REMARK                         _______ _______ _______ _____ _____    ______ ____
ROOT
ATOM      1  N   UNL     1      -0.457  11.860  19.675  0.00  0.00    +0.000 N 
ATOM      2  C   UNL     1       0.088  10.592  19.838  0.00  0.00    +0.000 A 
ATOM      3  C   UNL     1       0.212  10.045  21.057  0.00  0.00    +0.000 A 
ATOM      4  C   UNL     1      -0.315  10.773  22.234  0.00  0.00    +0.000 A 
ATOM      5  O   UNL     1      -0.140  10.304  23.358  0.00  0.00    +0.000 OA
ATOM      6  N   UNL     1      -0.948  11.977  21.988  0.00  0.00    +0.000 N 
ATOM      7  C   UNL     1      -0.926  12.617  20.755  0.00  0.00    +0.000 A 
ATOM      8  O   UNL     1      -1.271  13.793  20.620  0.00  0.00    +0.000 OA
ATOM      9  C   UNL     1       0.909   8.728  21.316  0.00  0.00    +0.000 C 
ATOM     10  N   UNL     1       1.219   7.935  20.101  0.00  0.00    +0.000 NA
ATOM     11  C   UNL     1       1.697   8.814  19.029  0.00  0.00    +0.000 C 
ATOM     12  C   UNL     1       0.608   9.818  18.646  0.00  0.00    +0.000 C 
ENDROOT
BRANCH   1  14
ATOM     13  C   UNL     1      -1.656  12.119  17.512  0.00  0.00    +0.000 C 
ATOM     14  C   UNL     1      -0.455  12.520  18.361  0.00  0.00    +0.000 C 
ENDBRANCH   1  14
BRANCH   6  15
ATOM     15  C   UNL     1      -1.458  12.729  23.129  0.00  0.00    +0.000 C 
BRANCH  15  16
ATOM     16  C   UNL     1      -2.974  12.802  23.206  0.00  0.00    +0.000 A 
ATOM     17  C   UNL     1      -3.740  12.946  22.039  0.00  0.00    +0.000 A 
ATOM     18  C   UNL     1      -5.136  12.877  22.087  0.00  0.00    +0.000 A 
ATOM     19  C   UNL     1      -5.778  12.668  23.307  0.00  0.00    +0.000 A 
ATOM     20 BR   UNL     1      -7.659  12.491  23.357  0.00  0.00    +0.000 Br
ATOM     21  C   UNL     1      -5.036  12.567  24.482  0.00  0.00    +0.000 A 
ATOM     22  C   UNL     1      -3.639  12.641  24.433  0.00  0.00    +0.000 A 
ENDBRANCH  15  16
ENDBRANCH   6  15
BRANCH  10  23
ATOM     23  C   UNL     1       2.203   6.881  20.419  0.00  0.00    +0.000 C 
BRANCH  23  24
ATOM     24  C   UNL     1       1.891   5.529  19.805  0.00  0.00    +0.000 A 
ATOM     25  C   UNL     1       2.239   5.252  18.472  0.00  0.00    +0.000 A 
ATOM     26  C   UNL     1       1.965   4.003  17.909  0.00  0.00    +0.000 A 
ATOM     27  C   UNL     1       1.337   3.019  18.667  0.00  0.00    +0.000 A 
ATOM     28  C   UNL     1       0.972   3.282  19.985  0.00  0.00    +0.000 A 
ATOM     29  C   UNL     1       1.246   4.533  20.552  0.00  0.00    +0.000 A 
ENDBRANCH  23  24
ENDBRANCH  10  23
TORSDOF 5
ENDMDL
MODEL 8
REMARK VINA RESULT:      -7.4      3.944      5.620
REMARK  Name = 
REMARK  6 active torsions:
REMARK  status: ('A' for Active; 'I' for Inactive)
REMARK    1  A    between atoms: C_1  and  C_2
REMARK    2  A    between atoms: C_2  and  N_3
REMARK    3  A    between atoms: N_8  and  C_9
REMARK    4  A    between atoms: C_9  and  C_10
REMARK    5  A    between atoms: N_20  and  C_21
REMARK    6  A    between atoms: C_21  and  C_22
REMARK                            x       y       z     vdW  Elec       q    Type
REMARK                         _______ _______ _______ _____ _____    ______ ____
ROOT
ATOM      1  N   UNL     1       0.490   9.296  20.733  0.00  0.00    +0.000 N 
ATOM      2  C   UNL     1       1.360   8.454  20.049  0.00  0.00    +0.000 A 
ATOM      3  C   UNL     1       1.966   8.856  18.922  0.00  0.00    +0.000 A 
ATOM      4  C   UNL     1       1.766  10.246  18.449  0.00  0.00    +0.000 A 
ATOM      5  O   UNL     1       2.266  10.594  17.379  0.00  0.00    +0.000 OA
ATOM      6  N   UNL     1       0.981  11.065  19.239  0.00  0.00    +0.000 N 
ATOM      7  C   UNL     1       0.223  10.602  20.306  0.00  0.00    +0.000 A 
ATOM      8  O   UNL     1      -0.657  11.288  20.832  0.00  0.00    +0.000 OA
ATOM      9  C   UNL     1       2.822   7.952  18.063  0.00  0.00    +0.000 C 
ATOM     10  N   UNL     1       3.175   6.651  18.684  0.00  0.00    +0.000 NA
ATOM     11  C   UNL     1       2.019   6.099  19.397  0.00  0.00    +0.000 C 
ATOM     12  C   UNL     1       1.601   7.040  20.530  0.00  0.00    +0.000 C 
ENDROOT
BRANCH   1  14
ATOM     13  C   UNL     1       0.194   9.397  23.200  0.00  0.00    +0.000 C 
ATOM     14  C   UNL     1      -0.288   8.806  21.880  0.00  0.00    +0.000 C 
ENDBRANCH   1  14
BRANCH   6  15
ATOM     15  C   UNL     1       0.746  12.432  18.788  0.00  0.00    +0.000 C 
BRANCH  15  16
ATOM     16  C   UNL     1       1.872  13.401  19.107  0.00  0.00    +0.000 A 
ATOM     17  C   UNL     1       2.292  13.592  20.434  0.00  0.00    +0.000 A 
ATOM     18  C   UNL     1       3.414  14.375  20.723  0.00  0.00    +0.000 A 
ATOM     19  C   UNL     1       4.124  14.978  19.685  0.00  0.00    +0.000 A 
ATOM     20 BR   UNL     1       5.688  15.966  20.071  0.00  0.00    +0.000 Br
ATOM     21  C   UNL     1       3.696  14.836  18.367  0.00  0.00    +0.000 A 
ATOM     22  C   UNL     1       2.570  14.055  18.079  0.00  0.00    +0.000 A 
ENDBRANCH  15  16
ENDBRANCH   6  15
BRANCH  10  23
ATOM     23  C   UNL     1       3.675   5.717  17.656  0.00  0.00    +0.000 C 
BRANCH  23  24
ATOM     24  C   UNL     1       3.584   4.254  18.045  0.00  0.00    +0.000 A 
ATOM     25  C   UNL     1       4.363   3.744  19.098  0.00  0.00    +0.000 A 
ATOM     26  C   UNL     1       4.270   2.400  19.468  0.00  0.00    +0.000 A 
ATOM     27  C   UNL     1       3.403   1.548  18.789  0.00  0.00    +0.000 A 
ATOM     28  C   UNL     1       2.634   2.034  17.734  0.00  0.00    +0.000 A 
ATOM     29  C   UNL     1       2.725   3.380  17.362  0.00  0.00    +0.000 A 
ENDBRANCH  23  24
ENDBRANCH  10  23
TORSDOF 5
ENDMDL
MODEL 9
REMARK VINA RESULT:      -7.3      0.712      1.135
REMARK  Name = 
REMARK  6 active torsions:
REMARK  status: ('A' for Active; 'I' for Inactive)
REMARK    1  A    between atoms: C_1  and  C_2
REMARK    2  A    between atoms: C_2  and  N_3
REMARK    3  A    between atoms: N_8  and  C_9
REMARK    4  A    between atoms: C_9  and  C_10
REMARK    5  A    between atoms: N_20  and  C_21
REMARK    6  A    between atoms: C_21  and  C_22
REMARK                            x       y       z     vdW  Elec       q    Type
REMARK                         _______ _______ _______ _____ _____    ______ ____
ROOT
ATOM      1  N   UNL     1       0.223  11.737  19.817  0.00  0.00    +0.000 N 
ATOM      2  C   UNL     1       0.527  10.394  20.006  0.00  0.00    +0.000 A 
ATOM      3  C   UNL     1       0.323   9.800  21.191  0.00  0.00    +0.000 A 
ATOM      4  C   UNL     1      -0.312  10.569  22.286  0.00  0.00    +0.000 A 
ATOM      5  O   UNL     1      -0.437  10.046  23.394  0.00  0.00    +0.000 OA
ATOM      6  N   UNL     1      -0.696  11.865  21.995  0.00  0.00    +0.000 N 
ATOM      7  C   UNL     1      -0.333  12.528  20.830  0.00  0.00    +0.000 A 
ATOM      8  O   UNL     1      -0.463  13.747  20.701  0.00  0.00    +0.000 OA
ATOM      9  C   UNL     1       0.747   8.382  21.501  0.00  0.00    +0.000 C 
ATOM     10  N   UNL     1       1.170   7.584  20.323  0.00  0.00    +0.000 NA
ATOM     11  C   UNL     1       1.979   8.406  19.417  0.00  0.00    +0.000 C 
ATOM     12  C   UNL     1       1.151   9.582  18.892  0.00  0.00    +0.000 C 
ENDROOT
BRANCH   1  14
ATOM     13  C   UNL     1       2.020  12.938  18.587  0.00  0.00    +0.000 C 
ATOM     14  C   UNL     1       0.585  12.425  18.569  0.00  0.00    +0.000 C 
ENDBRANCH   1  14
BRANCH   6  15
ATOM     15  C   UNL     1      -1.303  12.655  23.059  0.00  0.00    +0.000 C 
BRANCH  15  16
ATOM     16  C   UNL     1      -2.822  12.613  23.084  0.00  0.00    +0.000 A 
ATOM     17  C   UNL     1      -3.511  12.513  24.304  0.00  0.00    +0.000 A 
ATOM     18  C   UNL     1      -4.906  12.612  24.347  0.00  0.00    +0.000 A 
ATOM     19  C   UNL     1      -5.623  12.806  23.167  0.00  0.00    +0.000 A 
ATOM     20 BR   UNL     1      -7.500  13.022  23.237  0.00  0.00    +0.000 Br
ATOM     21  C   UNL     1      -4.960  12.862  21.944  0.00  0.00    +0.000 A 
ATOM     22  C   UNL     1      -3.564  12.760  21.902  0.00  0.00    +0.000 A 
ENDBRANCH  15  16
ENDBRANCH   6  15
BRANCH  10  23
ATOM     23  C   UNL     1       1.901   6.378  20.761  0.00  0.00    +0.000 C 
BRANCH  23  24
ATOM     24  C   UNL     1       2.473   5.549  19.627  0.00  0.00    +0.000 A 
ATOM     25  C   UNL     1       1.624   4.844  18.757  0.00  0.00    +0.000 A 
ATOM     26  C   UNL     1       2.147   4.091  17.703  0.00  0.00    +0.000 A 
ATOM     27  C   UNL     1       3.524   4.029  17.508  0.00  0.00    +0.000 A 
ATOM     28  C   UNL     1       4.381   4.710  18.369  0.00  0.00    +0.000 A 
ATOM     29  C   UNL     1       3.859   5.465  19.426  0.00  0.00    +0.000 A 
ENDBRANCH  23  24
ENDBRANCH  10  23
TORSDOF 5
ENDMDL
