MODEL 1
REMARK VINA RESULT:      -7.5      0.000      0.000
REMARK  Name = 
REMARK  8 active torsions:
REMARK  status: ('A' for Active; 'I' for Inactive)
REMARK    1  A    between atoms: C_1  and  C_2
REMARK    2  A    between atoms: C_2  and  C_3
REMARK    3  A    between atoms: C_2  and  N_4
REMARK    4  A    between atoms: N_4  and  N_5
REMARK    5  A    between atoms: N_4  and  C_18
REMARK    6  A    between atoms: C_6  and  C_8
REMARK    7  A    between atoms: C_18  and  C_19
REMARK    8  A    between atoms: C_18  and  C_20
REMARK                            x       y       z     vdW  Elec       q    Type
REMARK                         _______ _______ _______ _____ _____    ______ ____
ROOT
ATOM      1  N   UNL     1       5.035   5.820  17.385  0.00  0.00    +0.000 N 
ATOM      2  C   UNL     1       3.852   6.550  17.579  0.00  0.00    +0.000 C 
ATOM      3  O   UNL     1       3.548   7.556  16.946  0.00  0.00    +0.000 OA
ATOM      4  H   UNL     1       5.263   5.037  17.986  0.00  0.00    +0.000 HD
ENDROOT
BRANCH   2   5
ATOM      5  C   UNL     1       2.925   6.010  18.631  0.00  0.00    +0.000 A 
ATOM      6  C   UNL     1       2.549   6.875  19.678  0.00  0.00    +0.000 A 
ATOM      7  C   UNL     1       1.700   6.442  20.683  0.00  0.00    +0.000 A 
ATOM      8  C   UNL     1       1.226   5.134  20.674  0.00  0.00    +0.000 A 
ATOM      9  C   UNL     1       1.601   4.234  19.666  0.00  0.00    +0.000 A 
ATOM     10  C   UNL     1       1.110   2.917  19.712  0.00  0.00    +0.000 A 
ATOM     11  C   UNL     1       1.447   1.992  18.730  0.00  0.00    +0.000 A 
ATOM     12  C   UNL     1       2.275   2.374  17.685  0.00  0.00    +0.000 A 
ATOM     13  C   UNL     1       2.768   3.688  17.631  0.00  0.00    +0.000 A 
ATOM     14  C   UNL     1       2.457   4.657  18.616  0.00  0.00    +0.000 A 
ENDBRANCH   2   5
BRANCH   1  15
ATOM     15  N   UNL     1       6.049   6.195  16.422  0.00  0.00    +0.000 NA
BRANCH  15  17
ATOM     16  C   UNL     1       7.378   5.258  14.514  0.00  0.00    +0.000 C 
ATOM     17  C   UNL     1       6.028   5.239  15.271  0.00  0.00    +0.000 C 
ATOM     18  C   UNL     1       5.773   3.767  15.619  0.00  0.00    +0.000 C 
ENDBRANCH  15  17
BRANCH  15  19
ATOM     19  C   UNL     1       7.358   6.423  17.112  0.00  0.00    +0.000 C 
ATOM     20  C   UNL     1       7.669   7.872  17.520  0.00  0.00    +0.000 C 
ATOM     21  C   UNL     1       7.444   5.613  18.429  0.00  0.00    +0.000 C 
ENDBRANCH  15  19
ENDBRANCH   1  15
TORSDOF 4
ENDMDL
MODEL 2
REMARK VINA RESULT:      -6.9      1.665      3.579
REMARK  Name = 
REMARK  8 active torsions:
REMARK  status: ('A' for Active; 'I' for Inactive)
REMARK    1  A    between atoms: C_1  and  C_2
REMARK    2  A    between atoms: C_2  and  C_3
REMARK    3  A    between atoms: C_2  and  N_4
REMARK    4  A    between atoms: N_4  and  N_5
REMARK    5  A    between atoms: N_4  and  C_18
REMARK    6  A    between atoms: C_6  and  C_8
REMARK    7  A    between atoms: C_18  and  C_19
REMARK    8  A    between atoms: C_18  and  C_20
REMARK                            x       y       z     vdW  Elec       q    Type
REMARK                         _______ _______ _______ _____ _____    ______ ____
ROOT
ATOM      1  N   UNL     1       5.386   4.377  16.787  0.00  0.00    +0.000 N 
ATOM      2  C   UNL     1       5.345   3.986  18.135  0.00  0.00    +0.000 C 
ATOM      3  O   UNL     1       6.291   4.076  18.911  0.00  0.00    +0.000 OA
ATOM      4  H   UNL     1       4.593   4.213  16.179  0.00  0.00    +0.000 HD
ENDROOT
BRANCH   2   5
ATOM      5  C   UNL     1       4.027   3.444  18.610  0.00  0.00    +0.000 A 
ATOM      6  C   UNL     1       3.731   2.097  18.324  0.00  0.00    +0.000 A 
ATOM      7  C   UNL     1       2.533   1.533  18.731  0.00  0.00    +0.000 A 
ATOM      8  C   UNL     1       1.599   2.307  19.411  0.00  0.00    +0.000 A 
ATOM      9  C   UNL     1       1.843   3.660  19.690  0.00  0.00    +0.000 A 
ATOM     10  C   UNL     1       0.859   4.404  20.364  0.00  0.00    +0.000 A 
ATOM     11  C   UNL     1       1.060   5.746  20.669  0.00  0.00    +0.000 A 
ATOM     12  C   UNL     1       2.250   6.359  20.309  0.00  0.00    +0.000 A 
ATOM     13  C   UNL     1       3.239   5.623  19.637  0.00  0.00    +0.000 A 
ATOM     14  C   UNL     1       3.069   4.257  19.298  0.00  0.00    +0.000 A 
ENDBRANCH   2   5
BRANCH   1  15
ATOM     15  N   UNL     1       6.572   4.912  16.153  0.00  0.00    +0.000 NA
BRANCH  15  17
ATOM     16  C   UNL     1       5.131   6.942  16.453  0.00  0.00    +0.000 C 
ATOM     17  C   UNL     1       6.569   6.404  16.257  0.00  0.00    +0.000 C 
ATOM     18  C   UNL     1       7.391   7.005  17.404  0.00  0.00    +0.000 C 
ENDBRANCH  15  17
BRANCH  15  19
ATOM     19  C   UNL     1       6.746   4.311  14.793  0.00  0.00    +0.000 C 
ATOM     20  C   UNL     1       5.457   3.996  14.017  0.00  0.00    +0.000 C 
ATOM     21  C   UNL     1       7.547   5.256  13.864  0.00  0.00    +0.000 C 
ENDBRANCH  15  19
ENDBRANCH   1  15
TORSDOF 4
ENDMDL
MODEL 3
REMARK VINA RESULT:      -6.8      2.186      5.867
REMARK  Name = 
REMARK  8 active torsions:
REMARK  status: ('A' for Active; 'I' for Inactive)
REMARK    1  A    between atoms: C_1  and  C_2
REMARK    2  A    between atoms: C_2  and  C_3
REMARK    3  A    between atoms: C_2  and  N_4
REMARK    4  A    between atoms: N_4  and  N_5
REMARK    5  A    between atoms: N_4  and  C_18
REMARK    6  A    between atoms: C_6  and  C_8
REMARK    7  A    between atoms: C_18  and  C_19
REMARK    8  A    between atoms: C_18  and  C_20
REMARK                            x       y       z     vdW  Elec       q    Type
REMARK                         _______ _______ _______ _____ _____    ______ ____
ROOT
ATOM      1  N   UNL     1       3.555   4.209  18.958  0.00  0.00    +0.000 N 
ATOM      2  C   UNL     1       4.903   3.840  19.086  0.00  0.00    +0.000 C 
ATOM      3  O   UNL     1       5.299   2.886  19.747  0.00  0.00    +0.000 OA
ATOM      4  H   UNL     1       3.296   5.048  18.453  0.00  0.00    +0.000 HD
ENDROOT
BRANCH   2   5
ATOM      5  C   UNL     1       5.881   4.692  18.328  0.00  0.00    +0.000 A 
ATOM      6  C   UNL     1       6.625   5.640  19.056  0.00  0.00    +0.000 A 
ATOM      7  C   UNL     1       7.542   6.460  18.420  0.00  0.00    +0.000 A 
ATOM      8  C   UNL     1       7.720   6.364  17.044  0.00  0.00    +0.000 A 
ATOM      9  C   UNL     1       6.978   5.454  16.279  0.00  0.00    +0.000 A 
ATOM     10  C   UNL     1       7.180   5.409  14.888  0.00  0.00    +0.000 A 
ATOM     11  C   UNL     1       6.473   4.515  14.090  0.00  0.00    +0.000 A 
ATOM     12  C   UNL     1       5.558   3.652  14.673  0.00  0.00    +0.000 A 
ATOM     13  C   UNL     1       5.351   3.690  16.061  0.00  0.00    +0.000 A 
ATOM     14  C   UNL     1       6.043   4.591  16.908  0.00  0.00    +0.000 A 
ENDBRANCH   2   5
BRANCH   1  15
ATOM     15  N   UNL     1       2.475   3.511  19.622  0.00  0.00    +0.000 NA
BRANCH  15  17
ATOM     16  C   UNL     1       1.623   4.008  17.317  0.00  0.00    +0.000 C 
ATOM     17  C   UNL     1       1.281   3.457  18.722  0.00  0.00    +0.000 C 
ATOM     18  C   UNL     1       0.676   2.068  18.483  0.00  0.00    +0.000 C 
ENDBRANCH  15  17
BRANCH  15  19
ATOM     19  C   UNL     1       2.280   4.056  21.003  0.00  0.00    +0.000 C 
ATOM     20  C   UNL     1       1.543   5.401  21.106  0.00  0.00    +0.000 C 
ATOM     21  C   UNL     1       1.450   3.082  21.875  0.00  0.00    +0.000 C 
ENDBRANCH  15  19
ENDBRANCH   1  15
TORSDOF 4
ENDMDL
MODEL 4
REMARK VINA RESULT:      -6.7      1.022      1.111
REMARK  Name = 
REMARK  8 active torsions:
REMARK  status: ('A' for Active; 'I' for Inactive)
REMARK    1  A    between atoms: C_1  and  C_2
REMARK    2  A    between atoms: C_2  and  C_3
REMARK    3  A    between atoms: C_2  and  N_4
REMARK    4  A    between atoms: N_4  and  N_5
REMARK    5  A    between atoms: N_4  and  C_18
REMARK    6  A    between atoms: C_6  and  C_8
REMARK    7  A    between atoms: C_18  and  C_19
REMARK    8  A    between atoms: C_18  and  C_20
REMARK                            x       y       z     vdW  Elec       q    Type
REMARK                         _______ _______ _______ _____ _____    ______ ____
ROOT
ATOM      1  N   UNL     1       4.957   6.266  17.542  0.00  0.00    +0.000 N 
ATOM      2  C   UNL     1       3.783   7.032  17.632  0.00  0.00    +0.000 C 
ATOM      3  O   UNL     1       3.448   7.882  16.813  0.00  0.00    +0.000 OA
ATOM      4  H   UNL     1       5.213   5.627  18.286  0.00  0.00    +0.000 HD
ENDROOT
BRANCH   2   5
ATOM      5  C   UNL     1       2.908   6.737  18.817  0.00  0.00    +0.000 A 
ATOM      6  C   UNL     1       2.232   7.818  19.415  0.00  0.00    +0.000 A 
ATOM      7  C   UNL     1       1.410   7.618  20.513  0.00  0.00    +0.000 A 
ATOM      8  C   UNL     1       1.265   6.342  21.046  0.00  0.00    +0.000 A 
ATOM      9  C   UNL     1       1.945   5.245  20.498  0.00  0.00    +0.000 A 
ATOM     10  C   UNL     1       1.779   3.978  21.086  0.00  0.00    +0.000 A 
ATOM     11  C   UNL     1       2.426   2.860  20.570  0.00  0.00    +0.000 A 
ATOM     12  C   UNL     1       3.243   2.993  19.458  0.00  0.00    +0.000 A 
ATOM     13  C   UNL     1       3.412   4.254  18.864  0.00  0.00    +0.000 A 
ATOM     14  C   UNL     1       2.780   5.419  19.363  0.00  0.00    +0.000 A 
ENDBRANCH   2   5
BRANCH   1  15
ATOM     15  N   UNL     1       5.923   6.417  16.476  0.00  0.00    +0.000 NA
BRANCH  15  17
ATOM     16  C   UNL     1       6.997   5.053  14.667  0.00  0.00    +0.000 C 
ATOM     17  C   UNL     1       5.690   5.371  15.433  0.00  0.00    +0.000 C 
ATOM     18  C   UNL     1       5.169   4.018  15.935  0.00  0.00    +0.000 C 
ENDBRANCH  15  17
BRANCH  15  19
ATOM     19  C   UNL     1       7.304   6.538  17.043  0.00  0.00    +0.000 C 
ATOM     20  C   UNL     1       7.723   7.937  17.523  0.00  0.00    +0.000 C 
ATOM     21  C   UNL     1       7.481   5.623  18.280  0.00  0.00    +0.000 C 
ENDBRANCH  15  19
ENDBRANCH   1  15
TORSDOF 4
ENDMDL
MODEL 5
REMARK VINA RESULT:      -6.6      0.806      1.221
REMARK  Name = 
REMARK  8 active torsions:
REMARK  status: ('A' for Active; 'I' for Inactive)
REMARK    1  A    between atoms: C_1  and  C_2
REMARK    2  A    between atoms: C_2  and  C_3
REMARK    3  A    between atoms: C_2  and  N_4
REMARK    4  A    between atoms: N_4  and  N_5
REMARK    5  A    between atoms: N_4  and  C_18
REMARK    6  A    between atoms: C_6  and  C_8
REMARK    7  A    between atoms: C_18  and  C_19
REMARK    8  A    between atoms: C_18  and  C_20
REMARK                            x       y       z     vdW  Elec       q    Type
REMARK                         _______ _______ _______ _____ _____    ______ ____
ROOT
ATOM      1  N   UNL     1       5.055   6.086  17.978  0.00  0.00    +0.000 N 
ATOM      2  C   UNL     1       3.748   6.596  18.007  0.00  0.00    +0.000 C 
ATOM      3  O   UNL     1       3.371   7.570  17.363  0.00  0.00    +0.000 OA
ATOM      4  H   UNL     1       5.324   5.321  18.586  0.00  0.00    +0.000 HD
ENDROOT
BRANCH   2   5
ATOM      5  C   UNL     1       2.784   5.853  18.887  0.00  0.00    +0.000 A 
ATOM      6  C   UNL     1       2.234   6.543  19.985  0.00  0.00    +0.000 A 
ATOM      7  C   UNL     1       1.340   5.917  20.839  0.00  0.00    +0.000 A 
ATOM      8  C   UNL     1       0.994   4.587  20.626  0.00  0.00    +0.000 A 
ATOM      9  C   UNL     1       1.542   3.857  19.562  0.00  0.00    +0.000 A 
ATOM     10  C   UNL     1       1.175   2.509  19.401  0.00  0.00    +0.000 A 
ATOM     11  C   UNL     1       1.686   1.748  18.355  0.00  0.00    +0.000 A 
ATOM     12  C   UNL     1       2.567   2.326  17.454  0.00  0.00    +0.000 A 
ATOM     13  C   UNL     1       2.937   3.672  17.607  0.00  0.00    +0.000 A 
ATOM     14  C   UNL     1       2.448   4.479  18.663  0.00  0.00    +0.000 A 
ENDBRANCH   2   5
BRANCH   1  15
ATOM     15  N   UNL     1       6.120   6.677  17.196  0.00  0.00    +0.000 NA
BRANCH  15  17
ATOM     16  C   UNL     1       6.779   4.286  16.824  0.00  0.00    +0.000 C 
ATOM     17  C   UNL     1       6.613   5.687  16.188  0.00  0.00    +0.000 C 
ATOM     18  C   UNL     1       5.723   5.476  14.956  0.00  0.00    +0.000 C 
ENDBRANCH  15  17
BRANCH  15  19
ATOM     19  C   UNL     1       7.132   7.313  18.097  0.00  0.00    +0.000 C 
ATOM     20  C   UNL     1       8.077   6.356  18.842  0.00  0.00    +0.000 C 
ATOM     21  C   UNL     1       8.069   8.257  17.304  0.00  0.00    +0.000 C 
ENDBRANCH  15  19
ENDBRANCH   1  15
TORSDOF 4
ENDMDL
MODEL 6
REMARK VINA RESULT:      -6.5      0.980      2.678
REMARK  Name = 
REMARK  8 active torsions:
REMARK  status: ('A' for Active; 'I' for Inactive)
REMARK    1  A    between atoms: C_1  and  C_2
REMARK    2  A    between atoms: C_2  and  C_3
REMARK    3  A    between atoms: C_2  and  N_4
REMARK    4  A    between atoms: N_4  and  N_5
REMARK    5  A    between atoms: N_4  and  C_18
REMARK    6  A    between atoms: C_6  and  C_8
REMARK    7  A    between atoms: C_18  and  C_19
REMARK    8  A    between atoms: C_18  and  C_20
REMARK                            x       y       z     vdW  Elec       q    Type
REMARK                         _______ _______ _______ _____ _____    ______ ____
ROOT
ATOM      1  N   UNL     1       5.544   4.745  16.408  0.00  0.00    +0.000 N 
ATOM      2  C   UNL     1       4.391   5.386  16.887  0.00  0.00    +0.000 C 
ATOM      3  O   UNL     1       4.163   6.585  16.758  0.00  0.00    +0.000 OA
ATOM      4  H   UNL     1       5.708   3.764  16.605  0.00  0.00    +0.000 HD
ENDROOT
BRANCH   2   5
ATOM      5  C   UNL     1       3.397   4.497  17.578  0.00  0.00    +0.000 A 
ATOM      6  C   UNL     1       3.181   3.214  17.040  0.00  0.00    +0.000 A 
ATOM      7  C   UNL     1       2.276   2.344  17.626  0.00  0.00    +0.000 A 
ATOM      8  C   UNL     1       1.556   2.744  18.746  0.00  0.00    +0.000 A 
ATOM      9  C   UNL     1       1.721   4.023  19.295  0.00  0.00    +0.000 A 
ATOM     10  C   UNL     1       0.955   4.387  20.417  0.00  0.00    +0.000 A 
ATOM     11  C   UNL     1       1.092   5.642  21.002  0.00  0.00    +0.000 A 
ATOM     12  C   UNL     1       1.999   6.548  20.474  0.00  0.00    +0.000 A 
ATOM     13  C   UNL     1       2.768   6.192  19.354  0.00  0.00    +0.000 A 
ATOM     14  C   UNL     1       2.653   4.929  18.724  0.00  0.00    +0.000 A 
ENDBRANCH   2   5
BRANCH   1  15
ATOM     15  N   UNL     1       6.613   5.441  15.725  0.00  0.00    +0.000 NA
BRANCH  15  17
ATOM     16  C   UNL     1       5.873   3.954  13.846  0.00  0.00    +0.000 C 
ATOM     17  C   UNL     1       7.072   4.633  14.552  0.00  0.00    +0.000 C 
ATOM     18  C   UNL     1       7.816   5.400  13.452  0.00  0.00    +0.000 C 
ENDBRANCH  15  17
BRANCH  15  19
ATOM     19  C   UNL     1       7.651   5.887  16.708  0.00  0.00    +0.000 C 
ATOM     20  C   UNL     1       7.447   7.280  17.327  0.00  0.00    +0.000 C 
ATOM     21  C   UNL     1       7.725   4.923  17.918  0.00  0.00    +0.000 C 
ENDBRANCH  15  19
ENDBRANCH   1  15
TORSDOF 4
ENDMDL
MODEL 7
REMARK VINA RESULT:      -6.5      2.862      5.564
REMARK  Name = 
REMARK  8 active torsions:
REMARK  status: ('A' for Active; 'I' for Inactive)
REMARK    1  A    between atoms: C_1  and  C_2
REMARK    2  A    between atoms: C_2  and  C_3
REMARK    3  A    between atoms: C_2  and  N_4
REMARK    4  A    between atoms: N_4  and  N_5
REMARK    5  A    between atoms: N_4  and  C_18
REMARK    6  A    between atoms: C_6  and  C_8
REMARK    7  A    between atoms: C_18  and  C_19
REMARK    8  A    between atoms: C_18  and  C_20
REMARK                            x       y       z     vdW  Elec       q    Type
REMARK                         _______ _______ _______ _____ _____    ______ ____
ROOT
ATOM      1  N   UNL     1       3.059   5.706  18.921  0.00  0.00    +0.000 N 
ATOM      2  C   UNL     1       2.284   6.400  19.863  0.00  0.00    +0.000 C 
ATOM      3  O   UNL     1       1.937   5.941  20.947  0.00  0.00    +0.000 OA
ATOM      4  H   UNL     1       3.255   6.114  18.014  0.00  0.00    +0.000 HD
ENDROOT
BRANCH   2   5
ATOM      5  C   UNL     1       1.895   7.799  19.476  0.00  0.00    +0.000 A 
ATOM      6  C   UNL     1       2.257   8.247  18.191  0.00  0.00    +0.000 A 
ATOM      7  C   UNL     1       1.933   9.526  17.769  0.00  0.00    +0.000 A 
ATOM      8  C   UNL     1       1.260  10.389  18.629  0.00  0.00    +0.000 A 
ATOM      9  C   UNL     1       0.908   9.991  19.926  0.00  0.00    +0.000 A 
ATOM     10  C   UNL     1       0.246  10.906  20.763  0.00  0.00    +0.000 A 
ATOM     11  C   UNL     1      -0.131  10.553  22.054  0.00  0.00    +0.000 A 
ATOM     12  C   UNL     1       0.145   9.279  22.524  0.00  0.00    +0.000 A 
ATOM     13  C   UNL     1       0.805   8.358  21.694  0.00  0.00    +0.000 A 
ATOM     14  C   UNL     1       1.215   8.680  20.377  0.00  0.00    +0.000 A 
ENDBRANCH   2   5
BRANCH   1  15
ATOM     15  N   UNL     1       3.518   4.348  19.117  0.00  0.00    +0.000 NA
BRANCH  15  17
ATOM     16  C   UNL     1       5.027   4.377  17.115  0.00  0.00    +0.000 C 
ATOM     17  C   UNL     1       4.934   4.222  18.652  0.00  0.00    +0.000 C 
ATOM     18  C   UNL     1       5.929   5.238  19.228  0.00  0.00    +0.000 C 
ENDBRANCH  15  17
BRANCH  15  19
ATOM     19  C   UNL     1       2.517   3.380  18.566  0.00  0.00    +0.000 C 
ATOM     20  C   UNL     1       1.663   2.624  19.597  0.00  0.00    +0.000 C 
ATOM     21  C   UNL     1       1.494   4.095  17.650  0.00  0.00    +0.000 C 
ENDBRANCH  15  19
ENDBRANCH   1  15
TORSDOF 4
ENDMDL
MODEL 8
REMARK VINA RESULT:      -6.4      2.813      5.400
REMARK  Name = 
REMARK  8 active torsions:
REMARK  status: ('A' for Active; 'I' for Inactive)
REMARK    1  A    between atoms: C_1  and  C_2
REMARK    2  A    between atoms: C_2  and  C_3
REMARK    3  A    between atoms: C_2  and  N_4
REMARK    4  A    between atoms: N_4  and  N_5
REMARK    5  A    between atoms: N_4  and  C_18
REMARK    6  A    between atoms: C_6  and  C_8
REMARK    7  A    between atoms: C_18  and  C_19
REMARK    8  A    between atoms: C_18  and  C_20
REMARK                            x       y       z     vdW  Elec       q    Type
REMARK                         _______ _______ _______ _____ _____    ______ ____
ROOT
ATOM      1  N   UNL     1       2.382   4.911  18.997  0.00  0.00    +0.000 N 
ATOM      2  C   UNL     1       3.149   6.046  19.305  0.00  0.00    +0.000 C 
ATOM      3  O   UNL     1       4.276   6.009  19.788  0.00  0.00    +0.000 OA
ATOM      4  H   UNL     1       1.430   5.007  18.663  0.00  0.00    +0.000 HD
ENDROOT
BRANCH   2   5
ATOM      5  C   UNL     1       2.507   7.366  18.984  0.00  0.00    +0.000 A 
ATOM      6  C   UNL     1       2.824   7.965  17.750  0.00  0.00    +0.000 A 
ATOM      7  C   UNL     1       2.270   9.183  17.391  0.00  0.00    +0.000 A 
ATOM      8  C   UNL     1       1.406   9.835  18.265  0.00  0.00    +0.000 A 
ATOM      9  C   UNL     1       1.089   9.286  19.515  0.00  0.00    +0.000 A 
ATOM     10  C   UNL     1       0.225   9.993  20.371  0.00  0.00    +0.000 A 
ATOM     11  C   UNL     1      -0.125   9.483  21.616  0.00  0.00    +0.000 A 
ATOM     12  C   UNL     1       0.379   8.257  22.020  0.00  0.00    +0.000 A 
ATOM     13  C   UNL     1       1.240   7.543  21.172  0.00  0.00    +0.000 A 
ATOM     14  C   UNL     1       1.630   8.031  19.900  0.00  0.00    +0.000 A 
ENDBRANCH   2   5
BRANCH   1  15
ATOM     15  N   UNL     1       2.833   3.558  19.244  0.00  0.00    +0.000 NA
BRANCH  15  17
ATOM     16  C   UNL     1       4.048   3.641  17.052  0.00  0.00    +0.000 C 
ATOM     17  C   UNL     1       3.055   2.856  17.942  0.00  0.00    +0.000 C 
ATOM     18  C   UNL     1       3.619   1.432  18.029  0.00  0.00    +0.000 C 
ENDBRANCH  15  17
BRANCH  15  19
ATOM     19  C   UNL     1       1.945   2.893  20.249  0.00  0.00    +0.000 C 
ATOM     20  C   UNL     1       2.338   3.067  21.725  0.00  0.00    +0.000 C 
ATOM     21  C   UNL     1       0.496   3.431  20.158  0.00  0.00    +0.000 C 
ENDBRANCH  15  19
ENDBRANCH   1  15
TORSDOF 4
ENDMDL
MODEL 9
REMARK VINA RESULT:      -6.3      3.893      6.146
REMARK  Name = 
REMARK  8 active torsions:
REMARK  status: ('A' for Active; 'I' for Inactive)
REMARK    1  A    between atoms: C_1  and  C_2
REMARK    2  A    between atoms: C_2  and  C_3
REMARK    3  A    between atoms: C_2  and  N_4
REMARK    4  A    between atoms: N_4  and  N_5
REMARK    5  A    between atoms: N_4  and  C_18
REMARK    6  A    between atoms: C_6  and  C_8
REMARK    7  A    between atoms: C_18  and  C_19
REMARK    8  A    between atoms: C_18  and  C_20
REMARK                            x       y       z     vdW  Elec       q    Type
REMARK                         _______ _______ _______ _____ _____    ______ ____
ROOT
ATOM      1  N   UNL     1       1.023   9.439  18.940  0.00  0.00    +0.000 N 
ATOM      2  C   UNL     1       1.602   8.460  19.762  0.00  0.00    +0.000 C 
ATOM      3  O   UNL     1       1.479   8.421  20.982  0.00  0.00    +0.000 OA
ATOM      4  H   UNL     1       1.217   9.457  17.945  0.00  0.00    +0.000 HD
ENDROOT
BRANCH   2   5
ATOM      5  C   UNL     1       2.400   7.406  19.049  0.00  0.00    +0.000 A 
ATOM      6  C   UNL     1       3.178   7.808  17.947  0.00  0.00    +0.000 A 
ATOM      7  C   UNL     1       3.936   6.888  17.241  0.00  0.00    +0.000 A 
ATOM      8  C   UNL     1       3.916   5.546  17.610  0.00  0.00    +0.000 A 
ATOM      9  C   UNL     1       3.131   5.101  18.682  0.00  0.00    +0.000 A 
ATOM     10  C   UNL     1       3.130   3.732  19.003  0.00  0.00    +0.000 A 
ATOM     11  C   UNL     1       2.374   3.245  20.065  0.00  0.00    +0.000 A 
ATOM     12  C   UNL     1       1.614   4.123  20.822  0.00  0.00    +0.000 A 
ATOM     13  C   UNL     1       1.610   5.491  20.510  0.00  0.00    +0.000 A 
ATOM     14  C   UNL     1       2.358   6.026  19.432  0.00  0.00    +0.000 A 
ENDBRANCH   2   5
BRANCH   1  15
ATOM     15  N   UNL     1       0.229  10.536  19.450  0.00  0.00    +0.000 NA
BRANCH  15  17
ATOM     16  C   UNL     1      -1.954  11.732  19.148  0.00  0.00    +0.000 C 
ATOM     17  C   UNL     1      -1.183  10.401  18.974  0.00  0.00    +0.000 C 
ATOM     18  C   UNL     1      -1.366  10.009  17.503  0.00  0.00    +0.000 C 
ENDBRANCH  15  17
BRANCH  15  19
ATOM     19  C   UNL     1       0.925  11.838  19.200  0.00  0.00    +0.000 C 
ATOM     20  C   UNL     1       1.511  12.545  20.433  0.00  0.00    +0.000 C 
ATOM     21  C   UNL     1       2.126  11.654  18.241  0.00  0.00    +0.000 C 
ENDBRANCH  15  19
ENDBRANCH   1  15
TORSDOF 4
ENDMDL
