MODEL 1
REMARK VINA RESULT:      -7.8      0.000      0.000
REMARK  Name = 
REMARK  5 active torsions:
REMARK  status: ('A' for Active; 'I' for Inactive)
REMARK    1  A    between atoms: O_1  and  C_2
REMARK    2  A    between atoms: C_7  and  C_8
REMARK    3  A    between atoms: C_8  and  O_9
REMARK    4  A    between atoms: C_8  and  C_10
REMARK    5  A    between atoms: C_8  and  C_16
REMARK                            x       y       z     vdW  Elec       q    Type
REMARK                         _______ _______ _______ _____ _____    ______ ____
ROOT
ATOM      1  C   UNL     1       4.003   5.482  18.670  0.00  0.00    +0.000 C 
ENDROOT
BRANCH   1   2
ATOM      2  C   UNL     1       3.155   6.786  18.721  0.00  0.00    +0.000 A 
ATOM      3  C   UNL     1       3.187   7.728  17.664  0.00  0.00    +0.000 A 
ATOM      4  C   UNL     1       2.392   8.882  17.664  0.00  0.00    +0.000 A 
ATOM      5  C   UNL     1       1.513   9.123  18.708  0.00  0.00    +0.000 A 
ATOM      6  C   UNL     1       1.442   8.214  19.758  0.00  0.00    +0.000 A 
ATOM      7  C   UNL     1       2.248   7.064  19.774  0.00  0.00    +0.000 A 
ATOM      8 CL   UNL     1       2.026   6.038  21.155  0.00  0.00    +0.000 Cl
ENDBRANCH   1   2
BRANCH   1  14
ATOM      9  C   UNL     1       3.707   2.906  19.118  0.00  0.00    +0.000 A 
ATOM     10  C   UNL     1       2.933   1.740  19.122  0.00  0.00    +0.000 A 
ATOM     11  C   UNL     1       1.607   1.779  18.701  0.00  0.00    +0.000 A 
ATOM     12  C   UNL     1       1.059   2.980  18.274  0.00  0.00    +0.000 A 
ATOM     13  C   UNL     1       1.835   4.143  18.276  0.00  0.00    +0.000 A 
ATOM     14  C   UNL     1       3.182   4.147  18.716  0.00  0.00    +0.000 A 
BRANCH   9  15
ATOM     15  O   UNL     1       5.019   2.812  19.498  0.00  0.00    +0.000 OA
ATOM     16  H   UNL     1       5.304   1.884  19.424  0.00  0.00    +0.000 HD
ENDBRANCH   9  15
ENDBRANCH   1  14
BRANCH   1  17
ATOM     17  C   UNL     1       4.963   5.382  17.456  0.00  0.00    +0.000 A 
ATOM     18  C   UNL     1       4.617   4.700  16.274  0.00  0.00    +0.000 A 
ATOM     19  C   UNL     1       5.543   4.541  15.240  0.00  0.00    +0.000 A 
ATOM     20  C   UNL     1       6.828   5.063  15.364  0.00  0.00    +0.000 A 
ATOM     21  C   UNL     1       7.191   5.749  16.517  0.00  0.00    +0.000 A 
ATOM     22  C   UNL     1       6.271   5.901  17.555  0.00  0.00    +0.000 A 
ENDBRANCH   1  17
BRANCH   1  23
ATOM     23  O   UNL     1       4.842   5.635  19.830  0.00  0.00    +0.000 OA
ATOM     24  H   UNL     1       4.684   4.868  20.405  0.00  0.00    +0.000 HD
ENDBRANCH   1  23
TORSDOF 5
ENDMDL
MODEL 2
REMARK VINA RESULT:      -7.6      0.114      1.034
REMARK  Name = 
REMARK  5 active torsions:
REMARK  status: ('A' for Active; 'I' for Inactive)
REMARK    1  A    between atoms: O_1  and  C_2
REMARK    2  A    between atoms: C_7  and  C_8
REMARK    3  A    between atoms: C_8  and  O_9
REMARK    4  A    between atoms: C_8  and  C_10
REMARK    5  A    between atoms: C_8  and  C_16
REMARK                            x       y       z     vdW  Elec       q    Type
REMARK                         _______ _______ _______ _____ _____    ______ ____
ROOT
ATOM      1  C   UNL     1       4.033   5.388  18.709  0.00  0.00    +0.000 C 
ENDROOT
BRANCH   1   2
ATOM      2  C   UNL     1       3.210   6.709  18.707  0.00  0.00    +0.000 A 
ATOM      3  C   UNL     1       3.289   7.624  17.629  0.00  0.00    +0.000 A 
ATOM      4  C   UNL     1       2.518   8.793  17.580  0.00  0.00    +0.000 A 
ATOM      5  C   UNL     1       1.616   9.076  18.595  0.00  0.00    +0.000 A 
ATOM      6  C   UNL     1       1.499   8.194  19.662  0.00  0.00    +0.000 A 
ATOM      7  C   UNL     1       2.281   7.029  19.728  0.00  0.00    +0.000 A 
ATOM      8 CL   UNL     1       2.001   6.041  21.126  0.00  0.00    +0.000 Cl
ENDBRANCH   1   2
BRANCH   1  14
ATOM      9  C   UNL     1       3.680   2.823  19.179  0.00  0.00    +0.000 A 
ATOM     10  C   UNL     1       2.882   1.673  19.186  0.00  0.00    +0.000 A 
ATOM     11  C   UNL     1       1.562   1.735  18.750  0.00  0.00    +0.000 A 
ATOM     12  C   UNL     1       1.043   2.943  18.304  0.00  0.00    +0.000 A 
ATOM     13  C   UNL     1       1.843   4.090  18.304  0.00  0.00    +0.000 A 
ATOM     14  C   UNL     1       3.185   4.070  18.760  0.00  0.00    +0.000 A 
BRANCH   9  15
ATOM     15  O   UNL     1       4.986   2.706  19.575  0.00  0.00    +0.000 OA
ATOM     16  H   UNL     1       5.089   3.118  20.451  0.00  0.00    +0.000 HD
ENDBRANCH   9  15
ENDBRANCH   1  14
BRANCH   1  17
ATOM     17  C   UNL     1       5.027   5.243  17.528  0.00  0.00    +0.000 A 
ATOM     18  C   UNL     1       6.310   5.823  17.545  0.00  0.00    +0.000 A 
ATOM     19  C   UNL     1       7.142   5.759  16.424  0.00  0.00    +0.000 A 
ATOM     20  C   UNL     1       6.711   5.112  15.268  0.00  0.00    +0.000 A 
ATOM     21  C   UNL     1       5.453   4.524  15.229  0.00  0.00    +0.000 A 
ATOM     22  C   UNL     1       4.617   4.594  16.344  0.00  0.00    +0.000 A 
ENDBRANCH   1  17
BRANCH   1  23
ATOM     23  O   UNL     1       4.840   5.550  19.891  0.00  0.00    +0.000 OA
ATOM     24  H   UNL     1       4.802   6.488  20.142  0.00  0.00    +0.000 HD
ENDBRANCH   1  23
TORSDOF 5
ENDMDL
MODEL 3
REMARK VINA RESULT:      -7.3      1.758      5.353
REMARK  Name = 
REMARK  5 active torsions:
REMARK  status: ('A' for Active; 'I' for Inactive)
REMARK    1  A    between atoms: O_1  and  C_2
REMARK    2  A    between atoms: C_7  and  C_8
REMARK    3  A    between atoms: C_8  and  O_9
REMARK    4  A    between atoms: C_8  and  C_10
REMARK    5  A    between atoms: C_8  and  C_16
REMARK                            x       y       z     vdW  Elec       q    Type
REMARK                         _______ _______ _______ _____ _____    ______ ____
ROOT
ATOM      1  C   UNL     1       3.235   5.993  19.065  0.00  0.00    +0.000 C 
ENDROOT
BRANCH   1   2
ATOM      2  C   UNL     1       4.210   5.758  17.876  0.00  0.00    +0.000 A 
ATOM      3  C   UNL     1       4.405   6.743  16.877  0.00  0.00    +0.000 A 
ATOM      4  C   UNL     1       5.317   6.575  15.827  0.00  0.00    +0.000 A 
ATOM      5  C   UNL     1       6.092   5.428  15.752  0.00  0.00    +0.000 A 
ATOM      6  C   UNL     1       5.940   4.444  16.723  0.00  0.00    +0.000 A 
ATOM      7  C   UNL     1       5.015   4.597  17.769  0.00  0.00    +0.000 A 
ATOM      8 CL   UNL     1       4.963   3.276  18.893  0.00  0.00    +0.000 Cl
ENDBRANCH   1   2
BRANCH   1  14
ATOM      9  C   UNL     1       1.810   7.942  20.112  0.00  0.00    +0.000 A 
ATOM     10  C   UNL     1       1.063   9.120  19.992  0.00  0.00    +0.000 A 
ATOM     11  C   UNL     1       0.869   9.701  18.743  0.00  0.00    +0.000 A 
ATOM     12  C   UNL     1       1.418   9.105  17.616  0.00  0.00    +0.000 A 
ATOM     13  C   UNL     1       2.169   7.931  17.742  0.00  0.00    +0.000 A 
ATOM     14  C   UNL     1       2.404   7.322  18.999  0.00  0.00    +0.000 A 
BRANCH   9  15
ATOM     15  O   UNL     1       1.938   7.381  21.354  0.00  0.00    +0.000 OA
ATOM     16  H   UNL     1       1.069   7.384  21.793  0.00  0.00    +0.000 HD
ENDBRANCH   9  15
ENDBRANCH   1  14
BRANCH   1  17
ATOM     17  C   UNL     1       2.228   4.840  19.313  0.00  0.00    +0.000 A 
ATOM     18  C   UNL     1       1.992   4.306  20.595  0.00  0.00    +0.000 A 
ATOM     19  C   UNL     1       1.156   3.201  20.770  0.00  0.00    +0.000 A 
ATOM     20  C   UNL     1       0.534   2.612  19.672  0.00  0.00    +0.000 A 
ATOM     21  C   UNL     1       0.743   3.126  18.397  0.00  0.00    +0.000 A 
ATOM     22  C   UNL     1       1.586   4.224  18.219  0.00  0.00    +0.000 A 
ENDBRANCH   1  17
BRANCH   1  23
ATOM     23  O   UNL     1       4.137   5.982  20.188  0.00  0.00    +0.000 OA
ATOM     24  H   UNL     1       4.727   5.217  20.078  0.00  0.00    +0.000 HD
ENDBRANCH   1  23
TORSDOF 5
ENDMDL
MODEL 4
REMARK VINA RESULT:      -7.2      1.405      5.165
REMARK  Name = 
REMARK  5 active torsions:
REMARK  status: ('A' for Active; 'I' for Inactive)
REMARK    1  A    between atoms: O_1  and  C_2
REMARK    2  A    between atoms: C_7  and  C_8
REMARK    3  A    between atoms: C_8  and  O_9
REMARK    4  A    between atoms: C_8  and  C_10
REMARK    5  A    between atoms: C_8  and  C_16
REMARK                            x       y       z     vdW  Elec       q    Type
REMARK                         _______ _______ _______ _____ _____    ______ ____
ROOT
ATOM      1  C   UNL     1       4.146   5.060  18.469  0.00  0.00    +0.000 C 
ENDROOT
BRANCH   1   2
ATOM      2  C   UNL     1       5.071   4.965  17.222  0.00  0.00    +0.000 A 
ATOM      3  C   UNL     1       4.675   4.256  16.062  0.00  0.00    +0.000 A 
ATOM      4  C   UNL     1       5.468   4.202  14.909  0.00  0.00    +0.000 A 
ATOM      5  C   UNL     1       6.676   4.881  14.861  0.00  0.00    +0.000 A 
ATOM      6  C   UNL     1       7.093   5.601  15.974  0.00  0.00    +0.000 A 
ATOM      7  C   UNL     1       6.312   5.645  17.141  0.00  0.00    +0.000 A 
ATOM      8 CL   UNL     1       6.981   6.595  18.429  0.00  0.00    +0.000 Cl
ENDBRANCH   1   2
BRANCH   1  14
ATOM      9  C   UNL     1       2.610   6.772  19.749  0.00  0.00    +0.000 A 
ATOM     10  C   UNL     1       1.896   7.974  19.813  0.00  0.00    +0.000 A 
ATOM     11  C   UNL     1       1.879   8.835  18.720  0.00  0.00    +0.000 A 
ATOM     12  C   UNL     1       2.571   8.493  17.566  0.00  0.00    +0.000 A 
ATOM     13  C   UNL     1       3.287   7.293  17.510  0.00  0.00    +0.000 A 
ATOM     14  C   UNL     1       3.344   6.401  18.609  0.00  0.00    +0.000 A 
BRANCH   9  15
ATOM     15  O   UNL     1       2.563   5.934  20.832  0.00  0.00    +0.000 OA
ATOM     16  H   UNL     1       2.858   6.421  21.622  0.00  0.00    +0.000 HD
ENDBRANCH   9  15
ENDBRANCH   1  14
BRANCH   1  17
ATOM     17  C   UNL     1       3.122   3.903  18.605  0.00  0.00    +0.000 A 
ATOM     18  C   UNL     1       1.823   3.978  18.067  0.00  0.00    +0.000 A 
ATOM     19  C   UNL     1       0.892   2.962  18.295  0.00  0.00    +0.000 A 
ATOM     20  C   UNL     1       1.241   1.850  19.058  0.00  0.00    +0.000 A 
ATOM     21  C   UNL     1       2.520   1.748  19.592  0.00  0.00    +0.000 A 
ATOM     22  C   UNL     1       3.448   2.767  19.374  0.00  0.00    +0.000 A 
ENDBRANCH   1  17
BRANCH   1  23
ATOM     23  O   UNL     1       5.088   4.886  19.545  0.00  0.00    +0.000 OA
ATOM     24  H   UNL     1       4.894   5.564  20.212  0.00  0.00    +0.000 HD
ENDBRANCH   1  23
TORSDOF 5
ENDMDL
MODEL 5
REMARK VINA RESULT:      -7.0      1.350      4.820
REMARK  Name = 
REMARK  5 active torsions:
REMARK  status: ('A' for Active; 'I' for Inactive)
REMARK    1  A    between atoms: O_1  and  C_2
REMARK    2  A    between atoms: C_7  and  C_8
REMARK    3  A    between atoms: C_8  and  O_9
REMARK    4  A    between atoms: C_8  and  C_10
REMARK    5  A    between atoms: C_8  and  C_16
REMARK                            x       y       z     vdW  Elec       q    Type
REMARK                         _______ _______ _______ _____ _____    ______ ____
ROOT
ATOM      1  C   UNL     1       3.754   5.122  19.094  0.00  0.00    +0.000 C 
ENDROOT
BRANCH   1   2
ATOM      2  C   UNL     1       2.707   3.972  19.078  0.00  0.00    +0.000 A 
ATOM      3  C   UNL     1       1.397   4.175  18.582  0.00  0.00    +0.000 A 
ATOM      4  C   UNL     1       0.454   3.141  18.508  0.00  0.00    +0.000 A 
ATOM      5  C   UNL     1       0.796   1.856  18.901  0.00  0.00    +0.000 A 
ATOM      6  C   UNL     1       2.079   1.613  19.379  0.00  0.00    +0.000 A 
ATOM      7  C   UNL     1       3.024   2.648  19.472  0.00  0.00    +0.000 A 
ATOM      8 CL   UNL     1       4.574   2.165  20.084  0.00  0.00    +0.000 Cl
ENDBRANCH   1   2
BRANCH   1  14
ATOM      9  C   UNL     1       6.300   5.119  18.426  0.00  0.00    +0.000 A 
ATOM     10  C   UNL     1       7.323   4.980  17.480  0.00  0.00    +0.000 A 
ATOM     11  C   UNL     1       7.014   4.696  16.153  0.00  0.00    +0.000 A 
ATOM     12  C   UNL     1       5.687   4.555  15.772  0.00  0.00    +0.000 A 
ATOM     13  C   UNL     1       4.669   4.690  16.722  0.00  0.00    +0.000 A 
ATOM     14  C   UNL     1       4.945   4.959  18.086  0.00  0.00    +0.000 A 
BRANCH   9  15
ATOM     15  O   UNL     1       6.647   5.442  19.710  0.00  0.00    +0.000 OA
ATOM     16  H   UNL     1       7.434   6.016  19.690  0.00  0.00    +0.000 HD
ENDBRANCH   9  15
ENDBRANCH   1  14
BRANCH   1  17
ATOM     17  C   UNL     1       3.164   6.538  18.872  0.00  0.00    +0.000 A 
ATOM     18  C   UNL     1       2.306   7.153  19.804  0.00  0.00    +0.000 A 
ATOM     19  C   UNL     1       1.709   8.386  19.527  0.00  0.00    +0.000 A 
ATOM     20  C   UNL     1       1.962   9.030  18.318  0.00  0.00    +0.000 A 
ATOM     21  C   UNL     1       2.812   8.448  17.385  0.00  0.00    +0.000 A 
ATOM     22  C   UNL     1       3.401   7.213  17.656  0.00  0.00    +0.000 A 
ENDBRANCH   1  17
BRANCH   1  23
ATOM     23  O   UNL     1       4.204   5.088  20.462  0.00  0.00    +0.000 OA
ATOM     24  H   UNL     1       3.414   5.021  21.024  0.00  0.00    +0.000 HD
ENDBRANCH   1  23
TORSDOF 5
ENDMDL
MODEL 6
REMARK VINA RESULT:      -7.0      1.399      5.203
REMARK  Name = 
REMARK  5 active torsions:
REMARK  status: ('A' for Active; 'I' for Inactive)
REMARK    1  A    between atoms: O_1  and  C_2
REMARK    2  A    between atoms: C_7  and  C_8
REMARK    3  A    between atoms: C_8  and  O_9
REMARK    4  A    between atoms: C_8  and  C_10
REMARK    5  A    between atoms: C_8  and  C_16
REMARK                            x       y       z     vdW  Elec       q    Type
REMARK                         _______ _______ _______ _____ _____    ______ ____
ROOT
ATOM      1  C   UNL     1       4.161   5.179  18.507  0.00  0.00    +0.000 C 
ENDROOT
BRANCH   1   2
ATOM      2  C   UNL     1       5.059   5.046  17.243  0.00  0.00    +0.000 A 
ATOM      3  C   UNL     1       4.630   4.315  16.109  0.00  0.00    +0.000 A 
ATOM      4  C   UNL     1       5.398   4.226  14.940  0.00  0.00    +0.000 A 
ATOM      5  C   UNL     1       6.612   4.891  14.850  0.00  0.00    +0.000 A 
ATOM      6  C   UNL     1       7.059   5.633  15.938  0.00  0.00    +0.000 A 
ATOM      7  C   UNL     1       6.304   5.711  17.119  0.00  0.00    +0.000 A 
ATOM      8 CL   UNL     1       7.010   6.683  18.371  0.00  0.00    +0.000 Cl
ENDBRANCH   1   2
BRANCH   1  14
ATOM      9  C   UNL     1       2.570   6.886  19.724  0.00  0.00    +0.000 A 
ATOM     10  C   UNL     1       1.840   8.079  19.754  0.00  0.00    +0.000 A 
ATOM     11  C   UNL     1       1.842   8.927  18.650  0.00  0.00    +0.000 A 
ATOM     12  C   UNL     1       2.568   8.581  17.519  0.00  0.00    +0.000 A 
ATOM     13  C   UNL     1       3.300   7.389  17.497  0.00  0.00    +0.000 A 
ATOM     14  C   UNL     1       3.339   6.511  18.608  0.00  0.00    +0.000 A 
BRANCH   9  15
ATOM     15  O   UNL     1       2.504   6.061  20.815  0.00  0.00    +0.000 OA
ATOM     16  H   UNL     1       1.813   5.392  20.664  0.00  0.00    +0.000 HD
ENDBRANCH   9  15
ENDBRANCH   1  14
BRANCH   1  17
ATOM     17  C   UNL     1       3.162   4.012  18.717  0.00  0.00    +0.000 A 
ATOM     18  C   UNL     1       3.528   2.810  19.352  0.00  0.00    +0.000 A 
ATOM     19  C   UNL     1       2.633   1.740  19.434  0.00  0.00    +0.000 A 
ATOM     20  C   UNL     1       1.356   1.851  18.889  0.00  0.00    +0.000 A 
ATOM     21  C   UNL     1       0.968   3.031  18.265  0.00  0.00    +0.000 A 
ATOM     22  C   UNL     1       1.863   4.097  18.174  0.00  0.00    +0.000 A 
ENDBRANCH   1  17
BRANCH   1  23
ATOM     23  O   UNL     1       5.131   5.068  19.566  0.00  0.00    +0.000 OA
ATOM     24  H   UNL     1       4.913   5.741  20.231  0.00  0.00    +0.000 HD
ENDBRANCH   1  23
TORSDOF 5
ENDMDL
MODEL 7
REMARK VINA RESULT:      -7.0      1.358      4.820
REMARK  Name = 
REMARK  5 active torsions:
REMARK  status: ('A' for Active; 'I' for Inactive)
REMARK    1  A    between atoms: O_1  and  C_2
REMARK    2  A    between atoms: C_7  and  C_8
REMARK    3  A    between atoms: C_8  and  O_9
REMARK    4  A    between atoms: C_8  and  C_10
REMARK    5  A    between atoms: C_8  and  C_16
REMARK                            x       y       z     vdW  Elec       q    Type
REMARK                         _______ _______ _______ _____ _____    ______ ____
ROOT
ATOM      1  C   UNL     1       3.733   5.101  19.058  0.00  0.00    +0.000 C 
ENDROOT
BRANCH   1   2
ATOM      2  C   UNL     1       2.719   3.922  19.081  0.00  0.00    +0.000 A 
ATOM      3  C   UNL     1       1.399   4.074  18.591  0.00  0.00    +0.000 A 
ATOM      4  C   UNL     1       0.486   3.012  18.552  0.00  0.00    +0.000 A 
ATOM      5  C   UNL     1       0.868   1.748  18.975  0.00  0.00    +0.000 A 
ATOM      6  C   UNL     1       2.161   1.555  19.449  0.00  0.00    +0.000 A 
ATOM      7  C   UNL     1       3.076   2.619  19.508  0.00  0.00    +0.000 A 
ATOM      8 CL   UNL     1       4.644   2.197  20.120  0.00  0.00    +0.000 Cl
ENDBRANCH   1   2
BRANCH   1  14
ATOM      9  C   UNL     1       6.291   5.086  18.440  0.00  0.00    +0.000 A 
ATOM     10  C   UNL     1       7.331   4.937  17.515  0.00  0.00    +0.000 A 
ATOM     11  C   UNL     1       7.047   4.644  16.185  0.00  0.00    +0.000 A 
ATOM     12  C   UNL     1       5.727   4.504  15.780  0.00  0.00    +0.000 A 
ATOM     13  C   UNL     1       4.692   4.649  16.709  0.00  0.00    +0.000 A 
ATOM     14  C   UNL     1       4.942   4.927  18.075  0.00  0.00    +0.000 A 
BRANCH   9  15
ATOM     15  O   UNL     1       6.614   5.418  19.728  0.00  0.00    +0.000 OA
ATOM     16  H   UNL     1       5.815   5.356  20.281  0.00  0.00    +0.000 HD
ENDBRANCH   9  15
ENDBRANCH   1  14
BRANCH   1  17
ATOM     17  C   UNL     1       3.105   6.488  18.763  0.00  0.00    +0.000 A 
ATOM     18  C   UNL     1       3.413   7.225  17.603  0.00  0.00    +0.000 A 
ATOM     19  C   UNL     1       2.910   8.515  17.417  0.00  0.00    +0.000 A 
ATOM     20  C   UNL     1       2.086   9.092  18.382  0.00  0.00    +0.000 A 
ATOM     21  C   UNL     1       1.761   8.382  19.532  0.00  0.00    +0.000 A 
ATOM     22  C   UNL     1       2.270   7.097  19.723  0.00  0.00    +0.000 A 
ENDBRANCH   1  17
BRANCH   1  23
ATOM     23  O   UNL     1       4.162   5.143  20.432  0.00  0.00    +0.000 OA
ATOM     24  H   UNL     1       3.527   4.622  20.951  0.00  0.00    +0.000 HD
ENDBRANCH   1  23
TORSDOF 5
ENDMDL
MODEL 8
REMARK VINA RESULT:      -6.9      1.766      5.287
REMARK  Name = 
REMARK  5 active torsions:
REMARK  status: ('A' for Active; 'I' for Inactive)
REMARK    1  A    between atoms: O_1  and  C_2
REMARK    2  A    between atoms: C_7  and  C_8
REMARK    3  A    between atoms: C_8  and  O_9
REMARK    4  A    between atoms: C_8  and  C_10
REMARK    5  A    between atoms: C_8  and  C_16
REMARK                            x       y       z     vdW  Elec       q    Type
REMARK                         _______ _______ _______ _____ _____    ______ ____
ROOT
ATOM      1  C   UNL     1       3.343   5.923  19.000  0.00  0.00    +0.000 C 
ENDROOT
BRANCH   1   2
ATOM      2  C   UNL     1       4.286   5.701  17.783  0.00  0.00    +0.000 A 
ATOM      3  C   UNL     1       4.498   6.716  16.819  0.00  0.00    +0.000 A 
ATOM      4  C   UNL     1       5.383   6.558  15.745  0.00  0.00    +0.000 A 
ATOM      5  C   UNL     1       6.114   5.387  15.611  0.00  0.00    +0.000 A 
ATOM      6  C   UNL     1       5.945   4.372  16.546  0.00  0.00    +0.000 A 
ATOM      7  C   UNL     1       5.046   4.517  17.615  0.00  0.00    +0.000 A 
ATOM      8 CL   UNL     1       4.966   3.156  18.688  0.00  0.00    +0.000 Cl
ENDBRANCH   1   2
BRANCH   1  14
ATOM      9  C   UNL     1       1.875   7.827  20.072  0.00  0.00    +0.000 A 
ATOM     10  C   UNL     1       1.102   8.989  19.968  0.00  0.00    +0.000 A 
ATOM     11  C   UNL     1       0.897   9.583  18.726  0.00  0.00    +0.000 A 
ATOM     12  C   UNL     1       1.460   9.015  17.592  0.00  0.00    +0.000 A 
ATOM     13  C   UNL     1       2.236   7.857  17.703  0.00  0.00    +0.000 A 
ATOM     14  C   UNL     1       2.483   7.235  18.952  0.00  0.00    +0.000 A 
BRANCH   9  15
ATOM     15  O   UNL     1       2.014   7.251  21.307  0.00  0.00    +0.000 OA
ATOM     16  H   UNL     1       1.165   7.311  21.781  0.00  0.00    +0.000 HD
ENDBRANCH   9  15
ENDBRANCH   1  14
BRANCH   1  17
ATOM     17  C   UNL     1       2.367   4.752  19.286  0.00  0.00    +0.000 A 
ATOM     18  C   UNL     1       1.546   4.194  18.288  0.00  0.00    +0.000 A 
ATOM     19  C   UNL     1       0.605   3.209  18.600  0.00  0.00    +0.000 A 
ATOM     20  C   UNL     1       0.470   2.760  19.912  0.00  0.00    +0.000 A 
ATOM     21  C   UNL     1       1.275   3.290  20.914  0.00  0.00    +0.000 A 
ATOM     22  C   UNL     1       2.209   4.280  20.605  0.00  0.00    +0.000 A 
ENDBRANCH   1  17
BRANCH   1  23
ATOM     23  O   UNL     1       4.278   5.938  20.095  0.00  0.00    +0.000 OA
ATOM     24  H   UNL     1       5.015   5.351  19.855  0.00  0.00    +0.000 HD
ENDBRANCH   1  23
TORSDOF 5
ENDMDL
MODEL 9
REMARK VINA RESULT:      -6.8      2.210      4.725
REMARK  Name = 
REMARK  5 active torsions:
REMARK  status: ('A' for Active; 'I' for Inactive)
REMARK    1  A    between atoms: O_1  and  C_2
REMARK    2  A    between atoms: C_7  and  C_8
REMARK    3  A    between atoms: C_8  and  O_9
REMARK    4  A    between atoms: C_8  and  C_10
REMARK    5  A    between atoms: C_8  and  C_16
REMARK                            x       y       z     vdW  Elec       q    Type
REMARK                         _______ _______ _______ _____ _____    ______ ____
ROOT
ATOM      1  C   UNL     1       3.627   5.288  18.089  0.00  0.00    +0.000 C 
ENDROOT
BRANCH   1   2
ATOM      2  C   UNL     1       5.179   5.241  18.186  0.00  0.00    +0.000 A 
ATOM      3  C   UNL     1       5.864   5.777  19.303  0.00  0.00    +0.000 A 
ATOM      4  C   UNL     1       7.257   5.698  19.438  0.00  0.00    +0.000 A 
ATOM      5  C   UNL     1       8.015   5.054  18.472  0.00  0.00    +0.000 A 
ATOM      6  C   UNL     1       7.377   4.501  17.368  0.00  0.00    +0.000 A 
ATOM      7  C   UNL     1       5.984   4.591  17.217  0.00  0.00    +0.000 A 
ATOM      8 CL   UNL     1       5.356   3.842  15.783  0.00  0.00    +0.000 Cl
ENDBRANCH   1   2
BRANCH   1  14
ATOM      9  C   UNL     1       1.649   3.592  18.457  0.00  0.00    +0.000 A 
ATOM     10  C   UNL     1       1.009   2.592  19.199  0.00  0.00    +0.000 A 
ATOM     11  C   UNL     1       1.568   2.139  20.390  0.00  0.00    +0.000 A 
ATOM     12  C   UNL     1       2.762   2.687  20.840  0.00  0.00    +0.000 A 
ATOM     13  C   UNL     1       3.400   3.681  20.091  0.00  0.00    +0.000 A 
ATOM     14  C   UNL     1       2.872   4.153  18.864  0.00  0.00    +0.000 A 
BRANCH   9  15
ATOM     15  O   UNL     1       1.041   4.038  17.315  0.00  0.00    +0.000 OA
ATOM     16  H   UNL     1       0.912   3.286  16.710  0.00  0.00    +0.000 HD
ENDBRANCH   9  15
ENDBRANCH   1  14
BRANCH   1  17
ATOM     17  C   UNL     1       2.992   6.634  18.523  0.00  0.00    +0.000 A 
ATOM     18  C   UNL     1       2.367   6.806  19.773  0.00  0.00    +0.000 A 
ATOM     19  C   UNL     1       1.715   8.000  20.092  0.00  0.00    +0.000 A 
ATOM     20  C   UNL     1       1.679   9.045  19.173  0.00  0.00    +0.000 A 
ATOM     21  C   UNL     1       2.296   8.904  17.935  0.00  0.00    +0.000 A 
ATOM     22  C   UNL     1       2.939   7.709  17.611  0.00  0.00    +0.000 A 
ENDBRANCH   1  17
BRANCH   1  23
ATOM     23  O   UNL     1       3.421   5.191  16.666  0.00  0.00    +0.000 OA
ATOM     24  H   UNL     1       4.250   4.870  16.274  0.00  0.00    +0.000 HD
ENDBRANCH   1  23
TORSDOF 5
ENDMDL
