MODEL 1
REMARK VINA RESULT:      -8.6      0.000      0.000
REMARK  Name = 
REMARK  5 active torsions:
REMARK  status: ('A' for Active; 'I' for Inactive)
REMARK    1  A    between atoms: C_1  and  C_2
REMARK    2  A    between atoms: N_4  and  C_5
REMARK    3  A    between atoms: C_6  and  C_7
REMARK    4  A    between atoms: C_8  and  S_9
REMARK    5  A    between atoms: S_9  and  N_12
REMARK                            x       y       z     vdW  Elec       q    Type
REMARK                         _______ _______ _______ _____ _____    ______ ____
ROOT
ATOM      1  S   UNL     1       5.673   4.716  18.967  0.00  0.00    +0.000 S 
ATOM      2  O   UNL     1       5.576   3.277  19.081  0.00  0.00    +0.000 OA
ATOM      3  O   UNL     1       6.514   5.489  19.859  0.00  0.00    +0.000 OA
ENDROOT
BRANCH   1   4
ATOM      4  N   UNL     1       4.091   5.358  19.014  0.00  0.00    +0.000 N 
ATOM      5  C   UNL     1       3.701   6.289  17.928  0.00  0.00    +0.000 C 
ATOM      6  C   UNL     1       2.991   7.520  18.509  0.00  0.00    +0.000 C 
ATOM      7  C   UNL     1       1.777   7.287  19.425  0.00  0.00    +0.000 C 
ATOM      8  C   UNL     1       2.016   6.340  20.608  0.00  0.00    +0.000 C 
ATOM      9  C   UNL     1       1.973   4.913  20.126  0.00  0.00    +0.000 A 
ATOM     10  C   UNL     1       0.828   4.131  20.345  0.00  0.00    +0.000 A 
ATOM     11  C   UNL     1       0.696   2.892  19.725  0.00  0.00    +0.000 A 
ATOM     12  C   UNL     1       1.703   2.433  18.878  0.00  0.00    +0.000 A 
ATOM     13  C   UNL     1       2.863   3.195  18.683  0.00  0.00    +0.000 A 
ATOM     14  C   UNL     1       3.026   4.423  19.341  0.00  0.00    +0.000 A 
ENDBRANCH   1   4
BRANCH   1  22
ATOM     15  C   UNL     1       7.731   7.225  17.880  0.00  0.00    +0.000 C 
ATOM     16  C   UNL     1       7.250   6.079  17.067  0.00  0.00    +0.000 A 
ATOM     17  N   UNL     1       7.612   6.023  15.779  0.00  0.00    +0.000 NA
ATOM     18  N   UNL     1       6.929   4.985  15.277  0.00  0.00    +0.000 N 
ATOM     19  C   UNL     1       7.004   4.748  13.852  0.00  0.00    +0.000 C 
ATOM     20  C   UNL     1       6.189   4.308  16.217  0.00  0.00    +0.000 A 
ATOM     21  C   UNL     1       5.318   3.152  15.890  0.00  0.00    +0.000 C 
ATOM     22  C   UNL     1       6.399   4.994  17.411  0.00  0.00    +0.000 A 
ENDBRANCH   1  22
TORSDOF 2
ENDMDL
MODEL 2
REMARK VINA RESULT:      -7.9      1.884      5.943
REMARK  Name = 
REMARK  5 active torsions:
REMARK  status: ('A' for Active; 'I' for Inactive)
REMARK    1  A    between atoms: C_1  and  C_2
REMARK    2  A    between atoms: N_4  and  C_5
REMARK    3  A    between atoms: C_6  and  C_7
REMARK    4  A    between atoms: C_8  and  S_9
REMARK    5  A    between atoms: S_9  and  N_12
REMARK                            x       y       z     vdW  Elec       q    Type
REMARK                         _______ _______ _______ _____ _____    ______ ____
ROOT
ATOM      1  S   UNL     1       3.549   4.337  18.403  0.00  0.00    +0.000 S 
ATOM      2  O   UNL     1       3.652   3.131  19.195  0.00  0.00    +0.000 OA
ATOM      3  O   UNL     1       2.777   4.372  17.178  0.00  0.00    +0.000 OA
ENDROOT
BRANCH   1   4
ATOM      4  N   UNL     1       5.131   4.885  18.068  0.00  0.00    +0.000 N 
ATOM      5  C   UNL     1       6.210   4.459  18.992  0.00  0.00    +0.000 C 
ATOM      6  C   UNL     1       7.100   5.654  19.362  0.00  0.00    +0.000 C 
ATOM      7  C   UNL     1       7.721   6.472  18.216  0.00  0.00    +0.000 C 
ATOM      8  C   UNL     1       6.731   6.992  17.166  0.00  0.00    +0.000 C 
ATOM      9  C   UNL     1       6.368   5.875  16.221  0.00  0.00    +0.000 A 
ATOM     10  C   UNL     1       6.954   5.813  14.948  0.00  0.00    +0.000 A 
ATOM     11  C   UNL     1       6.789   4.682  14.154  0.00  0.00    +0.000 A 
ATOM     12  C   UNL     1       6.045   3.605  14.633  0.00  0.00    +0.000 A 
ATOM     13  C   UNL     1       5.431   3.676  15.890  0.00  0.00    +0.000 A 
ATOM     14  C   UNL     1       5.552   4.831  16.677  0.00  0.00    +0.000 A 
ENDBRANCH   1   4
BRANCH   1  22
ATOM     15  C   UNL     1       1.618   3.834  21.184  0.00  0.00    +0.000 C 
ATOM     16  C   UNL     1       1.933   5.149  20.567  0.00  0.00    +0.000 A 
ATOM     17  N   UNL     1       1.392   6.246  21.112  0.00  0.00    +0.000 NA
ATOM     18  N   UNL     1       1.729   7.241  20.279  0.00  0.00    +0.000 N 
ATOM     19  C   UNL     1       1.168   8.552  20.527  0.00  0.00    +0.000 C 
ATOM     20  C   UNL     1       2.542   6.842  19.246  0.00  0.00    +0.000 A 
ATOM     21  C   UNL     1       3.009   7.758  18.176  0.00  0.00    +0.000 C 
ATOM     22  C   UNL     1       2.712   5.471  19.423  0.00  0.00    +0.000 A 
ENDBRANCH   1  22
TORSDOF 2
ENDMDL
MODEL 3
REMARK VINA RESULT:      -7.3      1.333      2.740
REMARK  Name = 
REMARK  5 active torsions:
REMARK  status: ('A' for Active; 'I' for Inactive)
REMARK    1  A    between atoms: C_1  and  C_2
REMARK    2  A    between atoms: N_4  and  C_5
REMARK    3  A    between atoms: C_6  and  C_7
REMARK    4  A    between atoms: C_8  and  S_9
REMARK    5  A    between atoms: S_9  and  N_12
REMARK                            x       y       z     vdW  Elec       q    Type
REMARK                         _______ _______ _______ _____ _____    ______ ____
ROOT
ATOM      1  S   UNL     1       5.410   5.281  18.924  0.00  0.00    +0.000 S 
ATOM      2  O   UNL     1       6.471   5.204  19.903  0.00  0.00    +0.000 OA
ATOM      3  O   UNL     1       4.539   6.436  18.843  0.00  0.00    +0.000 OA
ENDROOT
BRANCH   1   4
ATOM      4  N   UNL     1       4.445   3.880  19.078  0.00  0.00    +0.000 N 
ATOM      5  C   UNL     1       5.012   2.744  19.844  0.00  0.00    +0.000 C 
ATOM      6  C   UNL     1       4.793   1.427  19.087  0.00  0.00    +0.000 C 
ATOM      7  C   UNL     1       3.358   1.071  18.659  0.00  0.00    +0.000 C 
ATOM      8  C   UNL     1       2.626   2.150  17.850  0.00  0.00    +0.000 C 
ATOM      9  C   UNL     1       2.121   3.221  18.783  0.00  0.00    +0.000 A 
ATOM     10  C   UNL     1       0.768   3.251  19.153  0.00  0.00    +0.000 A 
ATOM     11  C   UNL     1       0.338   4.098  20.169  0.00  0.00    +0.000 A 
ATOM     12  C   UNL     1       1.258   4.913  20.825  0.00  0.00    +0.000 A 
ATOM     13  C   UNL     1       2.605   4.910  20.437  0.00  0.00    +0.000 A 
ATOM     14  C   UNL     1       3.039   4.095  19.382  0.00  0.00    +0.000 A 
ENDBRANCH   1   4
BRANCH   1  22
ATOM     15  C   UNL     1       7.783   7.408  17.676  0.00  0.00    +0.000 C 
ATOM     16  C   UNL     1       7.204   6.236  16.969  0.00  0.00    +0.000 A 
ATOM     17  N   UNL     1       7.607   5.995  15.715  0.00  0.00    +0.000 NA
ATOM     18  N   UNL     1       6.829   4.988  15.295  0.00  0.00    +0.000 N 
ATOM     19  C   UNL     1       6.931   4.583  13.909  0.00  0.00    +0.000 C 
ATOM     20  C   UNL     1       5.980   4.508  16.264  0.00  0.00    +0.000 A 
ATOM     21  C   UNL     1       4.995   3.425  16.020  0.00  0.00    +0.000 C 
ATOM     22  C   UNL     1       6.222   5.297  17.385  0.00  0.00    +0.000 A 
ENDBRANCH   1  22
TORSDOF 2
ENDMDL
MODEL 4
REMARK VINA RESULT:      -7.1      2.017      5.835
REMARK  Name = 
REMARK  5 active torsions:
REMARK  status: ('A' for Active; 'I' for Inactive)
REMARK    1  A    between atoms: C_1  and  C_2
REMARK    2  A    between atoms: N_4  and  C_5
REMARK    3  A    between atoms: C_6  and  C_7
REMARK    4  A    between atoms: C_8  and  S_9
REMARK    5  A    between atoms: S_9  and  N_12
REMARK                            x       y       z     vdW  Elec       q    Type
REMARK                         _______ _______ _______ _____ _____    ______ ____
ROOT
ATOM      1  S   UNL     1       3.550   4.584  18.355  0.00  0.00    +0.000 S 
ATOM      2  O   UNL     1       3.531   3.545  19.361  0.00  0.00    +0.000 OA
ATOM      3  O   UNL     1       2.880   4.415  17.082  0.00  0.00    +0.000 OA
ENDROOT
BRANCH   1   4
ATOM      4  N   UNL     1       5.179   5.007  18.064  0.00  0.00    +0.000 N 
ATOM      5  C   UNL     1       6.196   4.498  19.016  0.00  0.00    +0.000 C 
ATOM      6  C   UNL     1       7.166   5.620  19.412  0.00  0.00    +0.000 C 
ATOM      7  C   UNL     1       7.880   6.386  18.284  0.00  0.00    +0.000 C 
ATOM      8  C   UNL     1       6.962   6.981  17.209  0.00  0.00    +0.000 C 
ATOM      9  C   UNL     1       6.539   5.895  16.252  0.00  0.00    +0.000 A 
ATOM     10  C   UNL     1       7.153   5.787  14.995  0.00  0.00    +0.000 A 
ATOM     11  C   UNL     1       6.922   4.671  14.196  0.00  0.00    +0.000 A 
ATOM     12  C   UNL     1       6.083   3.656  14.653  0.00  0.00    +0.000 A 
ATOM     13  C   UNL     1       5.442   3.776  15.893  0.00  0.00    +0.000 A 
ATOM     14  C   UNL     1       5.632   4.919  16.684  0.00  0.00    +0.000 A 
ENDBRANCH   1   4
BRANCH   1  22
ATOM     15  C   UNL     1       3.340   7.868  17.415  0.00  0.00    +0.000 C 
ATOM     16  C   UNL     1       2.671   7.253  18.591  0.00  0.00    +0.000 A 
ATOM     17  N   UNL     1       1.946   8.047  19.390  0.00  0.00    +0.000 NA
ATOM     18  N   UNL     1       1.593   7.264  20.419  0.00  0.00    +0.000 N 
ATOM     19  C   UNL     1       0.906   7.877  21.534  0.00  0.00    +0.000 C 
ATOM     20  C   UNL     1       1.998   5.957  20.280  0.00  0.00    +0.000 A 
ATOM     21  C   UNL     1       1.759   4.916  21.310  0.00  0.00    +0.000 C 
ATOM     22  C   UNL     1       2.692   5.917  19.073  0.00  0.00    +0.000 A 
ENDBRANCH   1  22
TORSDOF 2
ENDMDL
MODEL 5
REMARK VINA RESULT:      -7.0      2.106      5.929
REMARK  Name = 
REMARK  5 active torsions:
REMARK  status: ('A' for Active; 'I' for Inactive)
REMARK    1  A    between atoms: C_1  and  C_2
REMARK    2  A    between atoms: N_4  and  C_5
REMARK    3  A    between atoms: C_6  and  C_7
REMARK    4  A    between atoms: C_8  and  S_9
REMARK    5  A    between atoms: S_9  and  N_12
REMARK                            x       y       z     vdW  Elec       q    Type
REMARK                         _______ _______ _______ _____ _____    ______ ____
ROOT
ATOM      1  S   UNL     1       3.089   5.038  17.639  0.00  0.00    +0.000 S 
ATOM      2  O   UNL     1       2.745   3.959  16.739  0.00  0.00    +0.000 OA
ATOM      3  O   UNL     1       2.530   6.365  17.475  0.00  0.00    +0.000 OA
ENDROOT
BRANCH   1   4
ATOM      4  N   UNL     1       4.792   5.165  17.685  0.00  0.00    +0.000 N 
ATOM      5  C   UNL     1       5.501   4.429  18.759  0.00  0.00    +0.000 C 
ATOM      6  C   UNL     1       6.555   5.330  19.418  0.00  0.00    +0.000 C 
ATOM      7  C   UNL     1       7.596   6.005  18.507  0.00  0.00    +0.000 C 
ATOM      8  C   UNL     1       7.021   6.814  17.337  0.00  0.00    +0.000 C 
ATOM      9  C   UNL     1       6.610   5.875  16.232  0.00  0.00    +0.000 A 
ATOM     10  C   UNL     1       7.428   5.717  15.102  0.00  0.00    +0.000 A 
ATOM     11  C   UNL     1       7.167   4.706  14.183  0.00  0.00    +0.000 A 
ATOM     12  C   UNL     1       6.093   3.843  14.393  0.00  0.00    +0.000 A 
ATOM     13  C   UNL     1       5.254   4.017  15.502  0.00  0.00    +0.000 A 
ATOM     14  C   UNL     1       5.481   5.063  16.408  0.00  0.00    +0.000 A 
ENDBRANCH   1   4
BRANCH   1  22
ATOM     15  C   UNL     1       2.177   6.885  20.371  0.00  0.00    +0.000 C 
ATOM     16  C   UNL     1       2.118   5.405  20.260  0.00  0.00    +0.000 A 
ATOM     17  N   UNL     1       1.709   4.708  21.329  0.00  0.00    +0.000 NA
ATOM     18  N   UNL     1       1.891   3.425  20.990  0.00  0.00    +0.000 N 
ATOM     19  C   UNL     1       1.665   2.417  22.003  0.00  0.00    +0.000 C 
ATOM     20  C   UNL     1       2.335   3.255  19.700  0.00  0.00    +0.000 A 
ATOM     21  C   UNL     1       2.648   1.928  19.115  0.00  0.00    +0.000 C 
ATOM     22  C   UNL     1       2.471   4.543  19.188  0.00  0.00    +0.000 A 
ENDBRANCH   1  22
TORSDOF 2
ENDMDL
MODEL 6
REMARK VINA RESULT:      -7.0      1.688      2.480
REMARK  Name = 
REMARK  5 active torsions:
REMARK  status: ('A' for Active; 'I' for Inactive)
REMARK    1  A    between atoms: C_1  and  C_2
REMARK    2  A    between atoms: N_4  and  C_5
REMARK    3  A    between atoms: C_6  and  C_7
REMARK    4  A    between atoms: C_8  and  S_9
REMARK    5  A    between atoms: S_9  and  N_12
REMARK                            x       y       z     vdW  Elec       q    Type
REMARK                         _______ _______ _______ _____ _____    ______ ____
ROOT
ATOM      1  S   UNL     1       5.107   4.496  18.042  0.00  0.00    +0.000 S 
ATOM      2  O   UNL     1       4.820   4.033  16.702  0.00  0.00    +0.000 OA
ATOM      3  O   UNL     1       5.907   3.708  18.958  0.00  0.00    +0.000 OA
ENDROOT
BRANCH   1   4
ATOM      4  N   UNL     1       3.624   4.874  18.800  0.00  0.00    +0.000 N 
ATOM      5  C   UNL     1       2.893   6.068  18.310  0.00  0.00    +0.000 C 
ATOM      6  C   UNL     1       2.406   6.918  19.492  0.00  0.00    +0.000 C 
ATOM      7  C   UNL     1       1.559   6.227  20.575  0.00  0.00    +0.000 C 
ATOM      8  C   UNL     1       2.178   4.965  21.190  0.00  0.00    +0.000 C 
ATOM      9  C   UNL     1       1.988   3.803  20.249  0.00  0.00    +0.000 A 
ATOM     10  C   UNL     1       0.983   2.856  20.495  0.00  0.00    +0.000 A 
ATOM     11  C   UNL     1       0.663   1.905  19.530  0.00  0.00    +0.000 A 
ATOM     12  C   UNL     1       1.340   1.903  18.312  0.00  0.00    +0.000 A 
ATOM     13  C   UNL     1       2.367   2.826  18.075  0.00  0.00    +0.000 A 
ATOM     14  C   UNL     1       2.729   3.757  19.060  0.00  0.00    +0.000 A 
ENDBRANCH   1   4
BRANCH   1  22
ATOM     15  C   UNL     1       5.123   6.804  15.516  0.00  0.00    +0.000 C 
ATOM     16  C   UNL     1       5.985   6.830  16.726  0.00  0.00    +0.000 A 
ATOM     17  N   UNL     1       6.884   7.817  16.839  0.00  0.00    +0.000 NA
ATOM     18  N   UNL     1       7.596   7.506  17.931  0.00  0.00    +0.000 N 
ATOM     19  C   UNL     1       8.748   8.322  18.245  0.00  0.00    +0.000 C 
ATOM     20  C   UNL     1       7.140   6.385  18.584  0.00  0.00    +0.000 A 
ATOM     21  C   UNL     1       7.794   5.824  19.792  0.00  0.00    +0.000 C 
ATOM     22  C   UNL     1       6.065   5.932  17.824  0.00  0.00    +0.000 A 
ENDBRANCH   1  22
TORSDOF 2
ENDMDL
MODEL 7
REMARK VINA RESULT:      -6.9      2.194      6.087
REMARK  Name = 
REMARK  5 active torsions:
REMARK  status: ('A' for Active; 'I' for Inactive)
REMARK    1  A    between atoms: C_1  and  C_2
REMARK    2  A    between atoms: N_4  and  C_5
REMARK    3  A    between atoms: C_6  and  C_7
REMARK    4  A    between atoms: C_8  and  S_9
REMARK    5  A    between atoms: S_9  and  N_12
REMARK                            x       y       z     vdW  Elec       q    Type
REMARK                         _______ _______ _______ _____ _____    ______ ____
ROOT
ATOM      1  S   UNL     1       3.194   4.856  17.846  0.00  0.00    +0.000 S 
ATOM      2  O   UNL     1       2.805   4.127  16.658  0.00  0.00    +0.000 OA
ATOM      3  O   UNL     1       2.552   6.104  18.209  0.00  0.00    +0.000 OA
ENDROOT
BRANCH   1   4
ATOM      4  N   UNL     1       4.882   5.108  17.783  0.00  0.00    +0.000 N 
ATOM      5  C   UNL     1       5.707   4.464  18.833  0.00  0.00    +0.000 C 
ATOM      6  C   UNL     1       6.728   5.462  19.397  0.00  0.00    +0.000 C 
ATOM      7  C   UNL     1       7.659   6.178  18.403  0.00  0.00    +0.000 C 
ATOM      8  C   UNL     1       6.957   6.901  17.247  0.00  0.00    +0.000 C 
ATOM      9  C   UNL     1       6.552   5.897  16.199  0.00  0.00    +0.000 A 
ATOM     10  C   UNL     1       7.311   5.760  15.026  0.00  0.00    +0.000 A 
ATOM     11  C   UNL     1       7.072   4.700  14.156  0.00  0.00    +0.000 A 
ATOM     12  C   UNL     1       6.080   3.770  14.459  0.00  0.00    +0.000 A 
ATOM     13  C   UNL     1       5.298   3.921  15.611  0.00  0.00    +0.000 A 
ATOM     14  C   UNL     1       5.500   5.012  16.469  0.00  0.00    +0.000 A 
ENDBRANCH   1   4
BRANCH   1  22
ATOM     15  C   UNL     1       3.556   1.473  18.206  0.00  0.00    +0.000 C 
ATOM     16  C   UNL     1       2.981   2.401  19.215  0.00  0.00    +0.000 A 
ATOM     17  N   UNL     1       2.523   1.881  20.361  0.00  0.00    +0.000 NA
ATOM     18  N   UNL     1       1.948   2.911  20.997  0.00  0.00    +0.000 N 
ATOM     19  C   UNL     1       1.230   2.636  22.223  0.00  0.00    +0.000 C 
ATOM     20  C   UNL     1       2.084   4.109  20.337  0.00  0.00    +0.000 A 
ATOM     21  C   UNL     1       1.494   5.380  20.826  0.00  0.00    +0.000 C 
ATOM     22  C   UNL     1       2.781   3.806  19.170  0.00  0.00    +0.000 A 
ENDBRANCH   1  22
TORSDOF 2
ENDMDL
MODEL 8
REMARK VINA RESULT:      -6.6      1.793      2.306
REMARK  Name = 
REMARK  5 active torsions:
REMARK  status: ('A' for Active; 'I' for Inactive)
REMARK    1  A    between atoms: C_1  and  C_2
REMARK    2  A    between atoms: N_4  and  C_5
REMARK    3  A    between atoms: C_6  and  C_7
REMARK    4  A    between atoms: C_8  and  S_9
REMARK    5  A    between atoms: S_9  and  N_12
REMARK                            x       y       z     vdW  Elec       q    Type
REMARK                         _______ _______ _______ _____ _____    ______ ____
ROOT
ATOM      1  S   UNL     1       5.325   4.546  18.097  0.00  0.00    +0.000 S 
ATOM      2  O   UNL     1       5.160   4.215  16.698  0.00  0.00    +0.000 OA
ATOM      3  O   UNL     1       5.877   3.593  19.038  0.00  0.00    +0.000 OA
ENDROOT
BRANCH   1   4
ATOM      4  N   UNL     1       3.821   5.093  18.691  0.00  0.00    +0.000 N 
ATOM      5  C   UNL     1       3.179   6.227  17.982  0.00  0.00    +0.000 C 
ATOM      6  C   UNL     1       2.666   7.265  18.990  0.00  0.00    +0.000 C 
ATOM      7  C   UNL     1       1.725   6.781  20.107  0.00  0.00    +0.000 C 
ATOM      8  C   UNL     1       2.245   5.604  20.941  0.00  0.00    +0.000 C 
ATOM      9  C   UNL     1       2.053   4.321  20.175  0.00  0.00    +0.000 A 
ATOM     10  C   UNL     1       0.990   3.462  20.493  0.00  0.00    +0.000 A 
ATOM     11  C   UNL     1       0.680   2.390  19.662  0.00  0.00    +0.000 A 
ATOM     12  C   UNL     1       1.427   2.176  18.505  0.00  0.00    +0.000 A 
ATOM     13  C   UNL     1       2.510   3.011  18.199  0.00  0.00    +0.000 A 
ATOM     14  C   UNL     1       2.859   4.065  19.057  0.00  0.00    +0.000 A 
ENDBRANCH   1   4
BRANCH   1  22
ATOM     15  C   UNL     1       7.982   5.116  20.177  0.00  0.00    +0.000 C 
ATOM     16  C   UNL     1       7.571   5.971  19.034  0.00  0.00    +0.000 A 
ATOM     17  N   UNL     1       8.268   7.092  18.802  0.00  0.00    +0.000 NA
ATOM     18  N   UNL     1       7.596   7.715  17.824  0.00  0.00    +0.000 N 
ATOM     19  C   UNL     1       8.030   9.040  17.440  0.00  0.00    +0.000 C 
ATOM     20  C   UNL     1       6.521   6.998  17.352  0.00  0.00    +0.000 A 
ATOM     21  C   UNL     1       5.604   7.503  16.301  0.00  0.00    +0.000 C 
ATOM     22  C   UNL     1       6.495   5.834  18.116  0.00  0.00    +0.000 A 
ENDBRANCH   1  22
TORSDOF 2
ENDMDL
MODEL 9
REMARK VINA RESULT:      -6.5      2.292      5.732
REMARK  Name = 
REMARK  5 active torsions:
REMARK  status: ('A' for Active; 'I' for Inactive)
REMARK    1  A    between atoms: C_1  and  C_2
REMARK    2  A    between atoms: N_4  and  C_5
REMARK    3  A    between atoms: C_6  and  C_7
REMARK    4  A    between atoms: C_8  and  S_9
REMARK    5  A    between atoms: S_9  and  N_12
REMARK                            x       y       z     vdW  Elec       q    Type
REMARK                         _______ _______ _______ _____ _____    ______ ____
ROOT
ATOM      1  S   UNL     1       3.500   5.097  18.737  0.00  0.00    +0.000 S 
ATOM      2  O   UNL     1       3.403   4.428  20.016  0.00  0.00    +0.000 OA
ATOM      3  O   UNL     1       2.808   4.593  17.568  0.00  0.00    +0.000 OA
ENDROOT
BRANCH   1   4
ATOM      4  N   UNL     1       5.156   5.275  18.358  0.00  0.00    +0.000 N 
ATOM      5  C   UNL     1       6.138   4.706  19.312  0.00  0.00    +0.000 C 
ATOM      6  C   UNL     1       7.263   5.713  19.585  0.00  0.00    +0.000 C 
ATOM      7  C   UNL     1       8.021   6.292  18.377  0.00  0.00    +0.000 C 
ATOM      8  C   UNL     1       7.143   6.924  17.290  0.00  0.00    +0.000 C 
ATOM      9  C   UNL     1       6.539   5.838  16.437  0.00  0.00    +0.000 A 
ATOM     10  C   UNL     1       7.077   5.556  15.172  0.00  0.00    +0.000 A 
ATOM     11  C   UNL     1       6.667   4.426  14.471  0.00  0.00    +0.000 A 
ATOM     12  C   UNL     1       5.723   3.569  15.035  0.00  0.00    +0.000 A 
ATOM     13  C   UNL     1       5.159   3.864  16.283  0.00  0.00    +0.000 A 
ATOM     14  C   UNL     1       5.531   5.026  16.975  0.00  0.00    +0.000 A 
ENDBRANCH   1   4
BRANCH   1  22
ATOM     15  C   UNL     1       1.308   6.163  21.140  0.00  0.00    +0.000 C 
ATOM     16  C   UNL     1       1.857   6.988  20.032  0.00  0.00    +0.000 A 
ATOM     17  N   UNL     1       1.440   8.256  19.925  0.00  0.00    +0.000 NA
ATOM     18  N   UNL     1       1.980   8.696  18.780  0.00  0.00    +0.000 N 
ATOM     19  C   UNL     1       1.598  10.011  18.311  0.00  0.00    +0.000 C 
ATOM     20  C   UNL     1       2.805   7.779  18.173  0.00  0.00    +0.000 A 
ATOM     21  C   UNL     1       3.480   8.025  16.874  0.00  0.00    +0.000 C 
ATOM     22  C   UNL     1       2.760   6.652  18.988  0.00  0.00    +0.000 A 
ENDBRANCH   1  22
TORSDOF 2
ENDMDL
