MODEL 1
REMARK VINA RESULT:      -8.4      0.000      0.000
REMARK  Name = 
REMARK  9 active torsions:
REMARK  status: ('A' for Active; 'I' for Inactive)
REMARK    1  A    between atoms: C_1  and  O_2
REMARK    2  A    between atoms: O_2  and  C_3
REMARK    3  A    between atoms: C_3  and  C_4
REMARK    4  A    between atoms: C_4  and  N_5
REMARK    5  A    between atoms: C_4  and  C_23
REMARK    6  A    between atoms: N_8  and  C_9
REMARK    7  A    between atoms: N_14  and  C_15
REMARK    8  A    between atoms: C_15  and  C_16
REMARK    9  A    between atoms: C_15  and  C_17
REMARK                            x       y       z     vdW  Elec       q    Type
REMARK                         _______ _______ _______ _____ _____    ______ ____
ROOT
ATOM      1  N   UNL     1       1.000   9.371  19.746  0.00  0.00    +0.000 N 
ATOM      2  C   UNL     1       1.099   8.832  20.997  0.00  0.00    +0.000 C 
ATOM      3  O   UNL     1       0.668   9.394  22.003  0.00  0.00    +0.000 OA
ATOM      4  N   UNL     1       1.580   7.555  21.076  0.00  0.00    +0.000 N 
ATOM      5  H   UNL     1       1.519   8.962  18.995  0.00  0.00    +0.000 HD
ATOM      6  H   UNL     1       1.149   7.019  21.812  0.00  0.00    +0.000 HD
ENDROOT
BRANCH   4   7
ATOM      7  C   UNL     1       2.149   6.804  20.037  0.00  0.00    +0.000 A 
ATOM      8  N   UNL     1       2.557   7.510  18.961  0.00  0.00    +0.000 NA
ATOM      9  C   UNL     1       3.264   6.881  17.979  0.00  0.00    +0.000 A 
ATOM     10  C   UNL     1       3.485   5.500  18.035  0.00  0.00    +0.000 A 
ATOM     11  C   UNL     1       4.178   4.518  17.269  0.00  0.00    +0.000 A 
ATOM     12  N   UNL     1       4.845   4.788  16.128  0.00  0.00    +0.000 N 
ATOM     13  N   UNL     1       4.100   3.312  17.839  0.00  0.00    +0.000 NA
ATOM     14  N   UNL     1       3.321   3.498  18.912  0.00  0.00    +0.000 N 
ATOM     15  C   UNL     1       2.973   4.797  19.119  0.00  0.00    +0.000 A 
ATOM     16  C   UNL     1       2.290   5.420  20.146  0.00  0.00    +0.000 A 
ATOM     17  F   UNL     1       1.846   4.725  21.202  0.00  0.00    +0.000 F 
ATOM     18  H   UNL     1       4.664   5.625  15.587  0.00  0.00    +0.000 HD
ATOM     19  H   UNL     1       3.086   2.692  19.482  0.00  0.00    +0.000 HD
BRANCH  12  20
ATOM     20  C   UNL     1       5.943   3.941  15.670  0.00  0.00    +0.000 C 
ATOM     21  C   UNL     1       6.064   3.982  14.151  0.00  0.00    +0.000 C 
ATOM     22  C   UNL     1       7.244   4.423  16.313  0.00  0.00    +0.000 C 
ENDBRANCH  12  20
ENDBRANCH   4   7
BRANCH   1  23
ATOM     23  C   UNL     1       0.508  10.715  19.500  0.00  0.00    +0.000 C 
BRANCH  23  24
ATOM     24  C   UNL     1      -0.838  10.663  18.781  0.00  0.00    +0.000 A 
ATOM     25  C   UNL     1      -1.880  11.509  19.195  0.00  0.00    +0.000 A 
ATOM     26  C   UNL     1      -3.042  11.636  18.432  0.00  0.00    +0.000 A 
ATOM     27  C   UNL     1      -3.187  10.906  17.255  0.00  0.00    +0.000 A 
ATOM     28  C   UNL     1      -2.200   9.999  16.875  0.00  0.00    +0.000 A 
ATOM     29  C   UNL     1      -1.041   9.863  17.643  0.00  0.00    +0.000 A 
ENDBRANCH  23  24
BRANCH  23  30
ATOM     30  C   UNL     1       1.549  11.514  18.683  0.00  0.00    +0.000 C 
BRANCH  30  32
ATOM     31  C   UNL     1       2.496  13.640  18.355  0.00  0.00    +0.000 C 
ATOM     32  O   UNL     1       1.739  12.819  19.232  0.00  0.00    +0.000 OA
ENDBRANCH  30  32
ENDBRANCH  23  30
ENDBRANCH   1  23
TORSDOF 6
ENDMDL
MODEL 2
REMARK VINA RESULT:      -8.3      0.557      1.077
REMARK  Name = 
REMARK  9 active torsions:
REMARK  status: ('A' for Active; 'I' for Inactive)
REMARK    1  A    between atoms: C_1  and  O_2
REMARK    2  A    between atoms: O_2  and  C_3
REMARK    3  A    between atoms: C_3  and  C_4
REMARK    4  A    between atoms: C_4  and  N_5
REMARK    5  A    between atoms: C_4  and  C_23
REMARK    6  A    between atoms: N_8  and  C_9
REMARK    7  A    between atoms: N_14  and  C_15
REMARK    8  A    between atoms: C_15  and  C_16
REMARK    9  A    between atoms: C_15  and  C_17
REMARK                            x       y       z     vdW  Elec       q    Type
REMARK                         _______ _______ _______ _____ _____    ______ ____
ROOT
ATOM      1  N   UNL     1       0.890   9.534  19.772  0.00  0.00    +0.000 N 
ATOM      2  C   UNL     1       0.989   8.980  21.017  0.00  0.00    +0.000 C 
ATOM      3  O   UNL     1       0.559   9.531  22.030  0.00  0.00    +0.000 OA
ATOM      4  N   UNL     1       1.469   7.701  21.081  0.00  0.00    +0.000 N 
ATOM      5  H   UNL     1       1.407   9.133  19.017  0.00  0.00    +0.000 HD
ATOM      6  H   UNL     1       1.036   7.158  21.811  0.00  0.00    +0.000 HD
ENDROOT
BRANCH   4   7
ATOM      7  C   UNL     1       2.035   6.962  20.033  0.00  0.00    +0.000 A 
ATOM      8  N   UNL     1       2.544   7.686  19.014  0.00  0.00    +0.000 NA
ATOM      9  C   UNL     1       3.253   7.056  18.035  0.00  0.00    +0.000 A 
ATOM     10  C   UNL     1       3.377   5.662  18.032  0.00  0.00    +0.000 A 
ATOM     11  C   UNL     1       4.038   4.670  17.250  0.00  0.00    +0.000 A 
ATOM     12  N   UNL     1       4.778   4.946  16.156  0.00  0.00    +0.000 N 
ATOM     13  N   UNL     1       3.850   3.448  17.754  0.00  0.00    +0.000 NA
ATOM     14  N   UNL     1       3.034   3.638  18.799  0.00  0.00    +0.000 N 
ATOM     15  C   UNL     1       2.765   4.947  19.054  0.00  0.00    +0.000 A 
ATOM     16  C   UNL     1       2.076   5.568  20.079  0.00  0.00    +0.000 A 
ATOM     17  F   UNL     1       1.534   4.857  21.077  0.00  0.00    +0.000 F 
ATOM     18  H   UNL     1       4.682   5.818  15.650  0.00  0.00    +0.000 HD
ATOM     19  H   UNL     1       2.717   2.824  19.316  0.00  0.00    +0.000 HD
BRANCH  12  20
ATOM     20  C   UNL     1       5.837   4.046  15.708  0.00  0.00    +0.000 C 
ATOM     21  C   UNL     1       5.976   4.084  14.189  0.00  0.00    +0.000 C 
ATOM     22  C   UNL     1       7.154   4.462  16.364  0.00  0.00    +0.000 C 
ENDBRANCH  12  20
ENDBRANCH   4   7
BRANCH   1  23
ATOM     23  C   UNL     1       0.400  10.881  19.542  0.00  0.00    +0.000 C 
BRANCH  23  24
ATOM     24  C   UNL     1      -0.861  10.846  18.680  0.00  0.00    +0.000 A 
ATOM     25  C   UNL     1      -0.953   9.927  17.623  0.00  0.00    +0.000 A 
ATOM     26  C   UNL     1      -2.164   9.726  16.956  0.00  0.00    +0.000 A 
ATOM     27  C   UNL     1      -3.293  10.453  17.324  0.00  0.00    +0.000 A 
ATOM     28  C   UNL     1      -3.196  11.429  18.314  0.00  0.00    +0.000 A 
ATOM     29  C   UNL     1      -1.984  11.639  18.975  0.00  0.00    +0.000 A 
ENDBRANCH  23  24
BRANCH  23  30
ATOM     30  C   UNL     1       1.505  11.737  18.883  0.00  0.00    +0.000 C 
BRANCH  30  32
ATOM     31  C   UNL     1       1.285  13.092  20.791  0.00  0.00    +0.000 C 
ATOM     32  O   UNL     1       1.486  13.074  19.386  0.00  0.00    +0.000 OA
ENDBRANCH  30  32
ENDBRANCH  23  30
ENDBRANCH   1  23
TORSDOF 6
ENDMDL
MODEL 3
REMARK VINA RESULT:      -7.7      3.298      4.879
REMARK  Name = 
REMARK  9 active torsions:
REMARK  status: ('A' for Active; 'I' for Inactive)
REMARK    1  A    between atoms: C_1  and  O_2
REMARK    2  A    between atoms: O_2  and  C_3
REMARK    3  A    between atoms: C_3  and  C_4
REMARK    4  A    between atoms: C_4  and  N_5
REMARK    5  A    between atoms: C_4  and  C_23
REMARK    6  A    between atoms: N_8  and  C_9
REMARK    7  A    between atoms: N_14  and  C_15
REMARK    8  A    between atoms: C_15  and  C_16
REMARK    9  A    between atoms: C_15  and  C_17
REMARK                            x       y       z     vdW  Elec       q    Type
REMARK                         _______ _______ _______ _____ _____    ______ ____
ROOT
ATOM      1  N   UNL     1      -1.201  10.969  18.059  0.00  0.00    +0.000 N 
ATOM      2  C   UNL     1      -0.394  11.991  18.471  0.00  0.00    +0.000 C 
ATOM      3  O   UNL     1      -0.673  13.177  18.292  0.00  0.00    +0.000 OA
ATOM      4  N   UNL     1       0.692  11.647  19.227  0.00  0.00    +0.000 N 
ATOM      5  H   UNL     1      -0.848  10.034  18.069  0.00  0.00    +0.000 HD
ATOM      6  H   UNL     1       0.910  12.333  19.932  0.00  0.00    +0.000 HD
ENDROOT
BRANCH   4   7
ATOM      7  C   UNL     1       1.167  10.351  19.477  0.00  0.00    +0.000 A 
ATOM      8  N   UNL     1       0.873   9.847  20.694  0.00  0.00    +0.000 NA
ATOM      9  C   UNL     1       1.156   8.540  20.961  0.00  0.00    +0.000 A 
ATOM     10  C   UNL     1       1.828   7.751  20.019  0.00  0.00    +0.000 A 
ATOM     11  C   UNL     1       2.252   6.396  19.899  0.00  0.00    +0.000 A 
ATOM     12  N   UNL     1       2.073   5.465  20.858  0.00  0.00    +0.000 N 
ATOM     13  N   UNL     1       2.822   6.167  18.712  0.00  0.00    +0.000 NA
ATOM     14  N   UNL     1       2.825   7.362  18.106  0.00  0.00    +0.000 N 
ATOM     15  C   UNL     1       2.187   8.336  18.811  0.00  0.00    +0.000 A 
ATOM     16  C   UNL     1       1.874   9.646  18.503  0.00  0.00    +0.000 A 
ATOM     17  F   UNL     1       2.194  10.172  17.313  0.00  0.00    +0.000 F 
ATOM     18  H   UNL     1       1.896   5.717  21.823  0.00  0.00    +0.000 HD
ATOM     19  H   UNL     1       3.257   7.436  17.192  0.00  0.00    +0.000 HD
BRANCH  12  20
ATOM     20  C   UNL     1       2.016   4.042  20.536  0.00  0.00    +0.000 C 
ATOM     21  C   UNL     1       2.248   3.192  21.781  0.00  0.00    +0.000 C 
ATOM     22  C   UNL     1       0.647   3.723  19.932  0.00  0.00    +0.000 C 
ENDBRANCH  12  20
ENDBRANCH   4   7
BRANCH   1  23
ATOM     23  C   UNL     1      -2.389  11.175  17.251  0.00  0.00    +0.000 C 
BRANCH  23  24
ATOM     24  C   UNL     1      -3.628  11.254  18.141  0.00  0.00    +0.000 A 
ATOM     25  C   UNL     1      -3.652  12.155  19.218  0.00  0.00    +0.000 A 
ATOM     26  C   UNL     1      -4.837  12.402  19.915  0.00  0.00    +0.000 A 
ATOM     27  C   UNL     1      -6.008  11.739  19.558  0.00  0.00    +0.000 A 
ATOM     28  C   UNL     1      -5.981  10.780  18.548  0.00  0.00    +0.000 A 
ATOM     29  C   UNL     1      -4.795  10.524  17.856  0.00  0.00    +0.000 A 
ENDBRANCH  23  24
BRANCH  23  30
ATOM     30  C   UNL     1      -2.520  10.040  16.210  0.00  0.00    +0.000 C 
BRANCH  30  32
ATOM     31  C   UNL     1      -3.713  10.063  14.185  0.00  0.00    +0.000 C 
ATOM     32  O   UNL     1      -2.584  10.566  14.883  0.00  0.00    +0.000 OA
ENDBRANCH  30  32
ENDBRANCH  23  30
ENDBRANCH   1  23
TORSDOF 6
ENDMDL
MODEL 4
REMARK VINA RESULT:      -7.7      2.620      4.355
REMARK  Name = 
REMARK  9 active torsions:
REMARK  status: ('A' for Active; 'I' for Inactive)
REMARK    1  A    between atoms: C_1  and  O_2
REMARK    2  A    between atoms: O_2  and  C_3
REMARK    3  A    between atoms: C_3  and  C_4
REMARK    4  A    between atoms: C_4  and  N_5
REMARK    5  A    between atoms: C_4  and  C_23
REMARK    6  A    between atoms: N_8  and  C_9
REMARK    7  A    between atoms: N_14  and  C_15
REMARK    8  A    between atoms: C_15  and  C_16
REMARK    9  A    between atoms: C_15  and  C_17
REMARK                            x       y       z     vdW  Elec       q    Type
REMARK                         _______ _______ _______ _____ _____    ______ ____
ROOT
ATOM      1  N   UNL     1      -1.340  11.077  17.737  0.00  0.00    +0.000 N 
ATOM      2  C   UNL     1      -0.415  12.026  18.071  0.00  0.00    +0.000 C 
ATOM      3  O   UNL     1      -0.640  13.234  17.996  0.00  0.00    +0.000 OA
ATOM      4  N   UNL     1       0.746  11.577  18.635  0.00  0.00    +0.000 N 
ATOM      5  H   UNL     1      -1.051  10.125  17.646  0.00  0.00    +0.000 HD
ATOM      6  H   UNL     1       1.111  12.206  19.332  0.00  0.00    +0.000 HD
ENDROOT
BRANCH   4   7
ATOM      7  C   UNL     1       1.167  10.243  18.745  0.00  0.00    +0.000 A 
ATOM      8  N   UNL     1       1.811   9.742  17.670  0.00  0.00    +0.000 NA
ATOM      9  C   UNL     1       2.392   8.512  17.753  0.00  0.00    +0.000 A 
ATOM     10  C   UNL     1       2.246   7.733  18.907  0.00  0.00    +0.000 A 
ATOM     11  C   UNL     1       2.710   6.473  19.386  0.00  0.00    +0.000 A 
ATOM     12  N   UNL     1       3.495   5.641  18.672  0.00  0.00    +0.000 N 
ATOM     13  N   UNL     1       2.288   6.241  20.632  0.00  0.00    +0.000 NA
ATOM     14  N   UNL     1       1.517   7.296  20.927  0.00  0.00    +0.000 N 
ATOM     15  C   UNL     1       1.503   8.253  19.959  0.00  0.00    +0.000 A 
ATOM     16  C   UNL     1       0.940   9.514  19.912  0.00  0.00    +0.000 A 
ATOM     17  F   UNL     1       0.265  10.008  20.959  0.00  0.00    +0.000 F 
ATOM     18  H   UNL     1       3.571   5.708  17.665  0.00  0.00    +0.000 HD
ATOM     19  H   UNL     1       1.047   7.312  21.826  0.00  0.00    +0.000 HD
BRANCH  12  20
ATOM     20  C   UNL     1       4.365   4.667  19.327  0.00  0.00    +0.000 C 
ATOM     21  C   UNL     1       4.111   3.263  18.790  0.00  0.00    +0.000 C 
ATOM     22  C   UNL     1       5.823   5.063  19.088  0.00  0.00    +0.000 C 
ENDBRANCH  12  20
ENDBRANCH   4   7
BRANCH   1  23
ATOM     23  C   UNL     1      -2.620  11.399  17.130  0.00  0.00    +0.000 C 
BRANCH  23  24
ATOM     24  C   UNL     1      -3.711  11.458  18.197  0.00  0.00    +0.000 A 
ATOM     25  C   UNL     1      -3.521  12.248  19.342  0.00  0.00    +0.000 A 
ATOM     26  C   UNL     1      -4.575  12.489  20.226  0.00  0.00    +0.000 A 
ATOM     27  C   UNL     1      -5.827  11.929  19.988  0.00  0.00    +0.000 A 
ATOM     28  C   UNL     1      -6.010  11.075  18.903  0.00  0.00    +0.000 A 
ATOM     29  C   UNL     1      -4.954  10.824  18.023  0.00  0.00    +0.000 A 
ENDBRANCH  23  24
BRANCH  23  30
ATOM     30  C   UNL     1      -2.959  10.359  16.039  0.00  0.00    +0.000 C 
BRANCH  30  32
ATOM     31  C   UNL     1      -3.574  10.054  13.791  0.00  0.00    +0.000 C 
ATOM     32  O   UNL     1      -3.156  10.991  14.772  0.00  0.00    +0.000 OA
ENDBRANCH  30  32
ENDBRANCH  23  30
ENDBRANCH   1  23
TORSDOF 6
ENDMDL
MODEL 5
REMARK VINA RESULT:      -7.7      0.924      1.190
REMARK  Name = 
REMARK  9 active torsions:
REMARK  status: ('A' for Active; 'I' for Inactive)
REMARK    1  A    between atoms: C_1  and  O_2
REMARK    2  A    between atoms: O_2  and  C_3
REMARK    3  A    between atoms: C_3  and  C_4
REMARK    4  A    between atoms: C_4  and  N_5
REMARK    5  A    between atoms: C_4  and  C_23
REMARK    6  A    between atoms: N_8  and  C_9
REMARK    7  A    between atoms: N_14  and  C_15
REMARK    8  A    between atoms: C_15  and  C_16
REMARK    9  A    between atoms: C_15  and  C_17
REMARK                            x       y       z     vdW  Elec       q    Type
REMARK                         _______ _______ _______ _____ _____    ______ ____
ROOT
ATOM      1  N   UNL     1       0.204   9.769  19.720  0.00  0.00    +0.000 N 
ATOM      2  C   UNL     1       0.431   9.251  20.964  0.00  0.00    +0.000 C 
ATOM      3  O   UNL     1      -0.093   9.702  21.982  0.00  0.00    +0.000 OA
ATOM      4  N   UNL     1       1.170   8.102  21.022  0.00  0.00    +0.000 N 
ATOM      5  H   UNL     1       0.786   9.484  18.959  0.00  0.00    +0.000 HD
ATOM      6  H   UNL     1       0.870   7.481  21.756  0.00  0.00    +0.000 HD
ENDROOT
BRANCH   4   7
ATOM      7  C   UNL     1       1.868   7.496  19.967  0.00  0.00    +0.000 A 
ATOM      8  N   UNL     1       2.227   8.316  18.956  0.00  0.00    +0.000 NA
ATOM      9  C   UNL     1       3.044   7.844  17.973  0.00  0.00    +0.000 A 
ATOM     10  C   UNL     1       3.434   6.499  17.955  0.00  0.00    +0.000 A 
ATOM     11  C   UNL     1       4.273   5.661  17.165  0.00  0.00    +0.000 A 
ATOM     12  N   UNL     1       4.946   6.085  16.075  0.00  0.00    +0.000 N 
ATOM     13  N   UNL     1       4.323   4.420  17.656  0.00  0.00    +0.000 NA
ATOM     14  N   UNL     1       3.486   4.439  18.701  0.00  0.00    +0.000 N 
ATOM     15  C   UNL     1       2.970   5.670  18.969  0.00  0.00    +0.000 A 
ATOM     16  C   UNL     1       2.176   6.136  19.999  0.00  0.00    +0.000 A 
ATOM     17  F   UNL     1       1.781   5.323  20.988  0.00  0.00    +0.000 F 
ATOM     18  H   UNL     1       4.683   6.928  15.578  0.00  0.00    +0.000 HD
ATOM     19  H   UNL     1       3.331   3.574  19.209  0.00  0.00    +0.000 HD
BRANCH  12  20
ATOM     20  C   UNL     1       6.157   5.410  15.619  0.00  0.00    +0.000 C 
ATOM     21  C   UNL     1       7.061   5.059  16.796  0.00  0.00    +0.000 C 
ATOM     22  C   UNL     1       5.764   4.139  14.864  0.00  0.00    +0.000 C 
ENDBRANCH  12  20
ENDBRANCH   4   7
BRANCH   1  23
ATOM     23  C   UNL     1      -0.561  10.983  19.497  0.00  0.00    +0.000 C 
BRANCH  23  24
ATOM     24  C   UNL     1      -1.668  10.730  18.475  0.00  0.00    +0.000 A 
ATOM     25  C   UNL     1      -2.861  11.468  18.548  0.00  0.00    +0.000 A 
ATOM     26  C   UNL     1      -3.798  11.412  17.514  0.00  0.00    +0.000 A 
ATOM     27  C   UNL     1      -3.565  10.605  16.404  0.00  0.00    +0.000 A 
ATOM     28  C   UNL     1      -2.428   9.802  16.357  0.00  0.00    +0.000 A 
ATOM     29  C   UNL     1      -1.494   9.849  17.394  0.00  0.00    +0.000 A 
ENDBRANCH  23  24
BRANCH  23  30
ATOM     30  C   UNL     1       0.380  12.118  19.033  0.00  0.00    +0.000 C 
BRANCH  30  32
ATOM     31  C   UNL     1       2.498  12.593  18.132  0.00  0.00    +0.000 C 
ATOM     32  O   UNL     1       1.701  11.626  18.799  0.00  0.00    +0.000 OA
ENDBRANCH  30  32
ENDBRANCH  23  30
ENDBRANCH   1  23
TORSDOF 6
ENDMDL
MODEL 6
REMARK VINA RESULT:      -7.3      2.616      4.421
REMARK  Name = 
REMARK  9 active torsions:
REMARK  status: ('A' for Active; 'I' for Inactive)
REMARK    1  A    between atoms: C_1  and  O_2
REMARK    2  A    between atoms: O_2  and  C_3
REMARK    3  A    between atoms: C_3  and  C_4
REMARK    4  A    between atoms: C_4  and  N_5
REMARK    5  A    between atoms: C_4  and  C_23
REMARK    6  A    between atoms: N_8  and  C_9
REMARK    7  A    between atoms: N_14  and  C_15
REMARK    8  A    between atoms: C_15  and  C_16
REMARK    9  A    between atoms: C_15  and  C_17
REMARK                            x       y       z     vdW  Elec       q    Type
REMARK                         _______ _______ _______ _____ _____    ______ ____
ROOT
ATOM      1  N   UNL     1      -1.272  11.439  18.502  0.00  0.00    +0.000 N 
ATOM      2  C   UNL     1      -0.203  12.282  18.388  0.00  0.00    +0.000 C 
ATOM      3  O   UNL     1      -0.323  13.500  18.257  0.00  0.00    +0.000 OA
ATOM      4  N   UNL     1       1.034  11.729  18.568  0.00  0.00    +0.000 N 
ATOM      5  H   UNL     1      -1.127  10.453  18.428  0.00  0.00    +0.000 HD
ATOM      6  H   UNL     1       1.680  12.355  19.021  0.00  0.00    +0.000 HD
ENDROOT
BRANCH   4   7
ATOM      7  C   UNL     1       1.337  10.364  18.680  0.00  0.00    +0.000 A 
ATOM      8  N   UNL     1       1.856   9.788  17.575  0.00  0.00    +0.000 NA
ATOM      9  C   UNL     1       2.326   8.511  17.646  0.00  0.00    +0.000 A 
ATOM     10  C   UNL     1       2.190   7.767  18.825  0.00  0.00    +0.000 A 
ATOM     11  C   UNL     1       2.568   6.478  19.300  0.00  0.00    +0.000 A 
ATOM     12  N   UNL     1       3.222   5.564  18.554  0.00  0.00    +0.000 N 
ATOM     13  N   UNL     1       2.214   6.306  20.577  0.00  0.00    +0.000 NA
ATOM     14  N   UNL     1       1.565   7.433  20.899  0.00  0.00    +0.000 N 
ATOM     15  C   UNL     1       1.572   8.371  19.913  0.00  0.00    +0.000 A 
ATOM     16  C   UNL     1       1.126   9.678  19.876  0.00  0.00    +0.000 A 
ATOM     17  F   UNL     1       0.573  10.250  20.955  0.00  0.00    +0.000 F 
ATOM     18  H   UNL     1       3.234   5.608  17.542  0.00  0.00    +0.000 HD
ATOM     19  H   UNL     1       1.162   7.508  21.827  0.00  0.00    +0.000 HD
BRANCH  12  20
ATOM     20  C   UNL     1       4.042   4.524  19.170  0.00  0.00    +0.000 C 
ATOM     21  C   UNL     1       3.980   3.232  18.362  0.00  0.00    +0.000 C 
ATOM     22  C   UNL     1       5.487   5.018  19.258  0.00  0.00    +0.000 C 
ENDBRANCH  12  20
ENDBRANCH   4   7
BRANCH   1  23
ATOM     23  C   UNL     1      -2.647  11.878  18.337  0.00  0.00    +0.000 C 
BRANCH  23  24
ATOM     24  C   UNL     1      -3.229  12.311  19.682  0.00  0.00    +0.000 A 
ATOM     25  C   UNL     1      -4.614  12.503  19.808  0.00  0.00    +0.000 A 
ATOM     26  C   UNL     1      -5.196  12.691  21.064  0.00  0.00    +0.000 A 
ATOM     27  C   UNL     1      -4.400  12.708  22.207  0.00  0.00    +0.000 A 
ATOM     28  C   UNL     1      -3.016  12.604  22.089  0.00  0.00    +0.000 A 
ATOM     29  C   UNL     1      -2.431  12.426  20.833  0.00  0.00    +0.000 A 
ENDBRANCH  23  24
BRANCH  23  30
ATOM     30  C   UNL     1      -3.486  10.747  17.702  0.00  0.00    +0.000 C 
BRANCH  30  32
ATOM     31  C   UNL     1      -3.139  10.704  15.378  0.00  0.00    +0.000 C 
ATOM     32  O   UNL     1      -3.993  11.140  16.425  0.00  0.00    +0.000 OA
ENDBRANCH  30  32
ENDBRANCH  23  30
ENDBRANCH   1  23
TORSDOF 6
ENDMDL
MODEL 7
REMARK VINA RESULT:      -7.3      3.270      8.262
REMARK  Name = 
REMARK  9 active torsions:
REMARK  status: ('A' for Active; 'I' for Inactive)
REMARK    1  A    between atoms: C_1  and  O_2
REMARK    2  A    between atoms: O_2  and  C_3
REMARK    3  A    between atoms: C_3  and  C_4
REMARK    4  A    between atoms: C_4  and  N_5
REMARK    5  A    between atoms: C_4  and  C_23
REMARK    6  A    between atoms: N_8  and  C_9
REMARK    7  A    between atoms: N_14  and  C_15
REMARK    8  A    between atoms: C_15  and  C_16
REMARK    9  A    between atoms: C_15  and  C_17
REMARK                            x       y       z     vdW  Elec       q    Type
REMARK                         _______ _______ _______ _____ _____    ______ ____
ROOT
ATOM      1  N   UNL     1       4.346   5.999  17.581  0.00  0.00    +0.000 N 
ATOM      2  C   UNL     1       3.286   5.139  17.640  0.00  0.00    +0.000 C 
ATOM      3  O   UNL     1       3.325   3.997  17.182  0.00  0.00    +0.000 OA
ATOM      4  N   UNL     1       2.203   5.552  18.365  0.00  0.00    +0.000 N 
ATOM      5  H   UNL     1       4.205   6.963  17.805  0.00  0.00    +0.000 HD
ATOM      6  H   UNL     1       1.742   4.796  18.845  0.00  0.00    +0.000 HD
ENDROOT
BRANCH   4   7
ATOM      7  C   UNL     1       1.989   6.829  18.904  0.00  0.00    +0.000 A 
ATOM      8  N   UNL     1       1.983   7.846  18.016  0.00  0.00    +0.000 NA
ATOM      9  C   UNL     1       1.624   9.093  18.432  0.00  0.00    +0.000 A 
ATOM     10  C   UNL     1       1.353   9.342  19.782  0.00  0.00    +0.000 A 
ATOM     11  C   UNL     1       0.924  10.443  20.580  0.00  0.00    +0.000 A 
ATOM     12  N   UNL     1       0.682  11.677  20.090  0.00  0.00    +0.000 N 
ATOM     13  N   UNL     1       0.770  10.088  21.858  0.00  0.00    +0.000 NA
ATOM     14  N   UNL     1       1.154   8.805  21.898  0.00  0.00    +0.000 N 
ATOM     15  C   UNL     1       1.454   8.284  20.677  0.00  0.00    +0.000 A 
ATOM     16  C   UNL     1       1.776   7.003  20.272  0.00  0.00    +0.000 A 
ATOM     17  F   UNL     1       1.822   5.992  21.150  0.00  0.00    +0.000 F 
ATOM     18  H   UNL     1       1.058  11.983  19.200  0.00  0.00    +0.000 HD
ATOM     19  H   UNL     1       1.160   8.333  22.796  0.00  0.00    +0.000 HD
BRANCH  12  20
ATOM     20  C   UNL     1      -0.227  12.599  20.764  0.00  0.00    +0.000 C 
ATOM     21  C   UNL     1       0.107  14.045  20.415  0.00  0.00    +0.000 C 
ATOM     22  C   UNL     1      -1.662  12.277  20.345  0.00  0.00    +0.000 C 
ENDBRANCH  12  20
ENDBRANCH   4   7
BRANCH   1  23
ATOM     23  C   UNL     1       5.566   5.703  16.851  0.00  0.00    +0.000 C 
BRANCH  23  24
ATOM     24  C   UNL     1       6.741   6.476  17.447  0.00  0.00    +0.000 A 
ATOM     25  C   UNL     1       6.994   7.790  17.022  0.00  0.00    +0.000 A 
ATOM     26  C   UNL     1       7.920   8.591  17.694  0.00  0.00    +0.000 A 
ATOM     27  C   UNL     1       8.619   8.083  18.786  0.00  0.00    +0.000 A 
ATOM     28  C   UNL     1       8.441   6.755  19.167  0.00  0.00    +0.000 A 
ATOM     29  C   UNL     1       7.522   5.950  18.491  0.00  0.00    +0.000 A 
ENDBRANCH  23  24
BRANCH  23  30
ATOM     30  C   UNL     1       5.376   6.039  15.355  0.00  0.00    +0.000 C 
BRANCH  30  32
ATOM     31  C   UNL     1       6.339   4.039  14.580  0.00  0.00    +0.000 C 
ATOM     32  O   UNL     1       6.414   5.457  14.563  0.00  0.00    +0.000 OA
ENDBRANCH  30  32
ENDBRANCH  23  30
ENDBRANCH   1  23
TORSDOF 6
ENDMDL
MODEL 8
REMARK VINA RESULT:      -7.2      1.261      2.906
REMARK  Name = 
REMARK  9 active torsions:
REMARK  status: ('A' for Active; 'I' for Inactive)
REMARK    1  A    between atoms: C_1  and  O_2
REMARK    2  A    between atoms: O_2  and  C_3
REMARK    3  A    between atoms: C_3  and  C_4
REMARK    4  A    between atoms: C_4  and  N_5
REMARK    5  A    between atoms: C_4  and  C_23
REMARK    6  A    between atoms: N_8  and  C_9
REMARK    7  A    between atoms: N_14  and  C_15
REMARK    8  A    between atoms: C_15  and  C_16
REMARK    9  A    between atoms: C_15  and  C_17
REMARK                            x       y       z     vdW  Elec       q    Type
REMARK                         _______ _______ _______ _____ _____    ______ ____
ROOT
ATOM      1  N   UNL     1       0.543   9.725  19.036  0.00  0.00    +0.000 N 
ATOM      2  C   UNL     1       0.829   9.488  20.351  0.00  0.00    +0.000 C 
ATOM      3  O   UNL     1       0.399  10.190  21.266  0.00  0.00    +0.000 OA
ATOM      4  N   UNL     1       1.512   8.337  20.630  0.00  0.00    +0.000 N 
ATOM      5  H   UNL     1       1.055   9.238  18.329  0.00  0.00    +0.000 HD
ATOM      6  H   UNL     1       1.233   7.919  21.503  0.00  0.00    +0.000 HD
ENDROOT
BRANCH   4   7
ATOM      7  C   UNL     1       2.104   7.465  19.705  0.00  0.00    +0.000 A 
ATOM      8  N   UNL     1       2.604   8.043  18.593  0.00  0.00    +0.000 NA
ATOM      9  C   UNL     1       3.336   7.292  17.721  0.00  0.00    +0.000 A 
ATOM     10  C   UNL     1       3.492   5.916  17.925  0.00  0.00    +0.000 A 
ATOM     11  C   UNL     1       4.183   4.836  17.302  0.00  0.00    +0.000 A 
ATOM     12  N   UNL     1       4.924   4.965  16.183  0.00  0.00    +0.000 N 
ATOM     13  N   UNL     1       4.019   3.697  17.981  0.00  0.00    +0.000 NA
ATOM     14  N   UNL     1       3.190   4.020  18.982  0.00  0.00    +0.000 N 
ATOM     15  C   UNL     1       2.889   5.346  19.039  0.00  0.00    +0.000 A 
ATOM     16  C   UNL     1       2.178   6.095  19.958  0.00  0.00    +0.000 A 
ATOM     17  F   UNL     1       1.644   5.526  21.047  0.00  0.00    +0.000 F 
ATOM     18  H   UNL     1       4.812   5.750  15.553  0.00  0.00    +0.000 HD
ATOM     19  H   UNL     1       2.888   3.285  19.612  0.00  0.00    +0.000 HD
BRANCH  12  20
ATOM     20  C   UNL     1       6.007   4.035  15.877  0.00  0.00    +0.000 C 
ATOM     21  C   UNL     1       6.235   3.940  14.372  0.00  0.00    +0.000 C 
ATOM     22  C   UNL     1       7.284   4.513  16.570  0.00  0.00    +0.000 C 
ENDBRANCH  12  20
ENDBRANCH   4   7
BRANCH   1  23
ATOM     23  C   UNL     1      -0.175  10.903  18.583  0.00  0.00    +0.000 C 
BRANCH  23  24
ATOM     24  C   UNL     1       0.689  12.150  18.763  0.00  0.00    +0.000 A 
ATOM     25  C   UNL     1       2.034  12.126  18.361  0.00  0.00    +0.000 A 
ATOM     26  C   UNL     1       2.786  13.303  18.316  0.00  0.00    +0.000 A 
ATOM     27  C   UNL     1       2.210  14.514  18.689  0.00  0.00    +0.000 A 
ATOM     28  C   UNL     1       0.903  14.541  19.170  0.00  0.00    +0.000 A 
ATOM     29  C   UNL     1       0.152  13.365  19.225  0.00  0.00    +0.000 A 
ENDBRANCH  23  24
BRANCH  23  30
ATOM     30  C   UNL     1      -1.510  11.032  19.349  0.00  0.00    +0.000 C 
BRANCH  30  32
ATOM     31  C   UNL     1      -2.724   9.947  17.653  0.00  0.00    +0.000 C 
ATOM     32  O   UNL     1      -2.614  11.120  18.445  0.00  0.00    +0.000 OA
ENDBRANCH  30  32
ENDBRANCH  23  30
ENDBRANCH   1  23
TORSDOF 6
ENDMDL
MODEL 9
REMARK VINA RESULT:      -7.2      2.491      4.246
REMARK  Name = 
REMARK  9 active torsions:
REMARK  status: ('A' for Active; 'I' for Inactive)
REMARK    1  A    between atoms: C_1  and  O_2
REMARK    2  A    between atoms: O_2  and  C_3
REMARK    3  A    between atoms: C_3  and  C_4
REMARK    4  A    between atoms: C_4  and  N_5
REMARK    5  A    between atoms: C_4  and  C_23
REMARK    6  A    between atoms: N_8  and  C_9
REMARK    7  A    between atoms: N_14  and  C_15
REMARK    8  A    between atoms: C_15  and  C_16
REMARK    9  A    between atoms: C_15  and  C_17
REMARK                            x       y       z     vdW  Elec       q    Type
REMARK                         _______ _______ _______ _____ _____    ______ ____
ROOT
ATOM      1  N   UNL     1      -0.855  11.546  18.755  0.00  0.00    +0.000 N 
ATOM      2  C   UNL     1       0.279  12.284  18.564  0.00  0.00    +0.000 C 
ATOM      3  O   UNL     1       0.270  13.511  18.466  0.00  0.00    +0.000 OA
ATOM      4  N   UNL     1       1.466  11.608  18.627  0.00  0.00    +0.000 N 
ATOM      5  H   UNL     1      -0.814  10.553  18.650  0.00  0.00    +0.000 HD
ATOM      6  H   UNL     1       2.207  12.156  19.034  0.00  0.00    +0.000 HD
ENDROOT
BRANCH   4   7
ATOM      7  C   UNL     1       1.641  10.218  18.688  0.00  0.00    +0.000 A 
ATOM      8  N   UNL     1       2.064   9.632  17.548  0.00  0.00    +0.000 NA
ATOM      9  C   UNL     1       2.412   8.314  17.564  0.00  0.00    +0.000 A 
ATOM     10  C   UNL     1       2.245   7.549  18.725  0.00  0.00    +0.000 A 
ATOM     11  C   UNL     1       2.514   6.214  19.148  0.00  0.00    +0.000 A 
ATOM     12  N   UNL     1       3.051   5.267  18.352  0.00  0.00    +0.000 N 
ATOM     13  N   UNL     1       2.189   6.035  20.431  0.00  0.00    +0.000 NA
ATOM     14  N   UNL     1       1.662   7.207  20.810  0.00  0.00    +0.000 N 
ATOM     15  C   UNL     1       1.725   8.173  19.852  0.00  0.00    +0.000 A 
ATOM     16  C   UNL     1       1.405   9.517  19.870  0.00  0.00    +0.000 A 
ATOM     17  F   UNL     1       0.948  10.103  20.985  0.00  0.00    +0.000 F 
ATOM     18  H   UNL     1       3.032   5.343  17.342  0.00  0.00    +0.000 HD
ATOM     19  H   UNL     1       1.300   7.290  21.754  0.00  0.00    +0.000 HD
BRANCH  12  20
ATOM     20  C   UNL     1       3.788   4.135  18.906  0.00  0.00    +0.000 C 
ATOM     21  C   UNL     1       3.730   2.935  17.967  0.00  0.00    +0.000 C 
ATOM     22  C   UNL     1       5.242   4.552  19.135  0.00  0.00    +0.000 C 
ENDBRANCH  12  20
ENDBRANCH   4   7
BRANCH   1  23
ATOM     23  C   UNL     1      -2.188  12.121  18.717  0.00  0.00    +0.000 C 
BRANCH  23  24
ATOM     24  C   UNL     1      -2.752  12.243  20.131  0.00  0.00    +0.000 A 
ATOM     25  C   UNL     1      -1.914  12.016  21.235  0.00  0.00    +0.000 A 
ATOM     26  C   UNL     1      -2.339  12.324  22.529  0.00  0.00    +0.000 A 
ATOM     27  C   UNL     1      -3.613  12.844  22.740  0.00  0.00    +0.000 A 
ATOM     28  C   UNL     1      -4.487  12.995  21.665  0.00  0.00    +0.000 A 
ATOM     29  C   UNL     1      -4.067  12.679  20.371  0.00  0.00    +0.000 A 
ENDBRANCH  23  24
BRANCH  23  30
ATOM     30  C   UNL     1      -3.105  11.260  17.820  0.00  0.00    +0.000 C 
BRANCH  30  32
ATOM     31  C   UNL     1      -2.899  10.822  15.520  0.00  0.00    +0.000 C 
ATOM     32  O   UNL     1      -2.351  10.589  16.809  0.00  0.00    +0.000 OA
ENDBRANCH  30  32
ENDBRANCH  23  30
ENDBRANCH   1  23
TORSDOF 6
ENDMDL
