MODEL 1
REMARK VINA RESULT:      -7.4      0.000      0.000
REMARK  Name = 
REMARK  3 active torsions:
REMARK  status: ('A' for Active; 'I' for Inactive)
REMARK    1  A    between atoms: C_1  and  O_2
REMARK    2  A    between atoms: O_2  and  C_3
REMARK    3  A    between atoms: C_11  and  C_12
REMARK                            x       y       z     vdW  Elec       q    Type
REMARK                         _______ _______ _______ _____ _____    ______ ____
ROOT
ATOM      1  C   UNL     1       7.068   5.137  14.950  0.00  0.00    +0.000 A 
ATOM      2  C   UNL     1       6.144   4.372  14.207  0.00  0.00    +0.000 A 
ATOM      3  C   UNL     1       5.012   3.803  14.812  0.00  0.00    +0.000 A 
ATOM      4  C   UNL     1       4.812   4.025  16.159  0.00  0.00    +0.000 A 
ATOM      5  C   UNL     1       5.729   4.800  16.861  0.00  0.00    +0.000 A 
ATOM      6  C   UNL     1       6.853   5.378  16.305  0.00  0.00    +0.000 A 
ATOM      7  C   UNL     1       5.232   4.826  18.221  0.00  0.00    +0.000 C 
ATOM      8  O   UNL     1       5.693   5.416  19.169  0.00  0.00    +0.000 OA
ATOM      9  C   UNL     1       3.974   3.962  18.165  0.00  0.00    +0.000 C 
ATOM     10  N   UNL     1       3.751   3.533  16.947  0.00  0.00    +0.000 NA
ENDROOT
BRANCH   9  11
ATOM     11  C   UNL     1       3.133   3.665  19.330  0.00  0.00    +0.000 A 
ATOM     12  C   UNL     1       1.868   4.259  19.418  0.00  0.00    +0.000 A 
ATOM     13  C   UNL     1       1.050   3.997  20.517  0.00  0.00    +0.000 A 
ATOM     14  C   UNL     1       1.483   3.129  21.518  0.00  0.00    +0.000 A 
ATOM     15  C   UNL     1       2.734   2.523  21.423  0.00  0.00    +0.000 A 
ATOM     16  C   UNL     1       3.563   2.790  20.331  0.00  0.00    +0.000 A 
ENDBRANCH   9  11
BRANCH   1  18
ATOM     17  C   UNL     1       8.053   5.426  12.828  0.00  0.00    +0.000 C 
ATOM     18  O   UNL     1       8.130   5.625  14.237  0.00  0.00    +0.000 OA
ENDBRANCH   1  18
TORSDOF 2
ENDMDL
MODEL 2
REMARK VINA RESULT:      -7.3      1.485      2.228
REMARK  Name = 
REMARK  3 active torsions:
REMARK  status: ('A' for Active; 'I' for Inactive)
REMARK    1  A    between atoms: C_1  and  O_2
REMARK    2  A    between atoms: O_2  and  C_3
REMARK    3  A    between atoms: C_11  and  C_12
REMARK                            x       y       z     vdW  Elec       q    Type
REMARK                         _______ _______ _______ _____ _____    ______ ____
ROOT
ATOM      1  C   UNL     1       6.559   4.508  14.663  0.00  0.00    +0.000 A 
ATOM      2  C   UNL     1       7.471   4.874  15.677  0.00  0.00    +0.000 A 
ATOM      3  C   UNL     1       7.116   4.820  17.034  0.00  0.00    +0.000 A 
ATOM      4  C   UNL     1       5.849   4.381  17.360  0.00  0.00    +0.000 A 
ATOM      5  C   UNL     1       4.980   4.007  16.340  0.00  0.00    +0.000 A 
ATOM      6  C   UNL     1       5.289   4.044  14.996  0.00  0.00    +0.000 A 
ATOM      7  C   UNL     1       3.761   3.612  17.016  0.00  0.00    +0.000 C 
ATOM      8  O   UNL     1       2.747   3.177  16.524  0.00  0.00    +0.000 OA
ATOM      9  C   UNL     1       4.073   3.843  18.493  0.00  0.00    +0.000 C 
ATOM     10  N   UNL     1       5.302   4.268  18.654  0.00  0.00    +0.000 NA
ENDROOT
BRANCH   9  11
ATOM     11  C   UNL     1       3.114   3.608  19.578  0.00  0.00    +0.000 A 
ATOM     12  C   UNL     1       3.424   2.659  20.560  0.00  0.00    +0.000 A 
ATOM     13  C   UNL     1       2.528   2.414  21.601  0.00  0.00    +0.000 A 
ATOM     14  C   UNL     1       1.332   3.127  21.673  0.00  0.00    +0.000 A 
ATOM     15  C   UNL     1       1.030   4.084  20.707  0.00  0.00    +0.000 A 
ATOM     16  C   UNL     1       1.918   4.326  19.656  0.00  0.00    +0.000 A 
ENDBRANCH   9  11
BRANCH   1  18
ATOM     17  C   UNL     1       6.481   3.687  12.454  0.00  0.00    +0.000 C 
ATOM     18  O   UNL     1       7.033   4.616  13.383  0.00  0.00    +0.000 OA
ENDBRANCH   1  18
TORSDOF 2
ENDMDL
MODEL 3
REMARK VINA RESULT:      -7.3      1.477      1.907
REMARK  Name = 
REMARK  3 active torsions:
REMARK  status: ('A' for Active; 'I' for Inactive)
REMARK    1  A    between atoms: C_1  and  O_2
REMARK    2  A    between atoms: O_2  and  C_3
REMARK    3  A    between atoms: C_11  and  C_12
REMARK                            x       y       z     vdW  Elec       q    Type
REMARK                         _______ _______ _______ _____ _____    ______ ____
ROOT
ATOM      1  C   UNL     1       6.573   4.546  14.600  0.00  0.00    +0.000 A 
ATOM      2  C   UNL     1       7.492   4.912  15.608  0.00  0.00    +0.000 A 
ATOM      3  C   UNL     1       7.150   4.852  16.967  0.00  0.00    +0.000 A 
ATOM      4  C   UNL     1       5.886   4.408  17.303  0.00  0.00    +0.000 A 
ATOM      5  C   UNL     1       5.009   4.036  16.290  0.00  0.00    +0.000 A 
ATOM      6  C   UNL     1       5.306   4.078  14.942  0.00  0.00    +0.000 A 
ATOM      7  C   UNL     1       3.798   3.635  16.974  0.00  0.00    +0.000 C 
ATOM      8  O   UNL     1       2.780   3.199  16.490  0.00  0.00    +0.000 OA
ATOM      9  C   UNL     1       4.122   3.862  18.449  0.00  0.00    +0.000 C 
ATOM     10  N   UNL     1       5.351   4.290  18.601  0.00  0.00    +0.000 NA
ENDROOT
BRANCH   9  11
ATOM     11  C   UNL     1       3.172   3.621  19.541  0.00  0.00    +0.000 A 
ATOM     12  C   UNL     1       1.973   4.344  19.566  0.00  0.00    +0.000 A 
ATOM     13  C   UNL     1       1.054   4.137  20.595  0.00  0.00    +0.000 A 
ATOM     14  C   UNL     1       1.321   3.196  21.589  0.00  0.00    +0.000 A 
ATOM     15  C   UNL     1       2.505   2.463  21.557  0.00  0.00    +0.000 A 
ATOM     16  C   UNL     1       3.435   2.674  20.535  0.00  0.00    +0.000 A 
ENDBRANCH   9  11
BRANCH   1  18
ATOM     17  C   UNL     1       6.508   3.706  12.398  0.00  0.00    +0.000 C 
ATOM     18  O   UNL     1       7.035   4.660  13.317  0.00  0.00    +0.000 OA
ENDBRANCH   1  18
TORSDOF 2
ENDMDL
MODEL 4
REMARK VINA RESULT:      -7.3      0.067      1.141
REMARK  Name = 
REMARK  3 active torsions:
REMARK  status: ('A' for Active; 'I' for Inactive)
REMARK    1  A    between atoms: C_1  and  O_2
REMARK    2  A    between atoms: O_2  and  C_3
REMARK    3  A    between atoms: C_11  and  C_12
REMARK                            x       y       z     vdW  Elec       q    Type
REMARK                         _______ _______ _______ _____ _____    ______ ____
ROOT
ATOM      1  C   UNL     1       7.074   5.121  14.908  0.00  0.00    +0.000 A 
ATOM      2  C   UNL     1       6.152   4.345  14.171  0.00  0.00    +0.000 A 
ATOM      3  C   UNL     1       5.016   3.788  14.777  0.00  0.00    +0.000 A 
ATOM      4  C   UNL     1       4.808   4.031  16.120  0.00  0.00    +0.000 A 
ATOM      5  C   UNL     1       5.722   4.816  16.815  0.00  0.00    +0.000 A 
ATOM      6  C   UNL     1       6.850   5.384  16.257  0.00  0.00    +0.000 A 
ATOM      7  C   UNL     1       5.216   4.865  18.171  0.00  0.00    +0.000 C 
ATOM      8  O   UNL     1       5.672   5.469  19.112  0.00  0.00    +0.000 OA
ATOM      9  C   UNL     1       3.957   4.002  18.121  0.00  0.00    +0.000 C 
ATOM     10  N   UNL     1       3.741   3.554  16.908  0.00  0.00    +0.000 NA
ENDROOT
BRANCH   9  11
ATOM     11  C   UNL     1       3.108   3.725  19.285  0.00  0.00    +0.000 A 
ATOM     12  C   UNL     1       3.564   2.822  20.253  0.00  0.00    +0.000 A 
ATOM     13  C   UNL     1       2.775   2.539  21.369  0.00  0.00    +0.000 A 
ATOM     14  C   UNL     1       1.542   3.169  21.528  0.00  0.00    +0.000 A 
ATOM     15  C   UNL     1       1.095   4.081  20.575  0.00  0.00    +0.000 A 
ATOM     16  C   UNL     1       1.875   4.361  19.450  0.00  0.00    +0.000 A 
ENDBRANCH   9  11
BRANCH   1  18
ATOM     17  C   UNL     1       8.051   5.414  12.782  0.00  0.00    +0.000 C 
ATOM     18  O   UNL     1       8.141   5.595  14.193  0.00  0.00    +0.000 OA
ENDBRANCH   1  18
TORSDOF 2
ENDMDL
MODEL 5
REMARK VINA RESULT:      -6.9      2.757      3.327
REMARK  Name = 
REMARK  3 active torsions:
REMARK  status: ('A' for Active; 'I' for Inactive)
REMARK    1  A    between atoms: C_1  and  O_2
REMARK    2  A    between atoms: O_2  and  C_3
REMARK    3  A    between atoms: C_11  and  C_12
REMARK                            x       y       z     vdW  Elec       q    Type
REMARK                         _______ _______ _______ _____ _____    ______ ____
ROOT
ATOM      1  C   UNL     1       7.480   7.503  17.725  0.00  0.00    +0.000 A 
ATOM      2  C   UNL     1       8.154   6.640  18.617  0.00  0.00    +0.000 A 
ATOM      3  C   UNL     1       7.489   5.579  19.250  0.00  0.00    +0.000 A 
ATOM      4  C   UNL     1       6.153   5.385  18.967  0.00  0.00    +0.000 A 
ATOM      5  C   UNL     1       5.521   6.239  18.069  0.00  0.00    +0.000 A 
ATOM      6  C   UNL     1       6.137   7.292  17.424  0.00  0.00    +0.000 A 
ATOM      7  C   UNL     1       4.152   5.768  18.007  0.00  0.00    +0.000 C 
ATOM      8  O   UNL     1       3.252   6.190  17.320  0.00  0.00    +0.000 OA
ATOM      9  C   UNL     1       4.127   4.596  18.986  0.00  0.00    +0.000 C 
ATOM     10  N   UNL     1       5.312   4.390  19.506  0.00  0.00    +0.000 NA
ENDROOT
BRANCH   9  11
ATOM     11  C   UNL     1       2.926   3.809  19.287  0.00  0.00    +0.000 A 
ATOM     12  C   UNL     1       2.392   3.861  20.581  0.00  0.00    +0.000 A 
ATOM     13  C   UNL     1       1.252   3.120  20.895  0.00  0.00    +0.000 A 
ATOM     14  C   UNL     1       0.634   2.343  19.917  0.00  0.00    +0.000 A 
ATOM     15  C   UNL     1       1.154   2.303  18.625  0.00  0.00    +0.000 A 
ATOM     16  C   UNL     1       2.301   3.034  18.307  0.00  0.00    +0.000 A 
ENDBRANCH   9  11
BRANCH   1  18
ATOM     17  C   UNL     1       8.528   9.588  18.064  0.00  0.00    +0.000 C 
ATOM     18  O   UNL     1       8.247   8.501  17.186  0.00  0.00    +0.000 OA
ENDBRANCH   1  18
TORSDOF 2
ENDMDL
MODEL 6
REMARK VINA RESULT:      -6.8      2.790      3.344
REMARK  Name = 
REMARK  3 active torsions:
REMARK  status: ('A' for Active; 'I' for Inactive)
REMARK    1  A    between atoms: C_1  and  O_2
REMARK    2  A    between atoms: O_2  and  C_3
REMARK    3  A    between atoms: C_11  and  C_12
REMARK                            x       y       z     vdW  Elec       q    Type
REMARK                         _______ _______ _______ _____ _____    ______ ____
ROOT
ATOM      1  C   UNL     1       7.488   7.577  17.731  0.00  0.00    +0.000 A 
ATOM      2  C   UNL     1       8.161   6.697  18.606  0.00  0.00    +0.000 A 
ATOM      3  C   UNL     1       7.496   5.626  19.222  0.00  0.00    +0.000 A 
ATOM      4  C   UNL     1       6.158   5.439  18.937  0.00  0.00    +0.000 A 
ATOM      5  C   UNL     1       5.526   6.310  18.056  0.00  0.00    +0.000 A 
ATOM      6  C   UNL     1       6.144   7.373  17.428  0.00  0.00    +0.000 A 
ATOM      7  C   UNL     1       4.157   5.842  17.987  0.00  0.00    +0.000 C 
ATOM      8  O   UNL     1       3.257   6.277  17.309  0.00  0.00    +0.000 OA
ATOM      9  C   UNL     1       4.131   4.653  18.945  0.00  0.00    +0.000 C 
ATOM     10  N   UNL     1       5.316   4.437  19.460  0.00  0.00    +0.000 NA
ENDROOT
BRANCH   9  11
ATOM     11  C   UNL     1       2.929   3.864  19.235  0.00  0.00    +0.000 A 
ATOM     12  C   UNL     1       2.472   2.953  18.275  0.00  0.00    +0.000 A 
ATOM     13  C   UNL     1       1.329   2.191  18.524  0.00  0.00    +0.000 A 
ATOM     14  C   UNL     1       0.654   2.324  19.737  0.00  0.00    +0.000 A 
ATOM     15  C   UNL     1       1.117   3.217  20.700  0.00  0.00    +0.000 A 
ATOM     16  C   UNL     1       2.254   3.990  20.452  0.00  0.00    +0.000 A 
ENDBRANCH   9  11
BRANCH   1  18
ATOM     17  C   UNL     1       8.551   9.647  18.108  0.00  0.00    +0.000 C 
ATOM     18  O   UNL     1       8.255   8.582  17.208  0.00  0.00    +0.000 OA
ENDBRANCH   1  18
TORSDOF 2
ENDMDL
MODEL 7
REMARK VINA RESULT:      -6.7      1.883      6.626
REMARK  Name = 
REMARK  3 active torsions:
REMARK  status: ('A' for Active; 'I' for Inactive)
REMARK    1  A    between atoms: C_1  and  O_2
REMARK    2  A    between atoms: O_2  and  C_3
REMARK    3  A    between atoms: C_11  and  C_12
REMARK                            x       y       z     vdW  Elec       q    Type
REMARK                         _______ _______ _______ _____ _____    ______ ____
ROOT
ATOM      1  C   UNL     1       2.976   5.389  19.436  0.00  0.00    +0.000 A 
ATOM      2  C   UNL     1       3.137   3.987  19.495  0.00  0.00    +0.000 A 
ATOM      3  C   UNL     1       3.830   3.288  18.495  0.00  0.00    +0.000 A 
ATOM      4  C   UNL     1       4.370   4.009  17.450  0.00  0.00    +0.000 A 
ATOM      5  C   UNL     1       4.214   5.391  17.429  0.00  0.00    +0.000 A 
ATOM      6  C   UNL     1       3.542   6.117  18.392  0.00  0.00    +0.000 A 
ATOM      7  C   UNL     1       4.882   5.824  16.220  0.00  0.00    +0.000 C 
ATOM      8  O   UNL     1       5.030   6.953  15.817  0.00  0.00    +0.000 OA
ATOM      9  C   UNL     1       5.382   4.523  15.595  0.00  0.00    +0.000 C 
ATOM     10  N   UNL     1       5.085   3.494  16.350  0.00  0.00    +0.000 NA
ENDROOT
BRANCH   9  11
ATOM     11  C   UNL     1       6.104   4.453  14.320  0.00  0.00    +0.000 A 
ATOM     12  C   UNL     1       5.607   3.623  13.307  0.00  0.00    +0.000 A 
ATOM     13  C   UNL     1       6.276   3.536  12.086  0.00  0.00    +0.000 A 
ATOM     14  C   UNL     1       7.429   4.288  11.867  0.00  0.00    +0.000 A 
ATOM     15  C   UNL     1       7.916   5.127  12.867  0.00  0.00    +0.000 A 
ATOM     16  C   UNL     1       7.256   5.211  14.096  0.00  0.00    +0.000 A 
ENDBRANCH   9  11
BRANCH   1  18
ATOM     17  C   UNL     1       1.983   7.330  20.334  0.00  0.00    +0.000 C 
ATOM     18  O   UNL     1       2.272   5.941  20.472  0.00  0.00    +0.000 OA
ENDBRANCH   1  18
TORSDOF 2
ENDMDL
MODEL 8
REMARK VINA RESULT:      -6.6      1.937      6.633
REMARK  Name = 
REMARK  3 active torsions:
REMARK  status: ('A' for Active; 'I' for Inactive)
REMARK    1  A    between atoms: C_1  and  O_2
REMARK    2  A    between atoms: O_2  and  C_3
REMARK    3  A    between atoms: C_11  and  C_12
REMARK                            x       y       z     vdW  Elec       q    Type
REMARK                         _______ _______ _______ _____ _____    ______ ____
ROOT
ATOM      1  C   UNL     1       2.821   5.652  19.378  0.00  0.00    +0.000 A 
ATOM      2  C   UNL     1       2.833   4.241  19.419  0.00  0.00    +0.000 A 
ATOM      3  C   UNL     1       3.477   3.486  18.426  0.00  0.00    +0.000 A 
ATOM      4  C   UNL     1       4.118   4.161  17.408  0.00  0.00    +0.000 A 
ATOM      5  C   UNL     1       4.107   5.551  17.405  0.00  0.00    +0.000 A 
ATOM      6  C   UNL     1       3.488   6.331  18.361  0.00  0.00    +0.000 A 
ATOM      7  C   UNL     1       4.850   5.928  16.220  0.00  0.00    +0.000 C 
ATOM      8  O   UNL     1       5.126   7.041  15.839  0.00  0.00    +0.000 OA
ATOM      9  C   UNL     1       5.229   4.590  15.588  0.00  0.00    +0.000 C 
ATOM     10  N   UNL     1       4.806   3.588  16.318  0.00  0.00    +0.000 NA
ENDROOT
BRANCH   9  11
ATOM     11  C   UNL     1       5.974   4.462  14.331  0.00  0.00    +0.000 A 
ATOM     12  C   UNL     1       7.177   5.163  14.185  0.00  0.00    +0.000 A 
ATOM     13  C   UNL     1       7.905   5.061  12.999  0.00  0.00    +0.000 A 
ATOM     14  C   UNL     1       7.443   4.246  11.966  0.00  0.00    +0.000 A 
ATOM     15  C   UNL     1       6.255   3.534  12.116  0.00  0.00    +0.000 A 
ATOM     16  C   UNL     1       5.517   3.641  13.297  0.00  0.00    +0.000 A 
ENDBRANCH   9  11
BRANCH   1  18
ATOM     17  C   UNL     1       1.815   7.628  20.180  0.00  0.00    +0.000 C 
ATOM     18  O   UNL     1       2.150   6.260  20.405  0.00  0.00    +0.000 OA
ENDBRANCH   1  18
TORSDOF 2
ENDMDL
MODEL 9
REMARK VINA RESULT:      -6.5      4.984      7.702
REMARK  Name = 
REMARK  3 active torsions:
REMARK  status: ('A' for Active; 'I' for Inactive)
REMARK    1  A    between atoms: C_1  and  O_2
REMARK    2  A    between atoms: O_2  and  C_3
REMARK    3  A    between atoms: C_11  and  C_12
REMARK                            x       y       z     vdW  Elec       q    Type
REMARK                         _______ _______ _______ _____ _____    ______ ____
ROOT
ATOM      1  C   UNL     1       0.091  10.761  20.623  0.00  0.00    +0.000 A 
ATOM      2  C   UNL     1       0.184   9.894  21.733  0.00  0.00    +0.000 A 
ATOM      3  C   UNL     1       0.840   8.657  21.642  0.00  0.00    +0.000 A 
ATOM      4  C   UNL     1       1.413   8.310  20.435  0.00  0.00    +0.000 A 
ATOM      5  C   UNL     1       1.323   9.194  19.365  0.00  0.00    +0.000 A 
ATOM      6  C   UNL     1       0.689  10.419  19.413  0.00  0.00    +0.000 A 
ATOM      7  C   UNL     1       2.010   8.531  18.276  0.00  0.00    +0.000 C 
ATOM      8  O   UNL     1       2.211   8.949  17.161  0.00  0.00    +0.000 OA
ATOM      9  C   UNL     1       2.444   7.197  18.878  0.00  0.00    +0.000 C 
ATOM     10  N   UNL     1       2.100   7.115  20.140  0.00  0.00    +0.000 NA
ENDROOT
BRANCH   9  11
ATOM     11  C   UNL     1       3.160   6.156  18.131  0.00  0.00    +0.000 A 
ATOM     12  C   UNL     1       4.413   6.458  17.585  0.00  0.00    +0.000 A 
ATOM     13  C   UNL     1       5.113   5.488  16.867  0.00  0.00    +0.000 A 
ATOM     14  C   UNL     1       4.574   4.212  16.710  0.00  0.00    +0.000 A 
ATOM     15  C   UNL     1       3.335   3.904  17.268  0.00  0.00    +0.000 A 
ATOM     16  C   UNL     1       2.623   4.875  17.978  0.00  0.00    +0.000 A 
ENDBRANCH   9  11
BRANCH   1  18
ATOM     17  C   UNL     1      -0.456  12.456  22.169  0.00  0.00    +0.000 C 
ATOM     18  O   UNL     1      -0.583  11.931  20.849  0.00  0.00    +0.000 OA
ENDBRANCH   1  18
TORSDOF 2
ENDMDL
