MODEL 1
REMARK VINA RESULT:      -8.0      0.000      0.000
REMARK  Name = 
REMARK  5 active torsions:
REMARK  status: ('A' for Active; 'I' for Inactive)
REMARK    1  A    between atoms: C_1  and  C_2
REMARK    2  A    between atoms: C_2  and  N_3
REMARK    3  A    between atoms: C_2  and  C_15
REMARK    4  A    between atoms: N_6  and  C_7
REMARK    5  A    between atoms: N_11  and  C_12
REMARK                            x       y       z     vdW  Elec       q    Type
REMARK                         _______ _______ _______ _____ _____    ______ ____
ROOT
ATOM      1  N   UNL     1       5.766   3.805  16.564  0.00  0.00    +0.000 N 
ATOM      2  C   UNL     1       4.567   3.659  17.201  0.00  0.00    +0.000 C 
ATOM      3  O   UNL     1       3.738   4.552  17.303  0.00  0.00    +0.000 OA
ATOM      4  N   UNL     1       4.418   2.423  17.760  0.00  0.00    +0.000 N 
ATOM      5  H   UNL     1       6.319   2.982  16.378  0.00  0.00    +0.000 HD
ATOM      6  H   UNL     1       5.022   1.665  17.471  0.00  0.00    +0.000 HD
ENDROOT
BRANCH   4   7
ATOM      7  C   UNL     1       3.197   2.045  18.470  0.00  0.00    +0.000 C 
ATOM      8  C   UNL     1       1.967   2.587  17.748  0.00  0.00    +0.000 C 
ATOM      9  C   UNL     1       0.727   2.388  18.597  0.00  0.00    +0.000 C 
ATOM     10  C   UNL     1       0.897   3.134  19.908  0.00  0.00    +0.000 C 
ATOM     11  N   UNL     1       2.105   2.748  20.624  0.00  0.00    +0.000 N 
ATOM     12  C   UNL     1       2.213   3.196  22.002  0.00  0.00    +0.000 C 
ATOM     13  C   UNL     1       3.301   2.532  19.936  0.00  0.00    +0.000 C 
ATOM     14  O   UNL     1       4.404   2.636  20.483  0.00  0.00    +0.000 OA
ENDBRANCH   4   7
BRANCH   1  16
ATOM     15  C   UNL     1       7.182   5.765  16.831  0.00  0.00    +0.000 C 
ATOM     16  C   UNL     1       6.158   5.061  15.936  0.00  0.00    +0.000 C 
BRANCH  16  17
ATOM     17  C   UNL     1       6.591   4.811  14.505  0.00  0.00    +0.000 A 
ATOM     18  C   UNL     1       7.597   5.527  13.857  0.00  0.00    +0.000 A 
ATOM     19  N   UNL     1       7.979   5.331  12.570  0.00  0.00    +0.000 NA
ATOM     20  C   UNL     1       7.321   4.369  11.884  0.00  0.00    +0.000 A 
ATOM     21  C   UNL     1       6.311   3.601  12.431  0.00  0.00    +0.000 A 
ATOM     22  F   UNL     1       5.696   2.662  11.703  0.00  0.00    +0.000 F 
ATOM     23  C   UNL     1       5.940   3.823  13.750  0.00  0.00    +0.000 A 
ENDBRANCH  16  17
ENDBRANCH   1  16
TORSDOF 3
ENDMDL
MODEL 2
REMARK VINA RESULT:      -7.8      4.153      4.899
REMARK  Name = 
REMARK  5 active torsions:
REMARK  status: ('A' for Active; 'I' for Inactive)
REMARK    1  A    between atoms: C_1  and  C_2
REMARK    2  A    between atoms: C_2  and  N_3
REMARK    3  A    between atoms: C_2  and  C_15
REMARK    4  A    between atoms: N_6  and  C_7
REMARK    5  A    between atoms: N_11  and  C_12
REMARK                            x       y       z     vdW  Elec       q    Type
REMARK                         _______ _______ _______ _____ _____    ______ ____
ROOT
ATOM      1  N   UNL     1       3.560   5.110  17.514  0.00  0.00    +0.000 N 
ATOM      2  C   UNL     1       3.504   6.006  18.544  0.00  0.00    +0.000 C 
ATOM      3  O   UNL     1       4.284   6.006  19.486  0.00  0.00    +0.000 OA
ATOM      4  N   UNL     1       2.450   6.865  18.435  0.00  0.00    +0.000 N 
ATOM      5  H   UNL     1       2.992   5.277  16.697  0.00  0.00    +0.000 HD
ATOM      6  H   UNL     1       1.972   6.963  17.549  0.00  0.00    +0.000 HD
ENDROOT
BRANCH   4   7
ATOM      7  C   UNL     1       2.217   7.920  19.420  0.00  0.00    +0.000 C 
ATOM      8  C   UNL     1       1.380   7.395  20.583  0.00  0.00    +0.000 C 
ATOM      9  C   UNL     1       0.954   8.536  21.485  0.00  0.00    +0.000 C 
ATOM     10  C   UNL     1       0.121   9.520  20.683  0.00  0.00    +0.000 C 
ATOM     11  N   UNL     1       0.808  10.003  19.492  0.00  0.00    +0.000 N 
ATOM     12  C   UNL     1       0.212  11.143  18.818  0.00  0.00    +0.000 C 
ATOM     13  C   UNL     1       1.569   9.133  18.708  0.00  0.00    +0.000 C 
ATOM     14  O   UNL     1       1.799   9.353  17.514  0.00  0.00    +0.000 OA
ENDBRANCH   4   7
BRANCH   1  16
ATOM     15  C   UNL     1       3.889   2.702  17.424  0.00  0.00    +0.000 C 
ATOM     16  C   UNL     1       4.578   4.069  17.451  0.00  0.00    +0.000 C 
BRANCH  16  17
ATOM     17  C   UNL     1       5.536   4.350  16.311  0.00  0.00    +0.000 A 
ATOM     18  C   UNL     1       6.657   5.173  16.417  0.00  0.00    +0.000 A 
ATOM     19  N   UNL     1       7.510   5.451  15.398  0.00  0.00    +0.000 NA
ATOM     20  C   UNL     1       7.232   4.881  14.204  0.00  0.00    +0.000 A 
ATOM     21  C   UNL     1       6.150   4.049  13.992  0.00  0.00    +0.000 A 
ATOM     22  F   UNL     1       5.927   3.513  12.786  0.00  0.00    +0.000 F 
ATOM     23  C   UNL     1       5.293   3.781  15.050  0.00  0.00    +0.000 A 
ENDBRANCH  16  17
ENDBRANCH   1  16
TORSDOF 3
ENDMDL
MODEL 3
REMARK VINA RESULT:      -7.7      2.527      3.615
REMARK  Name = 
REMARK  5 active torsions:
REMARK  status: ('A' for Active; 'I' for Inactive)
REMARK    1  A    between atoms: C_1  and  C_2
REMARK    2  A    between atoms: C_2  and  N_3
REMARK    3  A    between atoms: C_2  and  C_15
REMARK    4  A    between atoms: N_6  and  C_7
REMARK    5  A    between atoms: N_11  and  C_12
REMARK                            x       y       z     vdW  Elec       q    Type
REMARK                         _______ _______ _______ _____ _____    ______ ____
ROOT
ATOM      1  N   UNL     1       5.772   3.263  16.341  0.00  0.00    +0.000 N 
ATOM      2  C   UNL     1       4.606   3.421  17.035  0.00  0.00    +0.000 C 
ATOM      3  O   UNL     1       4.086   4.507  17.251  0.00  0.00    +0.000 OA
ATOM      4  N   UNL     1       4.115   2.240  17.510  0.00  0.00    +0.000 N 
ATOM      5  H   UNL     1       6.047   2.334  16.063  0.00  0.00    +0.000 HD
ATOM      6  H   UNL     1       4.455   1.366  17.130  0.00  0.00    +0.000 HD
ENDROOT
BRANCH   4   7
ATOM      7  C   UNL     1       2.862   2.178  18.261  0.00  0.00    +0.000 C 
ATOM      8  C   UNL     1       1.820   3.106  17.644  0.00  0.00    +0.000 C 
ATOM      9  C   UNL     1       0.606   3.209  18.546  0.00  0.00    +0.000 C 
ATOM     10  C   UNL     1       1.032   3.772  19.891  0.00  0.00    +0.000 C 
ATOM     11  N   UNL     1       2.099   2.999  20.513  0.00  0.00    +0.000 N 
ATOM     12  C   UNL     1       2.381   3.290  21.908  0.00  0.00    +0.000 C 
ATOM     13  C   UNL     1       3.155   2.501  19.747  0.00  0.00    +0.000 C 
ATOM     14  O   UNL     1       4.258   2.239  20.238  0.00  0.00    +0.000 OA
ENDBRANCH   4   7
BRANCH   1  16
ATOM     15  C   UNL     1       5.580   5.149  14.816  0.00  0.00    +0.000 C 
ATOM     16  C   UNL     1       6.498   4.398  15.785  0.00  0.00    +0.000 C 
BRANCH  16  17
ATOM     17  C   UNL     1       7.099   5.228  16.903  0.00  0.00    +0.000 A 
ATOM     18  C   UNL     1       7.603   4.692  18.088  0.00  0.00    +0.000 A 
ATOM     19  N   UNL     1       8.121   5.424  19.107  0.00  0.00    +0.000 NA
ATOM     20  C   UNL     1       8.138   6.766  18.940  0.00  0.00    +0.000 A 
ATOM     21  C   UNL     1       7.666   7.397  17.805  0.00  0.00    +0.000 A 
ATOM     22  F   UNL     1       7.711   8.730  17.697  0.00  0.00    +0.000 F 
ATOM     23  C   UNL     1       7.141   6.626  16.778  0.00  0.00    +0.000 A 
ENDBRANCH  16  17
ENDBRANCH   1  16
TORSDOF 3
ENDMDL
MODEL 4
REMARK VINA RESULT:      -7.6      1.222      1.487
REMARK  Name = 
REMARK  5 active torsions:
REMARK  status: ('A' for Active; 'I' for Inactive)
REMARK    1  A    between atoms: C_1  and  C_2
REMARK    2  A    between atoms: C_2  and  N_3
REMARK    3  A    between atoms: C_2  and  C_15
REMARK    4  A    between atoms: N_6  and  C_7
REMARK    5  A    between atoms: N_11  and  C_12
REMARK                            x       y       z     vdW  Elec       q    Type
REMARK                         _______ _______ _______ _____ _____    ______ ____
ROOT
ATOM      1  N   UNL     1       5.644   3.434  16.604  0.00  0.00    +0.000 N 
ATOM      2  C   UNL     1       4.490   3.424  17.334  0.00  0.00    +0.000 C 
ATOM      3  O   UNL     1       3.877   4.434  17.650  0.00  0.00    +0.000 OA
ATOM      4  N   UNL     1       4.125   2.167  17.721  0.00  0.00    +0.000 N 
ATOM      5  H   UNL     1       5.996   2.560  16.244  0.00  0.00    +0.000 HD
ATOM      6  H   UNL     1       4.534   1.363  17.263  0.00  0.00    +0.000 HD
ENDROOT
BRANCH   4   7
ATOM      7  C   UNL     1       2.906   1.926  18.491  0.00  0.00    +0.000 C 
ATOM      8  C   UNL     1       1.710   2.607  17.832  0.00  0.00    +0.000 C 
ATOM      9  C   UNL     1       0.500   2.544  18.742  0.00  0.00    +0.000 C 
ATOM     10  C   UNL     1       0.819   3.260  20.043  0.00  0.00    +0.000 C 
ATOM     11  N   UNL     1       2.010   2.736  20.698  0.00  0.00    +0.000 N 
ATOM     12  C   UNL     1       2.237   3.162  22.068  0.00  0.00    +0.000 C 
ATOM     13  C   UNL     1       3.138   2.391  19.950  0.00  0.00    +0.000 C 
ATOM     14  O   UNL     1       4.272   2.366  20.441  0.00  0.00    +0.000 OA
ENDBRANCH   4   7
BRANCH   1  16
ATOM     15  C   UNL     1       7.422   5.037  17.037  0.00  0.00    +0.000 C 
ATOM     16  C   UNL     1       6.244   4.674  16.127  0.00  0.00    +0.000 C 
BRANCH  16  17
ATOM     17  C   UNL     1       6.561   4.562  14.649  0.00  0.00    +0.000 A 
ATOM     18  C   UNL     1       5.996   3.611  13.800  0.00  0.00    +0.000 A 
ATOM     19  N   UNL     1       6.288   3.483  12.481  0.00  0.00    +0.000 NA
ATOM     20  C   UNL     1       7.195   4.349  11.975  0.00  0.00    +0.000 A 
ATOM     21  C   UNL     1       7.812   5.330  12.728  0.00  0.00    +0.000 A 
ATOM     22  F   UNL     1       8.702   6.160  12.172  0.00  0.00    +0.000 F 
ATOM     23  C   UNL     1       7.496   5.438  14.075  0.00  0.00    +0.000 A 
ENDBRANCH  16  17
ENDBRANCH   1  16
TORSDOF 3
ENDMDL
MODEL 5
REMARK VINA RESULT:      -7.4      2.555      3.506
REMARK  Name = 
REMARK  5 active torsions:
REMARK  status: ('A' for Active; 'I' for Inactive)
REMARK    1  A    between atoms: C_1  and  C_2
REMARK    2  A    between atoms: C_2  and  N_3
REMARK    3  A    between atoms: C_2  and  C_15
REMARK    4  A    between atoms: N_6  and  C_7
REMARK    5  A    between atoms: N_11  and  C_12
REMARK                            x       y       z     vdW  Elec       q    Type
REMARK                         _______ _______ _______ _____ _____    ______ ____
ROOT
ATOM      1  N   UNL     1       5.769   3.179  16.352  0.00  0.00    +0.000 N 
ATOM      2  C   UNL     1       4.585   3.335  17.013  0.00  0.00    +0.000 C 
ATOM      3  O   UNL     1       3.987   4.399  17.095  0.00  0.00    +0.000 OA
ATOM      4  N   UNL     1       4.167   2.186  17.620  0.00  0.00    +0.000 N 
ATOM      5  H   UNL     1       6.112   2.244  16.188  0.00  0.00    +0.000 HD
ATOM      6  H   UNL     1       4.573   1.300  17.348  0.00  0.00    +0.000 HD
ENDROOT
BRANCH   4   7
ATOM      7  C   UNL     1       2.909   2.125  18.363  0.00  0.00    +0.000 C 
ATOM      8  C   UNL     1       1.845   2.986  17.689  0.00  0.00    +0.000 C 
ATOM      9  C   UNL     1       0.620   3.099  18.574  0.00  0.00    +0.000 C 
ATOM     10  C   UNL     1       1.015   3.744  19.890  0.00  0.00    +0.000 C 
ATOM     11  N   UNL     1       2.099   3.039  20.561  0.00  0.00    +0.000 N 
ATOM     12  C   UNL     1       2.358   3.411  21.941  0.00  0.00    +0.000 C 
ATOM     13  C   UNL     1       3.177   2.534  19.831  0.00  0.00    +0.000 C 
ATOM     14  O   UNL     1       4.283   2.332  20.345  0.00  0.00    +0.000 OA
ENDBRANCH   4   7
BRANCH   1  16
ATOM     15  C   UNL     1       5.476   4.850  14.609  0.00  0.00    +0.000 C 
ATOM     16  C   UNL     1       6.425   4.289  15.672  0.00  0.00    +0.000 C 
BRANCH  16  17
ATOM     17  C   UNL     1       6.943   5.287  16.689  0.00  0.00    +0.000 A 
ATOM     18  C   UNL     1       6.881   6.671  16.527  0.00  0.00    +0.000 A 
ATOM     19  N   UNL     1       7.362   7.574  17.418  0.00  0.00    +0.000 NA
ATOM     20  C   UNL     1       7.941   7.076  18.534  0.00  0.00    +0.000 A 
ATOM     21  C   UNL     1       8.052   5.723  18.793  0.00  0.00    +0.000 A 
ATOM     22  F   UNL     1       8.634   5.288  19.916  0.00  0.00    +0.000 F 
ATOM     23  C   UNL     1       7.552   4.820  17.865  0.00  0.00    +0.000 A 
ENDBRANCH  16  17
ENDBRANCH   1  16
TORSDOF 3
ENDMDL
MODEL 6
REMARK VINA RESULT:      -7.3      4.374      5.096
REMARK  Name = 
REMARK  5 active torsions:
REMARK  status: ('A' for Active; 'I' for Inactive)
REMARK    1  A    between atoms: C_1  and  C_2
REMARK    2  A    between atoms: C_2  and  N_3
REMARK    3  A    between atoms: C_2  and  C_15
REMARK    4  A    between atoms: N_6  and  C_7
REMARK    5  A    between atoms: N_11  and  C_12
REMARK                            x       y       z     vdW  Elec       q    Type
REMARK                         _______ _______ _______ _____ _____    ______ ____
ROOT
ATOM      1  N   UNL     1       4.214   5.102  19.467  0.00  0.00    +0.000 N 
ATOM      2  C   UNL     1       3.145   5.789  18.968  0.00  0.00    +0.000 C 
ATOM      3  O   UNL     1       2.507   5.434  17.987  0.00  0.00    +0.000 OA
ATOM      4  N   UNL     1       2.900   6.946  19.649  0.00  0.00    +0.000 N 
ATOM      5  H   UNL     1       4.580   5.367  20.369  0.00  0.00    +0.000 HD
ATOM      6  H   UNL     1       3.308   7.085  20.564  0.00  0.00    +0.000 HD
ENDROOT
BRANCH   4   7
ATOM      7  C   UNL     1       1.786   7.823  19.295  0.00  0.00    +0.000 C 
ATOM      8  C   UNL     1       2.173   8.747  18.144  0.00  0.00    +0.000 C 
ATOM      9  C   UNL     1       1.103   9.799  17.928  0.00  0.00    +0.000 C 
ATOM     10  C   UNL     1       0.954  10.624  19.193  0.00  0.00    +0.000 C 
ATOM     11  N   UNL     1       0.677   9.809  20.369  0.00  0.00    +0.000 N 
ATOM     12  C   UNL     1       0.247  10.518  21.562  0.00  0.00    +0.000 C 
ATOM     13  C   UNL     1       1.333   8.591  20.560  0.00  0.00    +0.000 C 
ATOM     14  O   UNL     1       1.477   8.090  21.681  0.00  0.00    +0.000 OA
ENDBRANCH   4   7
BRANCH   1  16
ATOM     15  C   UNL     1       3.487   2.932  18.643  0.00  0.00    +0.000 C 
ATOM     16  C   UNL     1       4.684   3.862  18.863  0.00  0.00    +0.000 C 
BRANCH  16  17
ATOM     17  C   UNL     1       5.519   4.167  17.635  0.00  0.00    +0.000 A 
ATOM     18  C   UNL     1       6.822   4.662  17.680  0.00  0.00    +0.000 A 
ATOM     19  N   UNL     1       7.572   4.962  16.589  0.00  0.00    +0.000 NA
ATOM     20  C   UNL     1       6.994   4.761  15.384  0.00  0.00    +0.000 A 
ATOM     21  C   UNL     1       5.711   4.272  15.227  0.00  0.00    +0.000 A 
ATOM     22  F   UNL     1       5.192   4.092  14.007  0.00  0.00    +0.000 F 
ATOM     23  C   UNL     1       4.965   3.974  16.359  0.00  0.00    +0.000 A 
ENDBRANCH  16  17
ENDBRANCH   1  16
TORSDOF 3
ENDMDL
MODEL 7
REMARK VINA RESULT:      -7.3      6.126      6.972
REMARK  Name = 
REMARK  5 active torsions:
REMARK  status: ('A' for Active; 'I' for Inactive)
REMARK    1  A    between atoms: C_1  and  C_2
REMARK    2  A    between atoms: C_2  and  N_3
REMARK    3  A    between atoms: C_2  and  C_15
REMARK    4  A    between atoms: N_6  and  C_7
REMARK    5  A    between atoms: N_11  and  C_12
REMARK                            x       y       z     vdW  Elec       q    Type
REMARK                         _______ _______ _______ _____ _____    ______ ____
ROOT
ATOM      1  N   UNL     1       2.664   7.375  17.778  0.00  0.00    +0.000 N 
ATOM      2  C   UNL     1       2.066   8.172  18.713  0.00  0.00    +0.000 C 
ATOM      3  O   UNL     1       1.945   7.864  19.890  0.00  0.00    +0.000 OA
ATOM      4  N   UNL     1       1.568   9.325  18.178  0.00  0.00    +0.000 N 
ATOM      5  H   UNL     1       2.873   7.767  16.873  0.00  0.00    +0.000 HD
ATOM      6  H   UNL     1       1.877   9.627  17.263  0.00  0.00    +0.000 HD
ENDROOT
BRANCH   4   7
ATOM      7  C   UNL     1       0.908  10.332  19.007  0.00  0.00    +0.000 C 
ATOM      8  C   UNL     1      -0.607  10.244  18.855  0.00  0.00    +0.000 C 
ATOM      9  C   UNL     1      -1.276  11.422  19.536  0.00  0.00    +0.000 C 
ATOM     10  C   UNL     1      -0.790  12.709  18.893  0.00  0.00    +0.000 C 
ATOM     11  N   UNL     1       0.662  12.833  18.906  0.00  0.00    +0.000 N 
ATOM     12  C   UNL     1       1.204  14.138  18.570  0.00  0.00    +0.000 C 
ATOM     13  C   UNL     1       1.472  11.726  18.643  0.00  0.00    +0.000 C 
ATOM     14  O   UNL     1       2.627  11.842  18.219  0.00  0.00    +0.000 OA
ENDBRANCH   4   7
BRANCH   1  16
ATOM     15  C   UNL     1       2.139   5.006  17.942  0.00  0.00    +0.000 C 
ATOM     16  C   UNL     1       3.223   6.073  18.119  0.00  0.00    +0.000 C 
BRANCH  16  17
ATOM     17  C   UNL     1       4.509   5.844  17.350  0.00  0.00    +0.000 A 
ATOM     18  C   UNL     1       5.521   6.795  17.219  0.00  0.00    +0.000 A 
ATOM     19  N   UNL     1       6.665   6.612  16.513  0.00  0.00    +0.000 NA
ATOM     20  C   UNL     1       6.814   5.416  15.900  0.00  0.00    +0.000 A 
ATOM     21  C   UNL     1       5.874   4.405  15.967  0.00  0.00    +0.000 A 
ATOM     22  F   UNL     1       6.077   3.241  15.339  0.00  0.00    +0.000 F 
ATOM     23  C   UNL     1       4.712   4.618  16.695  0.00  0.00    +0.000 A 
ENDBRANCH  16  17
ENDBRANCH   1  16
TORSDOF 3
ENDMDL
MODEL 8
REMARK VINA RESULT:      -7.3      5.944      7.242
REMARK  Name = 
REMARK  5 active torsions:
REMARK  status: ('A' for Active; 'I' for Inactive)
REMARK    1  A    between atoms: C_1  and  C_2
REMARK    2  A    between atoms: C_2  and  N_3
REMARK    3  A    between atoms: C_2  and  C_15
REMARK    4  A    between atoms: N_6  and  C_7
REMARK    5  A    between atoms: N_11  and  C_12
REMARK                            x       y       z     vdW  Elec       q    Type
REMARK                         _______ _______ _______ _____ _____    ______ ____
ROOT
ATOM      1  N   UNL     1       2.703   7.051  18.834  0.00  0.00    +0.000 N 
ATOM      2  C   UNL     1       1.867   8.120  18.681  0.00  0.00    +0.000 C 
ATOM      3  O   UNL     1       1.534   8.572  17.595  0.00  0.00    +0.000 OA
ATOM      4  N   UNL     1       1.488   8.663  19.874  0.00  0.00    +0.000 N 
ATOM      5  H   UNL     1       2.796   6.637  19.749  0.00  0.00    +0.000 HD
ATOM      6  H   UNL     1       1.611   8.135  20.728  0.00  0.00    +0.000 HD
ENDROOT
BRANCH   4   7
ATOM      7  C   UNL     1       0.575   9.803  19.941  0.00  0.00    +0.000 C 
ATOM      8  C   UNL     1       1.319  11.105  19.664  0.00  0.00    +0.000 C 
ATOM      9  C   UNL     1       0.426  12.296  19.952  0.00  0.00    +0.000 C 
ATOM     10  C   UNL     1       0.012  12.266  21.412  0.00  0.00    +0.000 C 
ATOM     11  N   UNL     1      -0.625  11.012  21.793  0.00  0.00    +0.000 N 
ATOM     12  C   UNL     1      -1.298  10.991  23.080  0.00  0.00    +0.000 C 
ATOM     13  C   UNL     1      -0.135   9.793  21.317  0.00  0.00    +0.000 C 
ATOM     14  O   UNL     1      -0.328   8.728  21.913  0.00  0.00    +0.000 OA
ENDBRANCH   4   7
BRANCH   1  16
ATOM     15  C   UNL     1       4.721   6.795  17.500  0.00  0.00    +0.000 C 
ATOM     16  C   UNL     1       3.270   6.346  17.691  0.00  0.00    +0.000 C 
BRANCH  16  17
ATOM     17  C   UNL     1       3.054   4.853  17.844  0.00  0.00    +0.000 A 
ATOM     18  C   UNL     1       4.048   3.896  17.642  0.00  0.00    +0.000 A 
ATOM     19  N   UNL     1       3.863   2.556  17.753  0.00  0.00    +0.000 NA
ATOM     20  C   UNL     1       2.617   2.142  18.079  0.00  0.00    +0.000 A 
ATOM     21  C   UNL     1       1.563   3.006  18.302  0.00  0.00    +0.000 A 
ATOM     22  F   UNL     1       0.352   2.537  18.625  0.00  0.00    +0.000 F 
ATOM     23  C   UNL     1       1.779   4.372  18.183  0.00  0.00    +0.000 A 
ENDBRANCH  16  17
ENDBRANCH   1  16
TORSDOF 3
ENDMDL
MODEL 9
REMARK VINA RESULT:      -7.2      4.710      5.878
REMARK  Name = 
REMARK  5 active torsions:
REMARK  status: ('A' for Active; 'I' for Inactive)
REMARK    1  A    between atoms: C_1  and  C_2
REMARK    2  A    between atoms: C_2  and  N_3
REMARK    3  A    between atoms: C_2  and  C_15
REMARK    4  A    between atoms: N_6  and  C_7
REMARK    5  A    between atoms: N_11  and  C_12
REMARK                            x       y       z     vdW  Elec       q    Type
REMARK                         _______ _______ _______ _____ _____    ______ ____
ROOT
ATOM      1  N   UNL     1       2.743   5.581  17.999  0.00  0.00    +0.000 N 
ATOM      2  C   UNL     1       2.636   6.367  19.111  0.00  0.00    +0.000 C 
ATOM      3  O   UNL     1       3.016   6.027  20.223  0.00  0.00    +0.000 OA
ATOM      4  N   UNL     1       2.006   7.551  18.857  0.00  0.00    +0.000 N 
ATOM      5  H   UNL     1       2.562   5.994  17.097  0.00  0.00    +0.000 HD
ATOM      6  H   UNL     1       1.907   7.872  17.903  0.00  0.00    +0.000 HD
ENDROOT
BRANCH   4   7
ATOM      7  C   UNL     1       1.806   8.552  19.904  0.00  0.00    +0.000 C 
ATOM      8  C   UNL     1       0.937   7.990  21.025  0.00  0.00    +0.000 C 
ATOM      9  C   UNL     1       0.549   9.090  21.994  0.00  0.00    +0.000 C 
ATOM     10  C   UNL     1      -0.236  10.155  21.248  0.00  0.00    +0.000 C 
ATOM     11  N   UNL     1       0.483  10.682  20.096  0.00  0.00    +0.000 N 
ATOM     12  C   UNL     1      -0.059  11.886  19.489  0.00  0.00    +0.000 C 
ATOM     13  C   UNL     1       1.216   9.832  19.265  0.00  0.00    +0.000 C 
ATOM     14  O   UNL     1       1.467  10.116  18.089  0.00  0.00    +0.000 OA
ENDBRANCH   4   7
BRANCH   1  16
ATOM     15  C   UNL     1       2.490   3.296  17.207  0.00  0.00    +0.000 C 
ATOM     16  C   UNL     1       3.340   4.252  18.049  0.00  0.00    +0.000 C 
BRANCH  16  17
ATOM     17  C   UNL     1       4.808   4.329  17.682  0.00  0.00    +0.000 A 
ATOM     18  C   UNL     1       5.833   4.554  18.601  0.00  0.00    +0.000 A 
ATOM     19  N   UNL     1       7.148   4.649  18.283  0.00  0.00    +0.000 NA
ATOM     20  C   UNL     1       7.466   4.515  16.976  0.00  0.00    +0.000 A 
ATOM     21  C   UNL     1       6.531   4.288  15.985  0.00  0.00    +0.000 A 
ATOM     22  F   UNL     1       6.906   4.163  14.707  0.00  0.00    +0.000 F 
ATOM     23  C   UNL     1       5.191   4.195  16.337  0.00  0.00    +0.000 A 
ENDBRANCH  16  17
ENDBRANCH   1  16
TORSDOF 3
ENDMDL
