MODEL 1
REMARK VINA RESULT:      -7.1      0.000      0.000
REMARK  Name = 
REMARK  8 active torsions:
REMARK  status: ('A' for Active; 'I' for Inactive)
REMARK    1  A    between atoms: C_1  and  C_2
REMARK    2  A    between atoms: C_2  and  N_3
REMARK    3  A    between atoms: N_3  and  C_4
REMARK    4  A    between atoms: C_7  and  C_8
REMARK    5  A    between atoms: C_11  and  N_12
REMARK    6  A    between atoms: N_12  and  C_13
REMARK    7  A    between atoms: C_13  and  C_14
REMARK    8  A    between atoms: C_17  and  C_18
REMARK                            x       y       z     vdW  Elec       q    Type
REMARK                         _______ _______ _______ _____ _____    ______ ____
ROOT
ATOM      1  C   UNL     1       3.724   3.652  17.862  0.00  0.00    +0.000 A 
ATOM      2  C   UNL     1       2.395   4.115  17.841  0.00  0.00    +0.000 A 
ATOM      3  C   UNL     1       2.087   5.472  17.901  0.00  0.00    +0.000 A 
ATOM      4  C   UNL     1       3.112   6.407  17.931  0.00  0.00    +0.000 A 
ATOM      5  C   UNL     1       4.442   5.980  17.927  0.00  0.00    +0.000 A 
ATOM      6  C   UNL     1       4.775   4.614  17.915  0.00  0.00    +0.000 A 
ENDROOT
BRANCH   1   7
ATOM      7  N   UNL     1       4.028   2.281  17.736  0.00  0.00    +0.000 N 
ATOM      8  H   UNL     1       4.951   2.148  17.332  0.00  0.00    +0.000 HD
BRANCH   7  10
ATOM      9  C   UNL     1       4.370   1.898  20.128  0.00  0.00    +0.000 C 
ATOM     10  C   UNL     1       3.740   1.376  18.848  0.00  0.00    +0.000 C 
ENDBRANCH   7  10
ENDBRANCH   1   7
BRANCH   4  11
ATOM     11  C   UNL     1       2.819   7.803  17.959  0.00  0.00    +0.000 C 
ATOM     12  N   UNL     1       2.588   8.943  17.980  0.00  0.00    +0.000 NA
ENDBRANCH   4  11
BRANCH   6  13
ATOM     13  N   UNL     1       6.125   4.235  17.901  0.00  0.00    +0.000 N 
ATOM     14  H   UNL     1       6.514   3.940  18.789  0.00  0.00    +0.000 HD
BRANCH  13  15
ATOM     15  C   UNL     1       7.070   5.001  17.067  0.00  0.00    +0.000 C 
BRANCH  15  16
ATOM     16  C   UNL     1       6.984   4.824  15.581  0.00  0.00    +0.000 A 
ATOM     17  N   UNL     1       7.705   5.570  14.730  0.00  0.00    +0.000 NA
ATOM     18  O   UNL     1       7.346   5.062  13.479  0.00  0.00    +0.000 OA
ATOM     19  C   UNL     1       6.449   4.060  13.714  0.00  0.00    +0.000 A 
ATOM     20  C   UNL     1       5.914   3.356  12.537  0.00  0.00    +0.000 C 
ATOM     21  N   UNL     1       6.197   3.865  14.986  0.00  0.00    +0.000 NA
ENDBRANCH  15  16
ENDBRANCH  13  15
ENDBRANCH   6  13
TORSDOF 6
ENDMDL
MODEL 2
REMARK VINA RESULT:      -6.8      1.627      1.824
REMARK  Name = 
REMARK  8 active torsions:
REMARK  status: ('A' for Active; 'I' for Inactive)
REMARK    1  A    between atoms: C_1  and  C_2
REMARK    2  A    between atoms: C_2  and  N_3
REMARK    3  A    between atoms: N_3  and  C_4
REMARK    4  A    between atoms: C_7  and  C_8
REMARK    5  A    between atoms: C_11  and  N_12
REMARK    6  A    between atoms: N_12  and  C_13
REMARK    7  A    between atoms: C_13  and  C_14
REMARK    8  A    between atoms: C_17  and  C_18
REMARK                            x       y       z     vdW  Elec       q    Type
REMARK                         _______ _______ _______ _____ _____    ______ ____
ROOT
ATOM      1  C   UNL     1       2.998   4.763  19.525  0.00  0.00    +0.000 A 
ATOM      2  C   UNL     1       2.214   5.698  20.226  0.00  0.00    +0.000 A 
ATOM      3  C   UNL     1       2.014   6.993  19.752  0.00  0.00    +0.000 A 
ATOM      4  C   UNL     1       2.556   7.368  18.531  0.00  0.00    +0.000 A 
ATOM      5  C   UNL     1       3.318   6.454  17.800  0.00  0.00    +0.000 A 
ATOM      6  C   UNL     1       3.572   5.158  18.281  0.00  0.00    +0.000 A 
ENDROOT
BRANCH   1   7
ATOM      7  N   UNL     1       3.142   3.436  19.979  0.00  0.00    +0.000 N 
ATOM      8  H   UNL     1       4.045   3.054  19.710  0.00  0.00    +0.000 HD
BRANCH   7  10
ATOM      9  C   UNL     1       1.313   2.594  21.368  0.00  0.00    +0.000 C 
ATOM     10  C   UNL     1       2.747   3.096  21.345  0.00  0.00    +0.000 C 
ENDBRANCH   7  10
ENDBRANCH   1   7
BRANCH   4  11
ATOM     11  C   UNL     1       2.336   8.679  18.013  0.00  0.00    +0.000 C 
ATOM     12  N   UNL     1       2.147   9.746  17.593  0.00  0.00    +0.000 NA
ENDBRANCH   4  11
BRANCH   6  13
ATOM     13  N   UNL     1       4.335   4.272  17.505  0.00  0.00    +0.000 N 
ATOM     14  H   UNL     1       4.089   3.292  17.578  0.00  0.00    +0.000 HD
BRANCH  13  15
ATOM     15  C   UNL     1       5.784   4.511  17.374  0.00  0.00    +0.000 C 
BRANCH  15  16
ATOM     16  C   UNL     1       6.341   4.650  15.990  0.00  0.00    +0.000 A 
ATOM     17  N   UNL     1       7.341   5.498  15.704  0.00  0.00    +0.000 NA
ATOM     18  O   UNL     1       7.557   5.287  14.340  0.00  0.00    +0.000 OA
ATOM     19  C   UNL     1       6.665   4.330  13.953  0.00  0.00    +0.000 A 
ATOM     20  C   UNL     1       6.693   3.926  12.537  0.00  0.00    +0.000 C 
ATOM     21  N   UNL     1       5.899   3.897  14.926  0.00  0.00    +0.000 NA
ENDBRANCH  15  16
ENDBRANCH  13  15
ENDBRANCH   6  13
TORSDOF 6
ENDMDL
MODEL 3
REMARK VINA RESULT:      -6.7      1.523      1.689
REMARK  Name = 
REMARK  8 active torsions:
REMARK  status: ('A' for Active; 'I' for Inactive)
REMARK    1  A    between atoms: C_1  and  C_2
REMARK    2  A    between atoms: C_2  and  N_3
REMARK    3  A    between atoms: N_3  and  C_4
REMARK    4  A    between atoms: C_7  and  C_8
REMARK    5  A    between atoms: C_11  and  N_12
REMARK    6  A    between atoms: N_12  and  C_13
REMARK    7  A    between atoms: C_13  and  C_14
REMARK    8  A    between atoms: C_17  and  C_18
REMARK                            x       y       z     vdW  Elec       q    Type
REMARK                         _______ _______ _______ _____ _____    ______ ____
ROOT
ATOM      1  C   UNL     1       4.057   3.262  19.869  0.00  0.00    +0.000 A 
ATOM      2  C   UNL     1       2.815   3.489  20.493  0.00  0.00    +0.000 A 
ATOM      3  C   UNL     1       2.230   4.753  20.531  0.00  0.00    +0.000 A 
ATOM      4  C   UNL     1       2.855   5.817  19.896  0.00  0.00    +0.000 A 
ATOM      5  C   UNL     1       4.075   5.619  19.247  0.00  0.00    +0.000 A 
ATOM      6  C   UNL     1       4.706   4.362  19.236  0.00  0.00    +0.000 A 
ENDROOT
BRANCH   1   7
ATOM      7  N   UNL     1       4.610   1.969  19.778  0.00  0.00    +0.000 N 
ATOM      8  H   UNL     1       4.761   1.571  20.701  0.00  0.00    +0.000 HD
BRANCH   7  10
ATOM      9  C   UNL     1       3.299   1.754  17.724  0.00  0.00    +0.000 C 
ATOM     10  C   UNL     1       4.060   1.018  18.813  0.00  0.00    +0.000 C 
ENDBRANCH   7  10
ENDBRANCH   1   7
BRANCH   4  11
ATOM     11  C   UNL     1       2.256   7.112  19.896  0.00  0.00    +0.000 C 
ATOM     12  N   UNL     1       1.761   8.164  19.890  0.00  0.00    +0.000 NA
ENDBRANCH   4  11
BRANCH   6  13
ATOM     13  N   UNL     1       5.926   4.211  18.561  0.00  0.00    +0.000 N 
ATOM     14  H   UNL     1       6.643   3.686  19.049  0.00  0.00    +0.000 HD
BRANCH  13  15
ATOM     15  C   UNL     1       6.453   5.346  17.781  0.00  0.00    +0.000 C 
BRANCH  15  16
ATOM     16  C   UNL     1       6.666   5.139  16.312  0.00  0.00    +0.000 A 
ATOM     17  N   UNL     1       7.590   5.824  15.620  0.00  0.00    +0.000 NA
ATOM     18  O   UNL     1       7.468   5.307  14.329  0.00  0.00    +0.000 OA
ATOM     19  C   UNL     1       6.485   4.362  14.383  0.00  0.00    +0.000 A 
ATOM     20  C   UNL     1       6.164   3.661  13.129  0.00  0.00    +0.000 C 
ATOM     21  N   UNL     1       5.963   4.211  15.578  0.00  0.00    +0.000 NA
ENDBRANCH  15  16
ENDBRANCH  13  15
ENDBRANCH   6  13
TORSDOF 6
ENDMDL
MODEL 4
REMARK VINA RESULT:      -6.7      2.125      4.246
REMARK  Name = 
REMARK  8 active torsions:
REMARK  status: ('A' for Active; 'I' for Inactive)
REMARK    1  A    between atoms: C_1  and  C_2
REMARK    2  A    between atoms: C_2  and  N_3
REMARK    3  A    between atoms: N_3  and  C_4
REMARK    4  A    between atoms: C_7  and  C_8
REMARK    5  A    between atoms: C_11  and  N_12
REMARK    6  A    between atoms: N_12  and  C_13
REMARK    7  A    between atoms: C_13  and  C_14
REMARK    8  A    between atoms: C_17  and  C_18
REMARK                            x       y       z     vdW  Elec       q    Type
REMARK                         _______ _______ _______ _____ _____    ______ ____
ROOT
ATOM      1  C   UNL     1       2.576   6.979  18.863  0.00  0.00    +0.000 A 
ATOM      2  C   UNL     1       1.899   7.059  20.094  0.00  0.00    +0.000 A 
ATOM      3  C   UNL     1       1.723   5.944  20.911  0.00  0.00    +0.000 A 
ATOM      4  C   UNL     1       2.268   4.725  20.536  0.00  0.00    +0.000 A 
ATOM      5  C   UNL     1       2.968   4.619  19.332  0.00  0.00    +0.000 A 
ATOM      6  C   UNL     1       3.118   5.720  18.470  0.00  0.00    +0.000 A 
ENDROOT
BRANCH   1   7
ATOM      7  N   UNL     1       2.807   8.123  18.073  0.00  0.00    +0.000 N 
ATOM      8  H   UNL     1       3.416   7.909  17.288  0.00  0.00    +0.000 HD
BRANCH   7  10
ATOM      9  C   UNL     1       2.007  10.435  18.078  0.00  0.00    +0.000 C 
ATOM     10  C   UNL     1       1.686   8.993  17.723  0.00  0.00    +0.000 C 
ENDBRANCH   7  10
ENDBRANCH   1   7
BRANCH   4  11
ATOM     11  C   UNL     1       2.127   3.580  21.374  0.00  0.00    +0.000 C 
ATOM     12  N   UNL     1       2.012   2.640  22.049  0.00  0.00    +0.000 NA
ENDBRANCH   4  11
BRANCH   6  13
ATOM     13  N   UNL     1       3.838   5.566  17.276  0.00  0.00    +0.000 N 
ATOM     14  H   UNL     1       3.415   4.968  16.575  0.00  0.00    +0.000 HD
BRANCH  13  15
ATOM     15  C   UNL     1       5.307   5.453  17.342  0.00  0.00    +0.000 C 
BRANCH  15  16
ATOM     16  C   UNL     1       6.043   5.215  16.058  0.00  0.00    +0.000 A 
ATOM     17  N   UNL     1       7.253   5.743  15.820  0.00  0.00    +0.000 NA
ATOM     18  O   UNL     1       7.570   5.253  14.551  0.00  0.00    +0.000 OA
ATOM     19  C   UNL     1       6.515   4.477  14.164  0.00  0.00    +0.000 A 
ATOM     20  C   UNL     1       6.609   3.837  12.841  0.00  0.00    +0.000 C 
ATOM     21  N   UNL     1       5.553   4.412  15.054  0.00  0.00    +0.000 NA
ENDBRANCH  15  16
ENDBRANCH  13  15
ENDBRANCH   6  13
TORSDOF 6
ENDMDL
MODEL 5
REMARK VINA RESULT:      -6.7      2.684      4.619
REMARK  Name = 
REMARK  8 active torsions:
REMARK  status: ('A' for Active; 'I' for Inactive)
REMARK    1  A    between atoms: C_1  and  C_2
REMARK    2  A    between atoms: C_2  and  N_3
REMARK    3  A    between atoms: N_3  and  C_4
REMARK    4  A    between atoms: C_7  and  C_8
REMARK    5  A    between atoms: C_11  and  N_12
REMARK    6  A    between atoms: N_12  and  C_13
REMARK    7  A    between atoms: C_13  and  C_14
REMARK    8  A    between atoms: C_17  and  C_18
REMARK                            x       y       z     vdW  Elec       q    Type
REMARK                         _______ _______ _______ _____ _____    ______ ____
ROOT
ATOM      1  C   UNL     1       4.616   4.390  17.044  0.00  0.00    +0.000 A 
ATOM      2  C   UNL     1       3.231   4.264  17.259  0.00  0.00    +0.000 A 
ATOM      3  C   UNL     1       2.712   3.800  18.466  0.00  0.00    +0.000 A 
ATOM      4  C   UNL     1       3.573   3.499  19.511  0.00  0.00    +0.000 A 
ATOM      5  C   UNL     1       4.951   3.638  19.338  0.00  0.00    +0.000 A 
ATOM      6  C   UNL     1       5.499   4.059  18.114  0.00  0.00    +0.000 A 
ENDROOT
BRANCH   1   7
ATOM      7  N   UNL     1       5.130   4.922  15.844  0.00  0.00    +0.000 N 
ATOM      8  H   UNL     1       5.667   5.767  16.019  0.00  0.00    +0.000 HD
BRANCH   7  10
ATOM      9  C   UNL     1       6.777   4.780  14.041  0.00  0.00    +0.000 C 
ATOM     10  C   UNL     1       5.751   4.026  14.870  0.00  0.00    +0.000 C 
ENDBRANCH   7  10
ENDBRANCH   1   7
BRANCH   4  11
ATOM     11  C   UNL     1       3.060   3.053  20.766  0.00  0.00    +0.000 C 
ATOM     12  N   UNL     1       2.643   2.699  21.792  0.00  0.00    +0.000 NA
ENDBRANCH   4  11
BRANCH   6  13
ATOM     13  N   UNL     1       6.890   4.194  17.992  0.00  0.00    +0.000 N 
ATOM     14  H   UNL     1       7.413   3.333  17.883  0.00  0.00    +0.000 HD
BRANCH  13  15
ATOM     15  C   UNL     1       7.581   5.206  18.813  0.00  0.00    +0.000 C 
BRANCH  15  16
ATOM     16  C   UNL     1       7.707   6.589  18.249  0.00  0.00    +0.000 A 
ATOM     17  N   UNL     1       7.109   6.951  17.103  0.00  0.00    +0.000 NA
ATOM     18  O   UNL     1       7.460   8.296  16.972  0.00  0.00    +0.000 OA
ATOM     19  C   UNL     1       8.230   8.600  18.058  0.00  0.00    +0.000 A 
ATOM     20  C   UNL     1       8.732   9.981  18.152  0.00  0.00    +0.000 C 
ATOM     21  N   UNL     1       8.407   7.592  18.879  0.00  0.00    +0.000 NA
ENDBRANCH  15  16
ENDBRANCH  13  15
ENDBRANCH   6  13
TORSDOF 6
ENDMDL
MODEL 6
REMARK VINA RESULT:      -6.7      2.124      3.086
REMARK  Name = 
REMARK  8 active torsions:
REMARK  status: ('A' for Active; 'I' for Inactive)
REMARK    1  A    between atoms: C_1  and  C_2
REMARK    2  A    between atoms: C_2  and  N_3
REMARK    3  A    between atoms: N_3  and  C_4
REMARK    4  A    between atoms: C_7  and  C_8
REMARK    5  A    between atoms: C_11  and  N_12
REMARK    6  A    between atoms: N_12  and  C_13
REMARK    7  A    between atoms: C_13  and  C_14
REMARK    8  A    between atoms: C_17  and  C_18
REMARK                            x       y       z     vdW  Elec       q    Type
REMARK                         _______ _______ _______ _____ _____    ______ ____
ROOT
ATOM      1  C   UNL     1       4.066   4.195  18.692  0.00  0.00    +0.000 A 
ATOM      2  C   UNL     1       3.274   4.897  19.620  0.00  0.00    +0.000 A 
ATOM      3  C   UNL     1       2.813   6.187  19.368  0.00  0.00    +0.000 A 
ATOM      4  C   UNL     1       3.094   6.790  18.151  0.00  0.00    +0.000 A 
ATOM      5  C   UNL     1       3.857   6.110  17.199  0.00  0.00    +0.000 A 
ATOM      6  C   UNL     1       4.372   4.826  17.450  0.00  0.00    +0.000 A 
ENDROOT
BRANCH   1   7
ATOM      7  N   UNL     1       4.474   2.867  18.927  0.00  0.00    +0.000 N 
ATOM      8  H   UNL     1       4.782   2.743  19.888  0.00  0.00    +0.000 HD
BRANCH   7  10
ATOM      9  C   UNL     1       2.189   2.011  18.756  0.00  0.00    +0.000 C 
ATOM     10  C   UNL     1       3.652   1.764  18.430  0.00  0.00    +0.000 C 
ENDBRANCH   7  10
ENDBRANCH   1   7
BRANCH   4  11
ATOM     11  C   UNL     1       2.604   8.098  17.860  0.00  0.00    +0.000 C 
ATOM     12  N   UNL     1       2.211   9.168  17.629  0.00  0.00    +0.000 NA
ENDBRANCH   4  11
BRANCH   6  13
ATOM     13  N   UNL     1       5.124   4.179  16.459  0.00  0.00    +0.000 N 
ATOM     14  H   UNL     1       4.811   3.252  16.196  0.00  0.00    +0.000 HD
BRANCH  13  15
ATOM     15  C   UNL     1       6.592   4.327  16.471  0.00  0.00    +0.000 C 
BRANCH  15  16
ATOM     16  C   UNL     1       7.170   5.435  17.296  0.00  0.00    +0.000 A 
ATOM     17  N   UNL     1       7.640   5.233  18.537  0.00  0.00    +0.000 NA
ATOM     18  O   UNL     1       8.099   6.497  18.913  0.00  0.00    +0.000 OA
ATOM     19  C   UNL     1       7.860   7.325  17.855  0.00  0.00    +0.000 A 
ATOM     20  C   UNL     1       8.261   8.733  18.006  0.00  0.00    +0.000 C 
ATOM     21  N   UNL     1       7.299   6.724  16.831  0.00  0.00    +0.000 NA
ENDBRANCH  15  16
ENDBRANCH  13  15
ENDBRANCH   6  13
TORSDOF 6
ENDMDL
MODEL 7
REMARK VINA RESULT:      -6.7      1.358      1.470
REMARK  Name = 
REMARK  8 active torsions:
REMARK  status: ('A' for Active; 'I' for Inactive)
REMARK    1  A    between atoms: C_1  and  C_2
REMARK    2  A    between atoms: C_2  and  N_3
REMARK    3  A    between atoms: N_3  and  C_4
REMARK    4  A    between atoms: C_7  and  C_8
REMARK    5  A    between atoms: C_11  and  N_12
REMARK    6  A    between atoms: N_12  and  C_13
REMARK    7  A    between atoms: C_13  and  C_14
REMARK    8  A    between atoms: C_17  and  C_18
REMARK                            x       y       z     vdW  Elec       q    Type
REMARK                         _______ _______ _______ _____ _____    ______ ____
ROOT
ATOM      1  C   UNL     1       3.668   4.640  19.446  0.00  0.00    +0.000 A 
ATOM      2  C   UNL     1       2.547   5.305  19.978  0.00  0.00    +0.000 A 
ATOM      3  C   UNL     1       2.144   6.555  19.512  0.00  0.00    +0.000 A 
ATOM      4  C   UNL     1       2.828   7.149  18.461  0.00  0.00    +0.000 A 
ATOM      5  C   UNL     1       3.929   6.502  17.896  0.00  0.00    +0.000 A 
ATOM      6  C   UNL     1       4.382   5.262  18.380  0.00  0.00    +0.000 A 
ENDROOT
BRANCH   1   7
ATOM      7  N   UNL     1       4.030   3.347  19.877  0.00  0.00    +0.000 N 
ATOM      8  H   UNL     1       4.376   3.364  20.833  0.00  0.00    +0.000 HD
BRANCH   7  10
ATOM      9  C   UNL     1       3.667   1.412  18.425  0.00  0.00    +0.000 C 
ATOM     10  C   UNL     1       3.140   2.221  19.598  0.00  0.00    +0.000 C 
ENDBRANCH   7  10
ENDBRANCH   1   7
BRANCH   4  11
ATOM     11  C   UNL     1       2.412   8.413  17.949  0.00  0.00    +0.000 C 
ATOM     12  N   UNL     1       2.066   9.440  17.525  0.00  0.00    +0.000 NA
ENDBRANCH   4  11
BRANCH   6  13
ATOM     13  N   UNL     1       5.486   4.646  17.772  0.00  0.00    +0.000 N 
ATOM     14  H   UNL     1       6.372   5.129  17.865  0.00  0.00    +0.000 HD
BRANCH  13  15
ATOM     15  C   UNL     1       5.303   3.993  16.463  0.00  0.00    +0.000 C 
BRANCH  15  16
ATOM     16  C   UNL     1       6.175   4.448  15.332  0.00  0.00    +0.000 A 
ATOM     17  N   UNL     1       7.173   5.328  15.509  0.00  0.00    +0.000 NA
ATOM     18  O   UNL     1       7.726   5.442  14.232  0.00  0.00    +0.000 OA
ATOM     19  C   UNL     1       7.003   4.613  13.424  0.00  0.00    +0.000 A 
ATOM     20  C   UNL     1       7.397   4.554  12.007  0.00  0.00    +0.000 C 
ATOM     21  N   UNL     1       6.044   3.971  14.048  0.00  0.00    +0.000 NA
ENDBRANCH  15  16
ENDBRANCH  13  15
ENDBRANCH   6  13
TORSDOF 6
ENDMDL
MODEL 8
REMARK VINA RESULT:      -6.6      2.336      3.457
REMARK  Name = 
REMARK  8 active torsions:
REMARK  status: ('A' for Active; 'I' for Inactive)
REMARK    1  A    between atoms: C_1  and  C_2
REMARK    2  A    between atoms: C_2  and  N_3
REMARK    3  A    between atoms: N_3  and  C_4
REMARK    4  A    between atoms: C_7  and  C_8
REMARK    5  A    between atoms: C_11  and  N_12
REMARK    6  A    between atoms: N_12  and  C_13
REMARK    7  A    between atoms: C_13  and  C_14
REMARK    8  A    between atoms: C_17  and  C_18
REMARK                            x       y       z     vdW  Elec       q    Type
REMARK                         _______ _______ _______ _____ _____    ______ ____
ROOT
ATOM      1  C   UNL     1       6.125   4.895  18.378  0.00  0.00    +0.000 A 
ATOM      2  C   UNL     1       5.140   5.232  19.326  0.00  0.00    +0.000 A 
ATOM      3  C   UNL     1       3.787   4.996  19.095  0.00  0.00    +0.000 A 
ATOM      4  C   UNL     1       3.389   4.367  17.925  0.00  0.00    +0.000 A 
ATOM      5  C   UNL     1       4.345   3.998  16.976  0.00  0.00    +0.000 A 
ATOM      6  C   UNL     1       5.712   4.267  17.166  0.00  0.00    +0.000 A 
ENDROOT
BRANCH   1   7
ATOM      7  N   UNL     1       7.497   5.076  18.646  0.00  0.00    +0.000 N 
ATOM      8  H   UNL     1       8.069   4.514  18.021  0.00  0.00    +0.000 HD
BRANCH   7  10
ATOM      9  C   UNL     1       7.655   7.318  17.679  0.00  0.00    +0.000 C 
ATOM     10  C   UNL     1       8.016   6.427  18.856  0.00  0.00    +0.000 C 
ENDBRANCH   7  10
ENDBRANCH   1   7
BRANCH   4  11
ATOM     11  C   UNL     1       2.011   4.088  17.685  0.00  0.00    +0.000 C 
ATOM     12  N   UNL     1       0.886   3.860  17.498  0.00  0.00    +0.000 NA
ENDBRANCH   4  11
BRANCH   6  13
ATOM     13  N   UNL     1       6.635   3.867  16.189  0.00  0.00    +0.000 N 
ATOM     14  H   UNL     1       7.487   3.437  16.531  0.00  0.00    +0.000 HD
BRANCH  13  15
ATOM     15  C   UNL     1       6.840   4.728  15.010  0.00  0.00    +0.000 C 
BRANCH  15  16
ATOM     16  C   UNL     1       6.397   4.199  13.680  0.00  0.00    +0.000 A 
ATOM     17  N   UNL     1       7.268   3.890  12.707  0.00  0.00    +0.000 NA
ATOM     18  O   UNL     1       6.446   3.419  11.681  0.00  0.00    +0.000 OA
ATOM     19  C   UNL     1       5.166   3.491  12.149  0.00  0.00    +0.000 A 
ATOM     20  C   UNL     1       4.098   3.044  11.241  0.00  0.00    +0.000 C 
ATOM     21  N   UNL     1       5.077   3.954  13.374  0.00  0.00    +0.000 NA
ENDBRANCH  15  16
ENDBRANCH  13  15
ENDBRANCH   6  13
TORSDOF 6
ENDMDL
MODEL 9
REMARK VINA RESULT:      -6.6      4.559      7.437
REMARK  Name = 
REMARK  8 active torsions:
REMARK  status: ('A' for Active; 'I' for Inactive)
REMARK    1  A    between atoms: C_1  and  C_2
REMARK    2  A    between atoms: C_2  and  N_3
REMARK    3  A    between atoms: N_3  and  C_4
REMARK    4  A    between atoms: C_7  and  C_8
REMARK    5  A    between atoms: C_11  and  N_12
REMARK    6  A    between atoms: N_12  and  C_13
REMARK    7  A    between atoms: C_13  and  C_14
REMARK    8  A    between atoms: C_17  and  C_18
REMARK                            x       y       z     vdW  Elec       q    Type
REMARK                         _______ _______ _______ _____ _____    ______ ____
ROOT
ATOM      1  C   UNL     1       1.872   4.858  19.382  0.00  0.00    +0.000 A 
ATOM      2  C   UNL     1       2.277   4.047  18.306  0.00  0.00    +0.000 A 
ATOM      3  C   UNL     1       3.215   4.479  17.371  0.00  0.00    +0.000 A 
ATOM      4  C   UNL     1       3.811   5.723  17.522  0.00  0.00    +0.000 A 
ATOM      5  C   UNL     1       3.448   6.541  18.595  0.00  0.00    +0.000 A 
ATOM      6  C   UNL     1       2.470   6.144  19.523  0.00  0.00    +0.000 A 
ENDROOT
BRANCH   1   7
ATOM      7  N   UNL     1       0.971   4.388  20.360  0.00  0.00    +0.000 N 
ATOM      8  H   UNL     1       0.016   4.647  20.131  0.00  0.00    +0.000 HD
BRANCH   7  10
ATOM      9  C   UNL     1       2.380   2.876  21.670  0.00  0.00    +0.000 C 
ATOM     10  C   UNL     1       1.103   3.020  20.860  0.00  0.00    +0.000 C 
ENDBRANCH   7  10
ENDBRANCH   1   7
BRANCH   4  11
ATOM     11  C   UNL     1       4.797   6.171  16.594  0.00  0.00    +0.000 C 
ATOM     12  N   UNL     1       5.594   6.538  15.831  0.00  0.00    +0.000 NA
ENDBRANCH   4  11
BRANCH   6  13
ATOM     13  N   UNL     1       2.147   6.996  20.590  0.00  0.00    +0.000 N 
ATOM     14  H   UNL     1       1.794   6.547  21.427  0.00  0.00    +0.000 HD
BRANCH  13  15
ATOM     15  C   UNL     1       1.504   8.290  20.296  0.00  0.00    +0.000 C 
BRANCH  15  16
ATOM     16  C   UNL     1       0.911   9.046  21.446  0.00  0.00    +0.000 A 
ATOM     17  N   UNL     1       1.530   9.145  22.633  0.00  0.00    +0.000 NA
ATOM     18  O   UNL     1       0.660   9.940  23.381  0.00  0.00    +0.000 OA
ATOM     19  C   UNL     1      -0.389  10.240  22.561  0.00  0.00    +0.000 A 
ATOM     20  C   UNL     1      -1.457  11.081  23.125  0.00  0.00    +0.000 C 
ATOM     21  N   UNL     1      -0.284   9.724  21.359  0.00  0.00    +0.000 NA
ENDBRANCH  15  16
ENDBRANCH  13  15
ENDBRANCH   6  13
TORSDOF 6
ENDMDL
