MODEL 1
REMARK VINA RESULT:      -8.2      0.000      0.000
REMARK  Name = 
REMARK  7 active torsions:
REMARK  status: ('A' for Active; 'I' for Inactive)
REMARK    1  A    between atoms: C_3  and  O_4
REMARK    2  A    between atoms: C_5  and  C_6
REMARK    3  A    between atoms: C_6  and  N_7
REMARK    4  A    between atoms: C_6  and  C_14
REMARK    5  A    between atoms: N_7  and  C_8
REMARK    6  A    between atoms: C_8  and  C_9
REMARK    7  A    between atoms: C_19  and  O_20
REMARK                            x       y       z     vdW  Elec       q    Type
REMARK                         _______ _______ _______ _____ _____    ______ ____
ROOT
ATOM      1  C   UNL     1       5.996   5.403  17.210  0.00  0.00    +0.000 C 
ENDROOT
BRANCH   1   5
ATOM      2  O   UNL     1       1.849   7.018  19.182  0.00  0.00    +0.000 OA
ATOM      3  C   UNL     1       2.648   6.086  19.125  0.00  0.00    +0.000 C 
ATOM      4  C   UNL     1       3.826   6.194  18.221  0.00  0.00    +0.000 C 
ATOM      5  C   UNL     1       4.795   5.258  18.156  0.00  0.00    +0.000 C 
ATOM      6  C   UNL     1       4.694   4.080  19.075  0.00  0.00    +0.000 C 
ATOM      7  O   UNL     1       5.596   3.267  19.249  0.00  0.00    +0.000 OA
ATOM      8  C   UNL     1       3.445   3.868  19.832  0.00  0.00    +0.000 A 
ATOM      9  C   UNL     1       3.255   2.660  20.523  0.00  0.00    +0.000 A 
ATOM     10  C   UNL     1       2.090   2.449  21.266  0.00  0.00    +0.000 A 
ATOM     11  C   UNL     1       1.118   3.444  21.329  0.00  0.00    +0.000 A 
ATOM     12  C   UNL     1       1.305   4.645  20.643  0.00  0.00    +0.000 A 
ATOM     13  C   UNL     1       2.467   4.848  19.887  0.00  0.00    +0.000 A 
BRANCH   4  14
ATOM     14  O   UNL     1       3.853   7.333  17.431  0.00  0.00    +0.000 OA
ATOM     15  H   UNL     1       2.964   7.377  17.013  0.00  0.00    +0.000 HD
ENDBRANCH   4  14
ENDBRANCH   1   5
BRANCH   1  16
ATOM     16  C   UNL     1       6.999   6.472  17.668  0.00  0.00    +0.000 A 
ATOM     17  C   UNL     1       6.983   7.733  17.037  0.00  0.00    +0.000 A 
ATOM     18  C   UNL     1       7.757   8.790  17.519  0.00  0.00    +0.000 A 
ATOM     19  C   UNL     1       8.565   8.603  18.636  0.00  0.00    +0.000 A 
ATOM     20  C   UNL     1       8.619   7.354  19.257  0.00  0.00    +0.000 A 
ATOM     21  C   UNL     1       7.844   6.297  18.770  0.00  0.00    +0.000 A 
BRANCH  21  22
ATOM     22  O   UNL     1       7.876   5.085  19.399  0.00  0.00    +0.000 OA
ATOM     23  H   UNL     1       8.795   4.886  19.642  0.00  0.00    +0.000 HD
ENDBRANCH  21  22
ENDBRANCH   1  16
BRANCH   1  24
ATOM     24  N   UNL     1       5.649   5.568  15.789  0.00  0.00    +0.000 NA
ATOM     25  H   UNL     1       6.421   6.072  15.343  0.00  0.00    +0.000 HD
BRANCH  24  26
ATOM     26  C   UNL     1       5.387   4.337  15.051  0.00  0.00    +0.000 C 
BRANCH  26  27
ATOM     27  C   UNL     1       6.180   4.288  13.787  0.00  0.00    +0.000 A 
ATOM     28  C   UNL     1       6.126   3.514  12.645  0.00  0.00    +0.000 A 
ATOM     29  C   UNL     1       7.171   3.964  11.802  0.00  0.00    +0.000 A 
ATOM     30  C   UNL     1       7.792   4.987  12.477  0.00  0.00    +0.000 A 
ATOM     31  O   UNL     1       7.200   5.192  13.681  0.00  0.00    +0.000 OA
ENDBRANCH  26  27
ENDBRANCH  24  26
ENDBRANCH   1  24
TORSDOF 7
ENDMDL
MODEL 2
REMARK VINA RESULT:      -8.0      2.648      4.972
REMARK  Name = 
REMARK  7 active torsions:
REMARK  status: ('A' for Active; 'I' for Inactive)
REMARK    1  A    between atoms: C_3  and  O_4
REMARK    2  A    between atoms: C_5  and  C_6
REMARK    3  A    between atoms: C_6  and  N_7
REMARK    4  A    between atoms: C_6  and  C_14
REMARK    5  A    between atoms: N_7  and  C_8
REMARK    6  A    between atoms: C_8  and  C_9
REMARK    7  A    between atoms: C_19  and  O_20
REMARK                            x       y       z     vdW  Elec       q    Type
REMARK                         _______ _______ _______ _____ _____    ______ ____
ROOT
ATOM      1  C   UNL     1       4.182   5.453  18.062  0.00  0.00    +0.000 C 
ENDROOT
BRANCH   1   5
ATOM      2  O   UNL     1       1.129   6.998  21.523  0.00  0.00    +0.000 OA
ATOM      3  C   UNL     1       1.677   7.275  20.458  0.00  0.00    +0.000 C 
ATOM      4  C   UNL     1       2.625   6.299  19.855  0.00  0.00    +0.000 C 
ATOM      5  C   UNL     1       3.208   6.482  18.652  0.00  0.00    +0.000 C 
ATOM      6  C   UNL     1       2.839   7.708  17.875  0.00  0.00    +0.000 C 
ATOM      7  O   UNL     1       3.146   7.893  16.702  0.00  0.00    +0.000 OA
ATOM      8  C   UNL     1       2.055   8.767  18.538  0.00  0.00    +0.000 A 
ATOM      9  C   UNL     1       1.891  10.007  17.898  0.00  0.00    +0.000 A 
ATOM     10  C   UNL     1       1.132  11.015  18.498  0.00  0.00    +0.000 A 
ATOM     11  C   UNL     1       0.527  10.787  19.732  0.00  0.00    +0.000 A 
ATOM     12  C   UNL     1       0.688   9.556  20.369  0.00  0.00    +0.000 A 
ATOM     13  C   UNL     1       1.463   8.552  19.772  0.00  0.00    +0.000 A 
BRANCH   4  14
ATOM     14  O   UNL     1       2.882   5.179  20.631  0.00  0.00    +0.000 OA
ATOM     15  H   UNL     1       3.328   4.544  20.025  0.00  0.00    +0.000 HD
ENDBRANCH   4  14
ENDBRANCH   1   5
BRANCH   1  16
ATOM     16  C   UNL     1       5.653   5.878  18.180  0.00  0.00    +0.000 A 
ATOM     17  C   UNL     1       6.143   6.879  17.315  0.00  0.00    +0.000 A 
ATOM     18  C   UNL     1       7.419   7.417  17.486  0.00  0.00    +0.000 A 
ATOM     19  C   UNL     1       8.232   6.960  18.519  0.00  0.00    +0.000 A 
ATOM     20  C   UNL     1       7.778   5.948  19.366  0.00  0.00    +0.000 A 
ATOM     21  C   UNL     1       6.500   5.410  19.192  0.00  0.00    +0.000 A 
BRANCH  21  22
ATOM     22  O   UNL     1       6.048   4.442  20.043  0.00  0.00    +0.000 OA
ATOM     23  H   UNL     1       6.652   3.683  19.998  0.00  0.00    +0.000 HD
ENDBRANCH  21  22
ENDBRANCH   1  16
BRANCH   1  24
ATOM     24  N   UNL     1       3.862   5.009  16.695  0.00  0.00    +0.000 NA
ATOM     25  H   UNL     1       4.618   5.332  16.085  0.00  0.00    +0.000 HD
BRANCH  24  26
ATOM     26  C   UNL     1       3.682   3.571  16.519  0.00  0.00    +0.000 C 
BRANCH  26  27
ATOM     27  C   UNL     1       2.830   2.998  17.603  0.00  0.00    +0.000 A 
ATOM     28  C   UNL     1       3.057   2.121  18.644  0.00  0.00    +0.000 A 
ATOM     29  C   UNL     1       1.825   1.974  19.326  0.00  0.00    +0.000 A 
ATOM     30  C   UNL     1       0.925   2.775  18.664  0.00  0.00    +0.000 A 
ATOM     31  O   UNL     1       1.524   3.400  17.618  0.00  0.00    +0.000 OA
ENDBRANCH  26  27
ENDBRANCH  24  26
ENDBRANCH   1  24
TORSDOF 7
ENDMDL
MODEL 3
REMARK VINA RESULT:      -8.0      2.785      5.309
REMARK  Name = 
REMARK  7 active torsions:
REMARK  status: ('A' for Active; 'I' for Inactive)
REMARK    1  A    between atoms: C_3  and  O_4
REMARK    2  A    between atoms: C_5  and  C_6
REMARK    3  A    between atoms: C_6  and  N_7
REMARK    4  A    between atoms: C_6  and  C_14
REMARK    5  A    between atoms: N_7  and  C_8
REMARK    6  A    between atoms: C_8  and  C_9
REMARK    7  A    between atoms: C_19  and  O_20
REMARK                            x       y       z     vdW  Elec       q    Type
REMARK                         _______ _______ _______ _____ _____    ______ ____
ROOT
ATOM      1  C   UNL     1       3.934   5.512  18.256  0.00  0.00    +0.000 C 
ENDROOT
BRANCH   1   5
ATOM      2  O   UNL     1       0.906   7.247  21.649  0.00  0.00    +0.000 OA
ATOM      3  C   UNL     1       1.471   7.478  20.583  0.00  0.00    +0.000 C 
ATOM      4  C   UNL     1       2.391   6.456  20.014  0.00  0.00    +0.000 C 
ATOM      5  C   UNL     1       2.989   6.588  18.811  0.00  0.00    +0.000 C 
ATOM      6  C   UNL     1       2.668   7.805  17.999  0.00  0.00    +0.000 C 
ATOM      7  O   UNL     1       2.991   7.949  16.825  0.00  0.00    +0.000 OA
ATOM      8  C   UNL     1       1.915   8.906  18.628  0.00  0.00    +0.000 A 
ATOM      9  C   UNL     1       1.797  10.133  17.955  0.00  0.00    +0.000 A 
ATOM     10  C   UNL     1       1.067  11.181  18.522  0.00  0.00    +0.000 A 
ATOM     11  C   UNL     1       0.445  11.006  19.755  0.00  0.00    +0.000 A 
ATOM     12  C   UNL     1       0.559   9.787  20.426  0.00  0.00    +0.000 A 
ATOM     13  C   UNL     1       1.306   8.743  19.862  0.00  0.00    +0.000 A 
BRANCH   4  14
ATOM     14  O   UNL     1       2.604   5.348  20.820  0.00  0.00    +0.000 OA
ATOM     15  H   UNL     1       1.728   4.907  20.888  0.00  0.00    +0.000 HD
ENDBRANCH   4  14
ENDBRANCH   1   5
BRANCH   1  16
ATOM     16  C   UNL     1       5.417   5.899  18.360  0.00  0.00    +0.000 A 
ATOM     17  C   UNL     1       6.150   5.483  19.492  0.00  0.00    +0.000 A 
ATOM     18  C   UNL     1       7.532   5.664  19.561  0.00  0.00    +0.000 A 
ATOM     19  C   UNL     1       8.205   6.270  18.505  0.00  0.00    +0.000 A 
ATOM     20  C   UNL     1       7.494   6.717  17.390  0.00  0.00    +0.000 A 
ATOM     21  C   UNL     1       6.109   6.535  17.324  0.00  0.00    +0.000 A 
BRANCH  21  22
ATOM     22  O   UNL     1       5.422   6.946  16.217  0.00  0.00    +0.000 OA
ATOM     23  H   UNL     1       5.008   7.803  16.410  0.00  0.00    +0.000 HD
ENDBRANCH  21  22
ENDBRANCH   1  16
BRANCH   1  24
ATOM     24  N   UNL     1       3.600   5.031  16.906  0.00  0.00    +0.000 NA
ATOM     25  H   UNL     1       4.334   5.363  16.274  0.00  0.00    +0.000 HD
BRANCH  24  26
ATOM     26  C   UNL     1       3.459   3.586  16.762  0.00  0.00    +0.000 C 
BRANCH  26  27
ATOM     27  C   UNL     1       2.634   3.012  17.866  0.00  0.00    +0.000 A 
ATOM     28  C   UNL     1       2.911   2.228  18.968  0.00  0.00    +0.000 A 
ATOM     29  C   UNL     1       1.680   2.018  19.634  0.00  0.00    +0.000 A 
ATOM     30  C   UNL     1       0.730   2.693  18.904  0.00  0.00    +0.000 A 
ATOM     31  O   UNL     1       1.298   3.298  17.830  0.00  0.00    +0.000 OA
ENDBRANCH  26  27
ENDBRANCH  24  26
ENDBRANCH   1  24
TORSDOF 7
ENDMDL
MODEL 4
REMARK VINA RESULT:      -7.9      2.656      5.470
REMARK  Name = 
REMARK  7 active torsions:
REMARK  status: ('A' for Active; 'I' for Inactive)
REMARK    1  A    between atoms: C_3  and  O_4
REMARK    2  A    between atoms: C_5  and  C_6
REMARK    3  A    between atoms: C_6  and  N_7
REMARK    4  A    between atoms: C_6  and  C_14
REMARK    5  A    between atoms: N_7  and  C_8
REMARK    6  A    between atoms: C_8  and  C_9
REMARK    7  A    between atoms: C_19  and  O_20
REMARK                            x       y       z     vdW  Elec       q    Type
REMARK                         _______ _______ _______ _____ _____    ______ ____
ROOT
ATOM      1  C   UNL     1       3.437   5.324  18.492  0.00  0.00    +0.000 C 
ENDROOT
BRANCH   1   5
ATOM      2  O   UNL     1       2.196   9.889  17.344  0.00  0.00    +0.000 OA
ATOM      3  C   UNL     1       2.096   8.991  18.177  0.00  0.00    +0.000 C 
ATOM      4  C   UNL     1       2.745   7.678  17.911  0.00  0.00    +0.000 C 
ATOM      5  C   UNL     1       2.757   6.665  18.802  0.00  0.00    +0.000 C 
ATOM      6  C   UNL     1       2.122   6.901  20.138  0.00  0.00    +0.000 C 
ATOM      7  O   UNL     1       2.233   6.139  21.093  0.00  0.00    +0.000 OA
ATOM      8  C   UNL     1       1.315   8.119  20.342  0.00  0.00    +0.000 A 
ATOM      9  C   UNL     1       0.541   8.246  21.507  0.00  0.00    +0.000 A 
ATOM     10  C   UNL     1      -0.212   9.402  21.731  0.00  0.00    +0.000 A 
ATOM     11  C   UNL     1      -0.186  10.438  20.801  0.00  0.00    +0.000 A 
ATOM     12  C   UNL     1       0.583  10.315  19.643  0.00  0.00    +0.000 A 
ATOM     13  C   UNL     1       1.325   9.147  19.413  0.00  0.00    +0.000 A 
BRANCH   4  14
ATOM     14  O   UNL     1       3.336   7.561  16.662  0.00  0.00    +0.000 OA
ATOM     15  H   UNL     1       3.704   6.650  16.637  0.00  0.00    +0.000 HD
ENDBRANCH   4  14
ENDBRANCH   1   5
BRANCH   1  16
ATOM     16  C   UNL     1       4.955   5.448  18.298  0.00  0.00    +0.000 A 
ATOM     17  C   UNL     1       5.780   5.545  19.438  0.00  0.00    +0.000 A 
ATOM     18  C   UNL     1       7.170   5.494  19.327  0.00  0.00    +0.000 A 
ATOM     19  C   UNL     1       7.761   5.354  18.076  0.00  0.00    +0.000 A 
ATOM     20  C   UNL     1       6.963   5.287  16.932  0.00  0.00    +0.000 A 
ATOM     21  C   UNL     1       5.571   5.339  17.046  0.00  0.00    +0.000 A 
BRANCH  21  22
ATOM     22  O   UNL     1       4.794   5.243  15.927  0.00  0.00    +0.000 OA
ATOM     23  H   UNL     1       4.470   4.331  15.852  0.00  0.00    +0.000 HD
ENDBRANCH  21  22
ENDBRANCH   1  16
BRANCH   1  24
ATOM     24  N   UNL     1       2.819   4.554  17.400  0.00  0.00    +0.000 NA
ATOM     25  H   UNL     1       3.461   4.585  16.604  0.00  0.00    +0.000 HD
BRANCH  24  26
ATOM     26  C   UNL     1       2.496   3.164  17.705  0.00  0.00    +0.000 C 
BRANCH  26  27
ATOM     27  C   UNL     1       2.124   3.000  19.141  0.00  0.00    +0.000 A 
ATOM     28  C   UNL     1       0.945   3.115  19.850  0.00  0.00    +0.000 A 
ATOM     29  C   UNL     1       1.257   2.834  21.202  0.00  0.00    +0.000 A 
ATOM     30  C   UNL     1       2.603   2.558  21.234  0.00  0.00    +0.000 A 
ATOM     31  O   UNL     1       3.139   2.657  19.990  0.00  0.00    +0.000 OA
ENDBRANCH  26  27
ENDBRANCH  24  26
ENDBRANCH   1  24
TORSDOF 7
ENDMDL
MODEL 5
REMARK VINA RESULT:      -7.8      2.583      4.987
REMARK  Name = 
REMARK  7 active torsions:
REMARK  status: ('A' for Active; 'I' for Inactive)
REMARK    1  A    between atoms: C_3  and  O_4
REMARK    2  A    between atoms: C_5  and  C_6
REMARK    3  A    between atoms: C_6  and  N_7
REMARK    4  A    between atoms: C_6  and  C_14
REMARK    5  A    between atoms: N_7  and  C_8
REMARK    6  A    between atoms: C_8  and  C_9
REMARK    7  A    between atoms: C_19  and  O_20
REMARK                            x       y       z     vdW  Elec       q    Type
REMARK                         _______ _______ _______ _____ _____    ______ ____
ROOT
ATOM      1  C   UNL     1       3.730   5.603  18.298  0.00  0.00    +0.000 C 
ENDROOT
BRANCH   1   5
ATOM      2  O   UNL     1       1.941  10.055  17.476  0.00  0.00    +0.000 OA
ATOM      3  C   UNL     1       1.971   9.102  18.252  0.00  0.00    +0.000 C 
ATOM      4  C   UNL     1       2.756   7.893  17.886  0.00  0.00    +0.000 C 
ATOM      5  C   UNL     1       2.912   6.835  18.711  0.00  0.00    +0.000 C 
ATOM      6  C   UNL     1       2.298   6.914  20.074  0.00  0.00    +0.000 C 
ATOM      7  O   UNL     1       2.526   6.114  20.975  0.00  0.00    +0.000 OA
ATOM      8  C   UNL     1       1.364   8.016  20.376  0.00  0.00    +0.000 A 
ATOM      9  C   UNL     1       0.618   7.981  21.565  0.00  0.00    +0.000 A 
ATOM     10  C   UNL     1      -0.254   9.027  21.881  0.00  0.00    +0.000 A 
ATOM     11  C   UNL     1      -0.376  10.113  21.019  0.00  0.00    +0.000 A 
ATOM     12  C   UNL     1       0.365  10.151  19.837  0.00  0.00    +0.000 A 
ATOM     13  C   UNL     1       1.227   9.093  19.515  0.00  0.00    +0.000 A 
BRANCH   4  14
ATOM     14  O   UNL     1       3.316   7.921  16.618  0.00  0.00    +0.000 OA
ATOM     15  H   UNL     1       2.796   7.271  16.094  0.00  0.00    +0.000 HD
ENDBRANCH   4  14
ENDBRANCH   1   5
BRANCH   1  16
ATOM     16  C   UNL     1       3.007   4.278  18.577  0.00  0.00    +0.000 A 
ATOM     17  C   UNL     1       1.612   4.209  18.376  0.00  0.00    +0.000 A 
ATOM     18  C   UNL     1       0.933   2.992  18.456  0.00  0.00    +0.000 A 
ATOM     19  C   UNL     1       1.632   1.825  18.745  0.00  0.00    +0.000 A 
ATOM     20  C   UNL     1       3.007   1.876  18.979  0.00  0.00    +0.000 A 
ATOM     21  C   UNL     1       3.686   3.096  18.899  0.00  0.00    +0.000 A 
BRANCH  21  22
ATOM     22  O   UNL     1       5.036   3.137  19.098  0.00  0.00    +0.000 OA
ATOM     23  H   UNL     1       5.421   2.301  18.789  0.00  0.00    +0.000 HD
ENDBRANCH  21  22
ENDBRANCH   1  16
BRANCH   1  24
ATOM     24  N   UNL     1       5.111   5.577  18.808  0.00  0.00    +0.000 NA
ATOM     25  H   UNL     1       5.314   4.613  19.088  0.00  0.00    +0.000 HD
BRANCH  24  26
ATOM     26  C   UNL     1       6.140   6.037  17.881  0.00  0.00    +0.000 C 
BRANCH  26  27
ATOM     27  C   UNL     1       6.011   5.364  16.555  0.00  0.00    +0.000 A 
ATOM     28  C   UNL     1       5.622   5.780  15.298  0.00  0.00    +0.000 A 
ATOM     29  C   UNL     1       5.712   4.649  14.452  0.00  0.00    +0.000 A 
ATOM     30  C   UNL     1       6.156   3.615  15.242  0.00  0.00    +0.000 A 
ATOM     31  O   UNL     1       6.340   4.037  16.519  0.00  0.00    +0.000 OA
ENDBRANCH  26  27
ENDBRANCH  24  26
ENDBRANCH   1  24
TORSDOF 7
ENDMDL
MODEL 6
REMARK VINA RESULT:      -7.8      2.894      5.730
REMARK  Name = 
REMARK  7 active torsions:
REMARK  status: ('A' for Active; 'I' for Inactive)
REMARK    1  A    between atoms: C_3  and  O_4
REMARK    2  A    between atoms: C_5  and  C_6
REMARK    3  A    between atoms: C_6  and  N_7
REMARK    4  A    between atoms: C_6  and  C_14
REMARK    5  A    between atoms: N_7  and  C_8
REMARK    6  A    between atoms: C_8  and  C_9
REMARK    7  A    between atoms: C_19  and  O_20
REMARK                            x       y       z     vdW  Elec       q    Type
REMARK                         _______ _______ _______ _____ _____    ______ ____
ROOT
ATOM      1  C   UNL     1       3.340   5.623  18.588  0.00  0.00    +0.000 C 
ENDROOT
BRANCH   1   5
ATOM      2  O   UNL     1       0.869   8.128  21.951  0.00  0.00    +0.000 OA
ATOM      3  C   UNL     1       1.372   8.161  20.830  0.00  0.00    +0.000 C 
ATOM      4  C   UNL     1       2.092   6.961  20.323  0.00  0.00    +0.000 C 
ATOM      5  C   UNL     1       2.603   6.878  19.076  0.00  0.00    +0.000 C 
ATOM      6  C   UNL     1       2.388   8.037  18.153  0.00  0.00    +0.000 C 
ATOM      7  O   UNL     1       2.631   8.010  16.952  0.00  0.00    +0.000 OA
ATOM      8  C   UNL     1       1.848   9.297  18.700  0.00  0.00    +0.000 A 
ATOM      9  C   UNL     1       1.848  10.451  17.900  0.00  0.00    +0.000 A 
ATOM     10  C   UNL     1       1.319  11.648  18.389  0.00  0.00    +0.000 A 
ATOM     11  C   UNL     1       0.781  11.696  19.673  0.00  0.00    +0.000 A 
ATOM     12  C   UNL     1       0.780  10.550  20.470  0.00  0.00    +0.000 A 
ATOM     13  C   UNL     1       1.325   9.354  19.981  0.00  0.00    +0.000 A 
BRANCH   4  14
ATOM     14  O   UNL     1       2.214   5.923  21.235  0.00  0.00    +0.000 OA
ATOM     15  H   UNL     1       1.465   5.318  21.036  0.00  0.00    +0.000 HD
ENDBRANCH   4  14
ENDBRANCH   1   5
BRANCH   1  16
ATOM     16  C   UNL     1       4.836   5.862  18.334  0.00  0.00    +0.000 A 
ATOM     17  C   UNL     1       5.217   6.816  17.367  0.00  0.00    +0.000 A 
ATOM     18  C   UNL     1       6.552   7.191  17.212  0.00  0.00    +0.000 A 
ATOM     19  C   UNL     1       7.532   6.614  18.015  0.00  0.00    +0.000 A 
ATOM     20  C   UNL     1       7.179   5.645  18.956  0.00  0.00    +0.000 A 
ATOM     21  C   UNL     1       5.841   5.271  19.108  0.00  0.00    +0.000 A 
BRANCH  21  22
ATOM     22  O   UNL     1       5.497   4.346  20.052  0.00  0.00    +0.000 OA
ATOM     23  H   UNL     1       5.800   4.660  20.919  0.00  0.00    +0.000 HD
ENDBRANCH  21  22
ENDBRANCH   1  16
BRANCH   1  24
ATOM     24  N   UNL     1       2.708   4.936  17.450  0.00  0.00    +0.000 NA
ATOM     25  H   UNL     1       3.292   5.109  16.627  0.00  0.00    +0.000 HD
BRANCH  24  26
ATOM     26  C   UNL     1       2.508   3.499  17.605  0.00  0.00    +0.000 C 
BRANCH  26  27
ATOM     27  C   UNL     1       2.123   3.157  19.006  0.00  0.00    +0.000 A 
ATOM     28  C   UNL     1       0.931   3.149  19.702  0.00  0.00    +0.000 A 
ATOM     29  C   UNL     1       1.234   2.724  21.018  0.00  0.00    +0.000 A 
ATOM     30  C   UNL     1       2.589   2.492  21.042  0.00  0.00    +0.000 A 
ATOM     31  O   UNL     1       3.138   2.752  19.828  0.00  0.00    +0.000 OA
ENDBRANCH  26  27
ENDBRANCH  24  26
ENDBRANCH   1  24
TORSDOF 7
ENDMDL
MODEL 7
REMARK VINA RESULT:      -7.8      2.707      5.738
REMARK  Name = 
REMARK  7 active torsions:
REMARK  status: ('A' for Active; 'I' for Inactive)
REMARK    1  A    between atoms: C_3  and  O_4
REMARK    2  A    between atoms: C_5  and  C_6
REMARK    3  A    between atoms: C_6  and  N_7
REMARK    4  A    between atoms: C_6  and  C_14
REMARK    5  A    between atoms: N_7  and  C_8
REMARK    6  A    between atoms: C_8  and  C_9
REMARK    7  A    between atoms: C_19  and  O_20
REMARK                            x       y       z     vdW  Elec       q    Type
REMARK                         _______ _______ _______ _____ _____    ______ ____
ROOT
ATOM      1  C   UNL     1       3.498   5.548  18.514  0.00  0.00    +0.000 C 
ENDROOT
BRANCH   1   5
ATOM      2  O   UNL     1       0.908   7.912  21.890  0.00  0.00    +0.000 OA
ATOM      3  C   UNL     1       1.425   7.982  20.777  0.00  0.00    +0.000 C 
ATOM      4  C   UNL     1       2.187   6.814  20.257  0.00  0.00    +0.000 C 
ATOM      5  C   UNL     1       2.718   6.771  19.017  0.00  0.00    +0.000 C 
ATOM      6  C   UNL     1       2.484   7.943  18.114  0.00  0.00    +0.000 C 
ATOM      7  O   UNL     1       2.744   7.947  16.916  0.00  0.00    +0.000 OA
ATOM      8  C   UNL     1       1.900   9.175  18.678  0.00  0.00    +0.000 A 
ATOM      9  C   UNL     1       1.878  10.345  17.902  0.00  0.00    +0.000 A 
ATOM     10  C   UNL     1       1.308  11.516  18.407  0.00  0.00    +0.000 A 
ATOM     11  C   UNL     1       0.751  11.522  19.683  0.00  0.00    +0.000 A 
ATOM     12  C   UNL     1       0.771  10.360  20.457  0.00  0.00    +0.000 A 
ATOM     13  C   UNL     1       1.357   9.191  19.952  0.00  0.00    +0.000 A 
BRANCH   4  14
ATOM     14  O   UNL     1       2.326   5.762  21.150  0.00  0.00    +0.000 OA
ATOM     15  H   UNL     1       2.942   6.092  21.841  0.00  0.00    +0.000 HD
ENDBRANCH   4  14
ENDBRANCH   1   5
BRANCH   1  16
ATOM     16  C   UNL     1       5.003   5.812  18.363  0.00  0.00    +0.000 A 
ATOM     17  C   UNL     1       5.851   5.562  19.463  0.00  0.00    +0.000 A 
ATOM     18  C   UNL     1       7.239   5.628  19.332  0.00  0.00    +0.000 A 
ATOM     19  C   UNL     1       7.804   5.953  18.103  0.00  0.00    +0.000 A 
ATOM     20  C   UNL     1       6.982   6.235  17.010  0.00  0.00    +0.000 A 
ATOM     21  C   UNL     1       5.593   6.169  17.145  0.00  0.00    +0.000 A 
BRANCH  21  22
ATOM     22  O   UNL     1       4.793   6.416  16.065  0.00  0.00    +0.000 OA
ATOM     23  H   UNL     1       5.103   5.877  15.320  0.00  0.00    +0.000 HD
ENDBRANCH  21  22
ENDBRANCH   1  16
BRANCH   1  24
ATOM     24  N   UNL     1       2.943   4.912  17.309  0.00  0.00    +0.000 NA
ATOM     25  H   UNL     1       3.612   5.064  16.548  0.00  0.00    +0.000 HD
BRANCH  24  26
ATOM     26  C   UNL     1       2.654   3.485  17.417  0.00  0.00    +0.000 C 
BRANCH  26  27
ATOM     27  C   UNL     1       2.183   3.134  18.789  0.00  0.00    +0.000 A 
ATOM     28  C   UNL     1       0.942   3.028  19.384  0.00  0.00    +0.000 A 
ATOM     29  C   UNL     1       1.170   2.657  20.731  0.00  0.00    +0.000 A 
ATOM     30  C   UNL     1       2.533   2.552  20.873  0.00  0.00    +0.000 A 
ATOM     31  O   UNL     1       3.157   2.840  19.703  0.00  0.00    +0.000 OA
ENDBRANCH  26  27
ENDBRANCH  24  26
ENDBRANCH   1  24
TORSDOF 7
ENDMDL
MODEL 8
REMARK VINA RESULT:      -7.8      3.070      5.785
REMARK  Name = 
REMARK  7 active torsions:
REMARK  status: ('A' for Active; 'I' for Inactive)
REMARK    1  A    between atoms: C_3  and  O_4
REMARK    2  A    between atoms: C_5  and  C_6
REMARK    3  A    between atoms: C_6  and  N_7
REMARK    4  A    between atoms: C_6  and  C_14
REMARK    5  A    between atoms: N_7  and  C_8
REMARK    6  A    between atoms: C_8  and  C_9
REMARK    7  A    between atoms: C_19  and  O_20
REMARK                            x       y       z     vdW  Elec       q    Type
REMARK                         _______ _______ _______ _____ _____    ______ ____
ROOT
ATOM      1  C   UNL     1       3.162   5.906  19.042  0.00  0.00    +0.000 C 
ENDROOT
BRANCH   1   5
ATOM      2  O   UNL     1       2.022  10.288  17.255  0.00  0.00    +0.000 OA
ATOM      3  C   UNL     1       1.871   9.505  18.190  0.00  0.00    +0.000 C 
ATOM      4  C   UNL     1       2.522   8.168  18.128  0.00  0.00    +0.000 C 
ATOM      5  C   UNL     1       2.478   7.278  19.142  0.00  0.00    +0.000 C 
ATOM      6  C   UNL     1       1.778   7.685  20.402  0.00  0.00    +0.000 C 
ATOM      7  O   UNL     1       1.833   7.052  21.450  0.00  0.00    +0.000 OA
ATOM      8  C   UNL     1       0.972   8.921  20.405  0.00  0.00    +0.000 A 
ATOM      9  C   UNL     1       0.140   9.198  21.502  0.00  0.00    +0.000 A 
ATOM     10  C   UNL     1      -0.613  10.374  21.536  0.00  0.00    +0.000 A 
ATOM     11  C   UNL     1      -0.530  11.282  20.484  0.00  0.00    +0.000 A 
ATOM     12  C   UNL     1       0.296  11.009  19.393  0.00  0.00    +0.000 A 
ATOM     13  C   UNL     1       1.039   9.820  19.354  0.00  0.00    +0.000 A 
BRANCH   4  14
ATOM     14  O   UNL     1       3.175   7.890  16.937  0.00  0.00    +0.000 OA
ATOM     15  H   UNL     1       3.232   6.909  16.899  0.00  0.00    +0.000 HD
ENDBRANCH   4  14
ENDBRANCH   1   5
BRANCH   1  16
ATOM     16  C   UNL     1       2.182   4.732  19.180  0.00  0.00    +0.000 A 
ATOM     17  C   UNL     1       1.538   4.244  18.023  0.00  0.00    +0.000 A 
ATOM     18  C   UNL     1       0.768   3.081  18.063  0.00  0.00    +0.000 A 
ATOM     19  C   UNL     1       0.620   2.389  19.261  0.00  0.00    +0.000 A 
ATOM     20  C   UNL     1       1.222   2.873  20.424  0.00  0.00    +0.000 A 
ATOM     21  C   UNL     1       1.992   4.039  20.381  0.00  0.00    +0.000 A 
BRANCH  21  22
ATOM     22  O   UNL     1       2.605   4.491  21.515  0.00  0.00    +0.000 OA
ATOM     23  H   UNL     1       2.926   5.393  21.355  0.00  0.00    +0.000 HD
ENDBRANCH  21  22
ENDBRANCH   1  16
BRANCH   1  24
ATOM     24  N   UNL     1       4.332   5.732  19.918  0.00  0.00    +0.000 NA
ATOM     25  H   UNL     1       4.174   4.885  20.472  0.00  0.00    +0.000 HD
BRANCH  24  26
ATOM     26  C   UNL     1       5.622   5.633  19.243  0.00  0.00    +0.000 C 
BRANCH  26  27
ATOM     27  C   UNL     1       5.454   5.234  17.815  0.00  0.00    +0.000 A 
ATOM     28  C   UNL     1       5.151   4.050  17.175  0.00  0.00    +0.000 A 
ATOM     29  C   UNL     1       5.143   4.330  15.787  0.00  0.00    +0.000 A 
ATOM     30  C   UNL     1       5.436   5.667  15.666  0.00  0.00    +0.000 A 
ATOM     31  O   UNL     1       5.627   6.225  16.889  0.00  0.00    +0.000 OA
ENDBRANCH  26  27
ENDBRANCH  24  26
ENDBRANCH   1  24
TORSDOF 7
ENDMDL
MODEL 9
REMARK VINA RESULT:      -7.7      1.670      2.913
REMARK  Name = 
REMARK  7 active torsions:
REMARK  status: ('A' for Active; 'I' for Inactive)
REMARK    1  A    between atoms: C_3  and  O_4
REMARK    2  A    between atoms: C_5  and  C_6
REMARK    3  A    between atoms: C_6  and  N_7
REMARK    4  A    between atoms: C_6  and  C_14
REMARK    5  A    between atoms: N_7  and  C_8
REMARK    6  A    between atoms: C_8  and  C_9
REMARK    7  A    between atoms: C_19  and  O_20
REMARK                            x       y       z     vdW  Elec       q    Type
REMARK                         _______ _______ _______ _____ _____    ______ ____
ROOT
ATOM      1  C   UNL     1       5.090   5.430  17.640  0.00  0.00    +0.000 C 
ENDROOT
BRANCH   1   5
ATOM      2  O   UNL     1       1.968   4.756  21.313  0.00  0.00    +0.000 OA
ATOM      3  C   UNL     1       2.355   5.532  20.441  0.00  0.00    +0.000 C 
ATOM      4  C   UNL     1       3.484   5.128  19.561  0.00  0.00    +0.000 C 
ATOM      5  C   UNL     1       3.921   5.879  18.527  0.00  0.00    +0.000 C 
ATOM      6  C   UNL     1       3.196   7.156  18.235  0.00  0.00    +0.000 C 
ATOM      7  O   UNL     1       3.368   7.825  17.222  0.00  0.00    +0.000 OA
ATOM      8  C   UNL     1       2.207   7.657  19.209  0.00  0.00    +0.000 A 
ATOM      9  C   UNL     1       1.684   8.951  19.057  0.00  0.00    +0.000 A 
ATOM     10  C   UNL     1       0.728   9.436  19.953  0.00  0.00    +0.000 A 
ATOM     11  C   UNL     1       0.284   8.628  20.997  0.00  0.00    +0.000 A 
ATOM     12  C   UNL     1       0.801   7.341  21.150  0.00  0.00    +0.000 A 
ATOM     13  C   UNL     1       1.772   6.864  20.258  0.00  0.00    +0.000 A 
BRANCH   4  14
ATOM     14  O   UNL     1       4.074   3.916  19.885  0.00  0.00    +0.000 OA
ATOM     15  H   UNL     1       3.517   3.544  20.605  0.00  0.00    +0.000 HD
ENDBRANCH   4  14
ENDBRANCH   1   5
BRANCH   1  16
ATOM     16  C   UNL     1       6.381   6.222  17.895  0.00  0.00    +0.000 A 
ATOM     17  C   UNL     1       6.657   7.349  17.093  0.00  0.00    +0.000 A 
ATOM     18  C   UNL     1       7.726   8.197  17.386  0.00  0.00    +0.000 A 
ATOM     19  C   UNL     1       8.543   7.930  18.480  0.00  0.00    +0.000 A 
ATOM     20  C   UNL     1       8.306   6.802  19.268  0.00  0.00    +0.000 A 
ATOM     21  C   UNL     1       7.235   5.954  18.972  0.00  0.00    +0.000 A 
BRANCH  21  22
ATOM     22  O   UNL     1       6.989   4.869  19.764  0.00  0.00    +0.000 OA
ATOM     23  H   UNL     1       6.110   4.518  19.545  0.00  0.00    +0.000 HD
ENDBRANCH  21  22
ENDBRANCH   1  16
BRANCH   1  24
ATOM     24  N   UNL     1       4.784   5.355  16.202  0.00  0.00    +0.000 NA
ATOM     25  H   UNL     1       5.332   6.084  15.736  0.00  0.00    +0.000 HD
BRANCH  24  26
ATOM     26  C   UNL     1       5.047   4.071  15.561  0.00  0.00    +0.000 C 
BRANCH  26  27
ATOM     27  C   UNL     1       5.917   4.237  14.359  0.00  0.00    +0.000 A 
ATOM     28  C   UNL     1       5.938   3.672  13.100  0.00  0.00    +0.000 A 
ATOM     29  C   UNL     1       7.030   4.255  12.413  0.00  0.00    +0.000 A 
ATOM     30  C   UNL     1       7.603   5.144  13.291  0.00  0.00    +0.000 A 
ATOM     31  O   UNL     1       6.936   5.141  14.474  0.00  0.00    +0.000 OA
ENDBRANCH  26  27
ENDBRANCH  24  26
ENDBRANCH   1  24
TORSDOF 7
ENDMDL
