MODEL 1
REMARK VINA RESULT:      -7.9      0.000      0.000
REMARK  Name = 
REMARK  3 active torsions:
REMARK  status: ('A' for Active; 'I' for Inactive)
REMARK    1  A    between atoms: C_1  and  C_2
REMARK    2  A    between atoms: N_4  and  C_5
REMARK    3  A    between atoms: C_16  and  C_18
REMARK                            x       y       z     vdW  Elec       q    Type
REMARK                         _______ _______ _______ _____ _____    ______ ____
ROOT
ATOM      1  C   UNL     1       2.666   8.365  17.713  0.00  0.00    +0.000 C 
ATOM      2  C   UNL     1       2.116   8.515  19.138  0.00  0.00    +0.000 C 
ATOM      3  C   UNL     1       0.791   9.302  18.961  0.00  0.00    +0.000 C 
ATOM      4  N   UNL     1       0.197   9.756  20.207  0.00  0.00    +0.000 N 
ATOM      5  C   UNL     1       0.109   8.826  21.250  0.00  0.00    +0.000 C 
ATOM      6  O   UNL     1      -0.688   8.902  22.185  0.00  0.00    +0.000 OA
ATOM      7  C   UNL     1       1.218   7.760  21.290  0.00  0.00    +0.000 C 
ATOM      8  N   UNL     1       1.870   7.361  20.039  0.00  0.00    +0.000 N 
ATOM      9  C   UNL     1       2.322   6.024  20.058  0.00  0.00    +0.000 C 
ATOM     10  O   UNL     1       2.086   5.276  21.010  0.00  0.00    +0.000 OA
ENDROOT
BRANCH   9  11
ATOM     11  C   UNL     1       3.028   5.374  18.939  0.00  0.00    +0.000 A 
ATOM     12  C   UNL     1       2.354   4.592  18.005  0.00  0.00    +0.000 A 
ATOM     13  C   UNL     1       3.044   3.816  17.066  0.00  0.00    +0.000 A 
ATOM     14  C   UNL     1       4.415   4.041  16.976  0.00  0.00    +0.000 A 
ATOM     15  N   UNL     1       5.401   3.519  16.189  0.00  0.00    +0.000 N 
ATOM     16  N   UNL     1       6.577   4.135  16.388  0.00  0.00    +0.000 NA
ATOM     17  N   UNL     1       6.400   5.026  17.357  0.00  0.00    +0.000 NA
ATOM     18  C   UNL     1       5.091   4.968  17.756  0.00  0.00    +0.000 A 
ATOM     19  C   UNL     1       4.402   5.642  18.771  0.00  0.00    +0.000 A 
ATOM     20  H   UNL     1       5.348   2.774  15.504  0.00  0.00    +0.000 HD
ENDBRANCH   9  11
BRANCH   4  21
ATOM     21  C   UNL     1      -0.387  11.062  20.285  0.00  0.00    +0.000 A 
ATOM     22  C   UNL     1      -1.573  11.354  19.593  0.00  0.00    +0.000 A 
ATOM     23  C   UNL     1      -2.213  12.590  19.730  0.00  0.00    +0.000 A 
ATOM     24  C   UNL     1      -1.685  13.555  20.581  0.00  0.00    +0.000 A 
ATOM     25  C   UNL     1      -0.504  13.292  21.261  0.00  0.00    +0.000 A 
ATOM     26 CL   UNL     1       0.148  14.477  22.322  0.00  0.00    +0.000 Cl
ATOM     27  C   UNL     1       0.146  12.064  21.110  0.00  0.00    +0.000 A 
ENDBRANCH   4  21
TORSDOF 2
ENDMDL
MODEL 2
REMARK VINA RESULT:      -7.6      1.058      1.367
REMARK  Name = 
REMARK  3 active torsions:
REMARK  status: ('A' for Active; 'I' for Inactive)
REMARK    1  A    between atoms: C_1  and  C_2
REMARK    2  A    between atoms: N_4  and  C_5
REMARK    3  A    between atoms: C_16  and  C_18
REMARK                            x       y       z     vdW  Elec       q    Type
REMARK                         _______ _______ _______ _____ _____    ______ ____
ROOT
ATOM      1  C   UNL     1       2.789   8.340  17.598  0.00  0.00    +0.000 C 
ATOM      2  C   UNL     1       2.244   8.497  19.023  0.00  0.00    +0.000 C 
ATOM      3  C   UNL     1       0.917   9.280  18.846  0.00  0.00    +0.000 C 
ATOM      4  N   UNL     1       0.326   9.740  20.092  0.00  0.00    +0.000 N 
ATOM      5  C   UNL     1       0.243   8.815  21.140  0.00  0.00    +0.000 C 
ATOM      6  O   UNL     1      -0.551   8.895  22.078  0.00  0.00    +0.000 OA
ATOM      7  C   UNL     1       1.354   7.752  21.182  0.00  0.00    +0.000 C 
ATOM      8  N   UNL     1       2.003   7.347  19.931  0.00  0.00    +0.000 N 
ATOM      9  C   UNL     1       2.458   6.012  19.956  0.00  0.00    +0.000 C 
ATOM     10  O   UNL     1       2.226   5.268  20.913  0.00  0.00    +0.000 OA
ENDROOT
BRANCH   9  11
ATOM     11  C   UNL     1       3.161   5.357  18.838  0.00  0.00    +0.000 A 
ATOM     12  C   UNL     1       2.490   4.545  17.927  0.00  0.00    +0.000 A 
ATOM     13  C   UNL     1       3.183   3.767  16.992  0.00  0.00    +0.000 A 
ATOM     14  C   UNL     1       4.547   4.018  16.878  0.00  0.00    +0.000 A 
ATOM     15  N   UNL     1       5.533   3.503  16.086  0.00  0.00    +0.000 N 
ATOM     16  N   UNL     1       6.699   4.146  16.258  0.00  0.00    +0.000 NA
ATOM     17  N   UNL     1       6.517   5.050  17.214  0.00  0.00    +0.000 NA
ATOM     18  C   UNL     1       5.216   4.973  17.633  0.00  0.00    +0.000 A 
ATOM     19  C   UNL     1       4.527   5.649  18.647  0.00  0.00    +0.000 A 
ATOM     20  H   UNL     1       5.486   2.746  15.415  0.00  0.00    +0.000 HD
ENDBRANCH   9  11
BRANCH   4  21
ATOM     21  C   UNL     1      -0.260  11.046  20.165  0.00  0.00    +0.000 A 
ATOM     22  C   UNL     1       0.549  12.183  20.310  0.00  0.00    +0.000 A 
ATOM     23  C   UNL     1       0.008  13.472  20.287  0.00  0.00    +0.000 A 
ATOM     24  C   UNL     1      -1.358  13.649  20.099  0.00  0.00    +0.000 A 
ATOM     25  C   UNL     1      -2.178  12.536  19.970  0.00  0.00    +0.000 A 
ATOM     26 CL   UNL     1      -3.867  12.748  19.727  0.00  0.00    +0.000 Cl
ATOM     27  C   UNL     1      -1.640  11.247  20.012  0.00  0.00    +0.000 A 
ENDBRANCH   4  21
TORSDOF 2
ENDMDL
MODEL 3
REMARK VINA RESULT:      -7.6      2.445      3.838
REMARK  Name = 
REMARK  3 active torsions:
REMARK  status: ('A' for Active; 'I' for Inactive)
REMARK    1  A    between atoms: C_1  and  C_2
REMARK    2  A    between atoms: N_4  and  C_5
REMARK    3  A    between atoms: C_16  and  C_18
REMARK                            x       y       z     vdW  Elec       q    Type
REMARK                         _______ _______ _______ _____ _____    ______ ____
ROOT
ATOM      1  C   UNL     1       4.786   7.531  16.611  0.00  0.00    +0.000 C 
ATOM      2  C   UNL     1       4.263   7.009  17.955  0.00  0.00    +0.000 C 
ATOM      3  C   UNL     1       2.829   7.590  18.065  0.00  0.00    +0.000 C 
ATOM      4  N   UNL     1       2.211   7.408  19.368  0.00  0.00    +0.000 N 
ATOM      5  C   UNL     1       2.297   6.135  19.944  0.00  0.00    +0.000 C 
ATOM      6  O   UNL     1       1.526   5.707  20.803  0.00  0.00    +0.000 OA
ATOM      7  C   UNL     1       3.555   5.325  19.589  0.00  0.00    +0.000 C 
ATOM      8  N   UNL     1       4.223   5.567  18.307  0.00  0.00    +0.000 N 
ATOM      9  C   UNL     1       4.873   4.422  17.801  0.00  0.00    +0.000 C 
ATOM     10  O   UNL     1       4.782   3.326  18.363  0.00  0.00    +0.000 OA
ENDROOT
BRANCH   9  11
ATOM     11  C   UNL     1       5.635   4.392  16.540  0.00  0.00    +0.000 A 
ATOM     12  C   UNL     1       6.974   4.769  16.485  0.00  0.00    +0.000 A 
ATOM     13  C   UNL     1       7.640   4.933  15.265  0.00  0.00    +0.000 A 
ATOM     14  C   UNL     1       6.961   4.486  14.134  0.00  0.00    +0.000 A 
ATOM     15  N   UNL     1       7.276   4.448  12.806  0.00  0.00    +0.000 N 
ATOM     16  N   UNL     1       6.334   3.814  12.088  0.00  0.00    +0.000 NA
ATOM     17  N   UNL     1       5.354   3.485  12.921  0.00  0.00    +0.000 NA
ATOM     18  C   UNL     1       5.698   3.911  14.176  0.00  0.00    +0.000 A 
ATOM     19  C   UNL     1       5.004   3.873  15.391  0.00  0.00    +0.000 A 
ATOM     20  H   UNL     1       8.093   4.809  12.330  0.00  0.00    +0.000 HD
ENDBRANCH   9  11
BRANCH   4  21
ATOM     21  C   UNL     1       1.437   8.468  19.946  0.00  0.00    +0.000 A 
ATOM     22  C   UNL     1       0.855   9.450  19.130  0.00  0.00    +0.000 A 
ATOM     23  C   UNL     1       0.018  10.438  19.660  0.00  0.00    +0.000 A 
ATOM     24  C   UNL     1      -0.268  10.448  21.021  0.00  0.00    +0.000 A 
ATOM     25  C   UNL     1       0.311   9.494  21.847  0.00  0.00    +0.000 A 
ATOM     26 CL   UNL     1      -0.048   9.496  23.528  0.00  0.00    +0.000 Cl
ATOM     27  C   UNL     1       1.162   8.519  21.320  0.00  0.00    +0.000 A 
ENDBRANCH   4  21
TORSDOF 2
ENDMDL
MODEL 4
REMARK VINA RESULT:      -7.6      3.821      9.358
REMARK  Name = 
REMARK  3 active torsions:
REMARK  status: ('A' for Active; 'I' for Inactive)
REMARK    1  A    between atoms: C_1  and  C_2
REMARK    2  A    between atoms: N_4  and  C_5
REMARK    3  A    between atoms: C_16  and  C_18
REMARK                            x       y       z     vdW  Elec       q    Type
REMARK                         _______ _______ _______ _____ _____    ______ ____
ROOT
ATOM      1  C   UNL     1      -0.140   9.979  22.731  0.00  0.00    +0.000 C 
ATOM      2  C   UNL     1       0.643  10.199  21.430  0.00  0.00    +0.000 C 
ATOM      3  C   UNL     1       0.614   8.818  20.724  0.00  0.00    +0.000 C 
ATOM      4  N   UNL     1       1.486   8.724  19.564  0.00  0.00    +0.000 N 
ATOM      5  C   UNL     1       1.439   9.776  18.642  0.00  0.00    +0.000 C 
ATOM      6  O   UNL     1       1.781   9.683  17.463  0.00  0.00    +0.000 OA
ATOM      7  C   UNL     1       1.110  11.161  19.225  0.00  0.00    +0.000 C 
ATOM      8  N   UNL     1       0.295  11.249  20.440  0.00  0.00    +0.000 N 
ATOM      9  C   UNL     1      -0.473  12.431  20.502  0.00  0.00    +0.000 C 
ATOM     10  O   UNL     1      -0.500  13.233  19.564  0.00  0.00    +0.000 OA
ENDROOT
BRANCH   9  11
ATOM     11  C   UNL     1      -1.364  12.781  21.622  0.00  0.00    +0.000 A 
ATOM     12  C   UNL     1      -0.939  13.595  22.669  0.00  0.00    +0.000 A 
ATOM     13  C   UNL     1      -1.711  13.764  23.825  0.00  0.00    +0.000 A 
ATOM     14  C   UNL     1      -3.008  13.260  23.773  0.00  0.00    +0.000 A 
ATOM     15  N   UNL     1      -4.046  13.251  24.659  0.00  0.00    +0.000 N 
ATOM     16  N   UNL     1      -5.162  12.738  24.116  0.00  0.00    +0.000 NA
ATOM     17  N   UNL     1      -4.857  12.339  22.886  0.00  0.00    +0.000 NA
ATOM     18  C   UNL     1      -3.536  12.619  22.661  0.00  0.00    +0.000 A 
ATOM     19  C   UNL     1      -2.707  12.353  21.565  0.00  0.00    +0.000 A 
ATOM     20  H   UNL     1      -4.074  13.579  25.617  0.00  0.00    +0.000 HD
ENDBRANCH   9  11
BRANCH   4  21
ATOM     21  C   UNL     1       2.245   7.529  19.337  0.00  0.00    +0.000 A 
ATOM     22  C   UNL     1       2.103   6.423  20.188  0.00  0.00    +0.000 A 
ATOM     23  C   UNL     1       2.759   5.215  19.931  0.00  0.00    +0.000 A 
ATOM     24  C   UNL     1       3.559   5.085  18.801  0.00  0.00    +0.000 A 
ATOM     25  C   UNL     1       3.725   6.174  17.956  0.00  0.00    +0.000 A 
ATOM     26 CL   UNL     1       4.705   6.017  16.552  0.00  0.00    +0.000 Cl
ATOM     27  C   UNL     1       3.085   7.387  18.222  0.00  0.00    +0.000 A 
ENDBRANCH   4  21
TORSDOF 2
ENDMDL
MODEL 5
REMARK VINA RESULT:      -7.5      3.798      9.384
REMARK  Name = 
REMARK  3 active torsions:
REMARK  status: ('A' for Active; 'I' for Inactive)
REMARK    1  A    between atoms: C_1  and  C_2
REMARK    2  A    between atoms: N_4  and  C_5
REMARK    3  A    between atoms: C_16  and  C_18
REMARK                            x       y       z     vdW  Elec       q    Type
REMARK                         _______ _______ _______ _____ _____    ______ ____
ROOT
ATOM      1  C   UNL     1      -0.222   9.959  22.997  0.00  0.00    +0.000 C 
ATOM      2  C   UNL     1       0.568  10.036  21.684  0.00  0.00    +0.000 C 
ATOM      3  C   UNL     1       0.463   8.609  21.085  0.00  0.00    +0.000 C 
ATOM      4  N   UNL     1       1.326   8.380  19.938  0.00  0.00    +0.000 N 
ATOM      5  C   UNL     1       1.334   9.360  18.938  0.00  0.00    +0.000 C 
ATOM      6  O   UNL     1       1.668   9.160  17.770  0.00  0.00    +0.000 OA
ATOM      7  C   UNL     1       1.082  10.801  19.413  0.00  0.00    +0.000 C 
ATOM      8  N   UNL     1       0.276  11.026  20.617  0.00  0.00    +0.000 N 
ATOM      9  C   UNL     1      -0.426  12.249  20.588  0.00  0.00    +0.000 C 
ATOM     10  O   UNL     1      -0.412  12.978  19.592  0.00  0.00    +0.000 OA
ENDROOT
BRANCH   9  11
ATOM     11  C   UNL     1      -1.295  12.731  21.676  0.00  0.00    +0.000 A 
ATOM     12  C   UNL     1      -0.835  13.630  22.635  0.00  0.00    +0.000 A 
ATOM     13  C   UNL     1      -1.588  13.932  23.776  0.00  0.00    +0.000 A 
ATOM     14  C   UNL     1      -2.899  13.463  23.785  0.00  0.00    +0.000 A 
ATOM     15  N   UNL     1      -3.927  13.569  24.677  0.00  0.00    +0.000 N 
ATOM     16  N   UNL     1      -5.062  13.038  24.196  0.00  0.00    +0.000 NA
ATOM     17  N   UNL     1      -4.784  12.513  23.008  0.00  0.00    +0.000 NA
ATOM     18  C   UNL     1      -3.458  12.733  22.745  0.00  0.00    +0.000 A 
ATOM     19  C   UNL     1      -2.649  12.338  21.673  0.00  0.00    +0.000 A 
ATOM     20  H   UNL     1      -3.935  13.989  25.599  0.00  0.00    +0.000 HD
ENDBRANCH   9  11
BRANCH   4  21
ATOM     21  C   UNL     1       2.018   7.132  19.803  0.00  0.00    +0.000 A 
ATOM     22  C   UNL     1       3.068   6.996  18.882  0.00  0.00    +0.000 A 
ATOM     23  C   UNL     1       3.819   5.819  18.800  0.00  0.00    +0.000 A 
ATOM     24  C   UNL     1       3.544   4.758  19.656  0.00  0.00    +0.000 A 
ATOM     25  C   UNL     1       2.498   4.867  20.562  0.00  0.00    +0.000 A 
ATOM     26 CL   UNL     1       2.160   3.563  21.630  0.00  0.00    +0.000 Cl
ATOM     27  C   UNL     1       1.735   6.036  20.632  0.00  0.00    +0.000 A 
ENDBRANCH   4  21
TORSDOF 2
ENDMDL
MODEL 6
REMARK VINA RESULT:      -7.4      2.219      2.880
REMARK  Name = 
REMARK  3 active torsions:
REMARK  status: ('A' for Active; 'I' for Inactive)
REMARK    1  A    between atoms: C_1  and  C_2
REMARK    2  A    between atoms: N_4  and  C_5
REMARK    3  A    between atoms: C_16  and  C_18
REMARK                            x       y       z     vdW  Elec       q    Type
REMARK                         _______ _______ _______ _____ _____    ______ ____
ROOT
ATOM      1  C   UNL     1       1.460   6.685  20.972  0.00  0.00    +0.000 C 
ATOM      2  C   UNL     1       1.182   7.919  20.103  0.00  0.00    +0.000 C 
ATOM      3  C   UNL     1       1.301   9.116  21.082  0.00  0.00    +0.000 C 
ATOM      4  N   UNL     1       0.859  10.385  20.527  0.00  0.00    +0.000 N 
ATOM      5  C   UNL     1       1.319  10.718  19.247  0.00  0.00    +0.000 C 
ATOM      6  O   UNL     1       1.381  11.866  18.807  0.00  0.00    +0.000 OA
ATOM      7  C   UNL     1       1.577   9.533  18.301  0.00  0.00    +0.000 C 
ATOM      8  N   UNL     1       1.946   8.232  18.869  0.00  0.00    +0.000 N 
ATOM      9  C   UNL     1       2.767   7.471  18.011  0.00  0.00    +0.000 C 
ATOM     10  O   UNL     1       3.188   7.930  16.945  0.00  0.00    +0.000 OA
ENDROOT
BRANCH   9  11
ATOM     11  C   UNL     1       3.267   6.121  18.326  0.00  0.00    +0.000 A 
ATOM     12  C   UNL     1       4.431   5.925  19.065  0.00  0.00    +0.000 A 
ATOM     13  C   UNL     1       5.012   4.658  19.194  0.00  0.00    +0.000 A 
ATOM     14  C   UNL     1       4.250   3.587  18.737  0.00  0.00    +0.000 A 
ATOM     15  N   UNL     1       4.450   2.237  18.712  0.00  0.00    +0.000 N 
ATOM     16  N   UNL     1       3.367   1.579  18.267  0.00  0.00    +0.000 NA
ATOM     17  N   UNL     1       2.461   2.489  17.928  0.00  0.00    +0.000 NA
ATOM     18  C   UNL     1       2.987   3.729  18.178  0.00  0.00    +0.000 A 
ATOM     19  C   UNL     1       2.481   5.013  17.946  0.00  0.00    +0.000 A 
ATOM     20  H   UNL     1       5.267   1.704  18.986  0.00  0.00    +0.000 HD
ENDBRANCH   9  11
BRANCH   4  21
ATOM     21  C   UNL     1       0.100  11.293  21.336  0.00  0.00    +0.000 A 
ATOM     22  C   UNL     1      -0.865  10.810  22.233  0.00  0.00    +0.000 A 
ATOM     23  C   UNL     1      -1.549  11.668  23.100  0.00  0.00    +0.000 A 
ATOM     24  C   UNL     1      -1.265  13.028  23.100  0.00  0.00    +0.000 A 
ATOM     25  C   UNL     1      -0.324  13.527  22.208  0.00  0.00    +0.000 A 
ATOM     26 CL   UNL     1       0.039  15.208  22.209  0.00  0.00    +0.000 Cl
ATOM     27  C   UNL     1       0.346  12.674  21.328  0.00  0.00    +0.000 A 
ENDBRANCH   4  21
TORSDOF 2
ENDMDL
MODEL 7
REMARK VINA RESULT:      -7.3      3.960      9.427
REMARK  Name = 
REMARK  3 active torsions:
REMARK  status: ('A' for Active; 'I' for Inactive)
REMARK    1  A    between atoms: C_1  and  C_2
REMARK    2  A    between atoms: N_4  and  C_5
REMARK    3  A    between atoms: C_16  and  C_18
REMARK                            x       y       z     vdW  Elec       q    Type
REMARK                         _______ _______ _______ _____ _____    ______ ____
ROOT
ATOM      1  C   UNL     1      -0.171   9.967  23.142  0.00  0.00    +0.000 C 
ATOM      2  C   UNL     1       0.565  10.077  21.801  0.00  0.00    +0.000 C 
ATOM      3  C   UNL     1       0.435   8.665  21.172  0.00  0.00    +0.000 C 
ATOM      4  N   UNL     1       1.251   8.464  19.985  0.00  0.00    +0.000 N 
ATOM      5  C   UNL     1       1.219   9.469  19.010  0.00  0.00    +0.000 C 
ATOM      6  O   UNL     1       1.506   9.298  17.825  0.00  0.00    +0.000 OA
ATOM      7  C   UNL     1       0.987  10.898  19.530  0.00  0.00    +0.000 C 
ATOM      8  N   UNL     1       0.231  11.092  20.771  0.00  0.00    +0.000 N 
ATOM      9  C   UNL     1      -0.471  12.316  20.800  0.00  0.00    +0.000 C 
ATOM     10  O   UNL     1      -0.497  13.069  19.822  0.00  0.00    +0.000 OA
ENDROOT
BRANCH   9  11
ATOM     11  C   UNL     1      -1.295  12.771  21.934  0.00  0.00    +0.000 A 
ATOM     12  C   UNL     1      -2.575  12.270  22.156  0.00  0.00    +0.000 A 
ATOM     13  C   UNL     1      -3.430  12.841  23.106  0.00  0.00    +0.000 A 
ATOM     14  C   UNL     1      -2.856  13.779  23.960  0.00  0.00    +0.000 A 
ATOM     15  N   UNL     1      -3.338  14.516  25.003  0.00  0.00    +0.000 N 
ATOM     16  N   UNL     1      -2.367  15.218  25.609  0.00  0.00    +0.000 NA
ATOM     17  N   UNL     1      -1.243  15.008  24.932  0.00  0.00    +0.000 NA
ATOM     18  C   UNL     1      -1.521  14.153  23.899  0.00  0.00    +0.000 A 
ATOM     19  C   UNL     1      -0.718  13.661  22.863  0.00  0.00    +0.000 A 
ATOM     20  H   UNL     1      -4.284  14.581  25.359  0.00  0.00    +0.000 HD
ENDBRANCH   9  11
BRANCH   4  21
ATOM     21  C   UNL     1       1.936   7.220  19.792  0.00  0.00    +0.000 A 
ATOM     22  C   UNL     1       2.921   7.097  18.800  0.00  0.00    +0.000 A 
ATOM     23  C   UNL     1       3.669   5.924  18.656  0.00  0.00    +0.000 A 
ATOM     24  C   UNL     1       3.457   4.854  19.519  0.00  0.00    +0.000 A 
ATOM     25  C   UNL     1       2.475   4.951  20.496  0.00  0.00    +0.000 A 
ATOM     26 CL   UNL     1       2.215   3.636  21.572  0.00  0.00    +0.000 Cl
ATOM     27  C   UNL     1       1.714   6.116  20.628  0.00  0.00    +0.000 A 
ENDBRANCH   4  21
TORSDOF 2
ENDMDL
MODEL 8
REMARK VINA RESULT:      -7.3      2.352      3.844
REMARK  Name = 
REMARK  3 active torsions:
REMARK  status: ('A' for Active; 'I' for Inactive)
REMARK    1  A    between atoms: C_1  and  C_2
REMARK    2  A    between atoms: N_4  and  C_5
REMARK    3  A    between atoms: C_16  and  C_18
REMARK                            x       y       z     vdW  Elec       q    Type
REMARK                         _______ _______ _______ _____ _____    ______ ____
ROOT
ATOM      1  C   UNL     1       4.823   7.506  16.847  0.00  0.00    +0.000 C 
ATOM      2  C   UNL     1       4.248   6.932  18.148  0.00  0.00    +0.000 C 
ATOM      3  C   UNL     1       2.829   7.550  18.250  0.00  0.00    +0.000 C 
ATOM      4  N   UNL     1       2.169   7.320  19.524  0.00  0.00    +0.000 N 
ATOM      5  C   UNL     1       2.201   6.017  20.035  0.00  0.00    +0.000 C 
ATOM      6  O   UNL     1       1.394   5.568  20.850  0.00  0.00    +0.000 OA
ATOM      7  C   UNL     1       3.445   5.188  19.673  0.00  0.00    +0.000 C 
ATOM      8  N   UNL     1       4.156   5.475  18.423  0.00  0.00    +0.000 N 
ATOM      9  C   UNL     1       4.787   4.338  17.876  0.00  0.00    +0.000 C 
ATOM     10  O   UNL     1       4.648   3.219  18.377  0.00  0.00    +0.000 OA
ENDROOT
BRANCH   9  11
ATOM     11  C   UNL     1       5.583   4.350  16.636  0.00  0.00    +0.000 A 
ATOM     12  C   UNL     1       6.921   4.737  16.630  0.00  0.00    +0.000 A 
ATOM     13  C   UNL     1       7.619   4.940  15.433  0.00  0.00    +0.000 A 
ATOM     14  C   UNL     1       6.974   4.523  14.271  0.00  0.00    +0.000 A 
ATOM     15  N   UNL     1       7.325   4.525  12.952  0.00  0.00    +0.000 N 
ATOM     16  N   UNL     1       6.409   3.907  12.190  0.00  0.00    +0.000 NA
ATOM     17  N   UNL     1       5.408   3.548  12.986  0.00  0.00    +0.000 NA
ATOM     18  C   UNL     1       5.715   3.939  14.262  0.00  0.00    +0.000 A 
ATOM     19  C   UNL     1       4.987   3.861  15.455  0.00  0.00    +0.000 A 
ATOM     20  H   UNL     1       8.153   4.905  12.510  0.00  0.00    +0.000 HD
ENDBRANCH   9  11
BRANCH   4  21
ATOM     21  C   UNL     1       1.410   8.372  20.135  0.00  0.00    +0.000 A 
ATOM     22  C   UNL     1       1.277   8.435  21.531  0.00  0.00    +0.000 A 
ATOM     23  C   UNL     1       0.623   9.503  22.153  0.00  0.00    +0.000 A 
ATOM     24  C   UNL     1       0.104  10.542  21.388  0.00  0.00    +0.000 A 
ATOM     25  C   UNL     1       0.211  10.489  20.005  0.00  0.00    +0.000 A 
ATOM     26 CL   UNL     1      -0.420  11.775  19.054  0.00  0.00    +0.000 Cl
ATOM     27  C   UNL     1       0.847   9.412  19.381  0.00  0.00    +0.000 A 
ENDBRANCH   4  21
TORSDOF 2
ENDMDL
MODEL 9
REMARK VINA RESULT:      -7.3      3.973      9.431
REMARK  Name = 
REMARK  3 active torsions:
REMARK  status: ('A' for Active; 'I' for Inactive)
REMARK    1  A    between atoms: C_1  and  C_2
REMARK    2  A    between atoms: N_4  and  C_5
REMARK    3  A    between atoms: C_16  and  C_18
REMARK                            x       y       z     vdW  Elec       q    Type
REMARK                         _______ _______ _______ _____ _____    ______ ____
ROOT
ATOM      1  C   UNL     1      -0.105  10.019  23.068  0.00  0.00    +0.000 C 
ATOM      2  C   UNL     1       0.606  10.163  21.717  0.00  0.00    +0.000 C 
ATOM      3  C   UNL     1       0.506   8.755  21.075  0.00  0.00    +0.000 C 
ATOM      4  N   UNL     1       1.308   8.589  19.873  0.00  0.00    +0.000 N 
ATOM      5  C   UNL     1       1.232   9.602  18.910  0.00  0.00    +0.000 C 
ATOM      6  O   UNL     1       1.504   9.451  17.719  0.00  0.00    +0.000 OA
ATOM      7  C   UNL     1       0.968  11.018  19.448  0.00  0.00    +0.000 C 
ATOM      8  N   UNL     1       0.227  11.179  20.703  0.00  0.00    +0.000 N 
ATOM      9  C   UNL     1      -0.510  12.381  20.755  0.00  0.00    +0.000 C 
ATOM     10  O   UNL     1      -0.572  13.143  19.786  0.00  0.00    +0.000 OA
ENDROOT
BRANCH   9  11
ATOM     11  C   UNL     1      -1.328  12.801  21.907  0.00  0.00    +0.000 A 
ATOM     12  C   UNL     1      -2.594  12.271  22.137  0.00  0.00    +0.000 A 
ATOM     13  C   UNL     1      -3.449  12.809  23.107  0.00  0.00    +0.000 A 
ATOM     14  C   UNL     1      -2.882  13.745  23.968  0.00  0.00    +0.000 A 
ATOM     15  N   UNL     1      -3.365  14.456  25.029  0.00  0.00    +0.000 N 
ATOM     16  N   UNL     1      -2.401  15.168  25.634  0.00  0.00    +0.000 NA
ATOM     17  N   UNL     1      -1.282  14.990  24.940  0.00  0.00    +0.000 NA
ATOM     18  C   UNL     1      -1.555  14.147  23.897  0.00  0.00    +0.000 A 
ATOM     19  C   UNL     1      -0.757  13.688  22.843  0.00  0.00    +0.000 A 
ATOM     20  H   UNL     1      -4.308  14.496  25.398  0.00  0.00    +0.000 HD
ENDBRANCH   9  11
BRANCH   4  21
ATOM     21  C   UNL     1       2.025   7.367  19.656  0.00  0.00    +0.000 A 
ATOM     22  C   UNL     1       1.841   6.272  20.514  0.00  0.00    +0.000 A 
ATOM     23  C   UNL     1       2.455   5.040  20.267  0.00  0.00    +0.000 A 
ATOM     24  C   UNL     1       3.255   4.875  19.142  0.00  0.00    +0.000 A 
ATOM     25  C   UNL     1       3.463   5.952  18.290  0.00  0.00    +0.000 A 
ATOM     26 CL   UNL     1       4.442   5.752  16.891  0.00  0.00    +0.000 Cl
ATOM     27  C   UNL     1       2.864   7.189  18.546  0.00  0.00    +0.000 A 
ENDBRANCH   4  21
TORSDOF 2
ENDMDL
