MODEL 1
REMARK VINA RESULT:      -8.1      0.000      0.000
REMARK  Name = 
REMARK  6 active torsions:
REMARK  status: ('A' for Active; 'I' for Inactive)
REMARK    1  A    between atoms: C_1  and  C_2
REMARK    2  A    between atoms: N_4  and  C_5
REMARK    3  A    between atoms: C_9  and  C_10
REMARK    4  A    between atoms: C_11  and  C_12
REMARK    5  A    between atoms: C_16  and  C_17
REMARK    6  A    between atoms: C_22  and  N_23
REMARK                            x       y       z     vdW  Elec       q    Type
REMARK                         _______ _______ _______ _____ _____    ______ ____
ROOT
ATOM      1  C   UNL     1       0.145   9.914  22.515  0.00  0.00    +0.000 C 
ATOM      2  O   UNL     1       0.221   9.662  23.729  0.00  0.00    +0.000 OA
ATOM      3  N   UNL     1      -0.647  11.149  22.013  0.00  0.00    +0.000 N 
ATOM      4  C   UNL     1      -1.122  11.727  23.205  0.00  0.00    +0.000 C 
ATOM      5  C   UNL     1      -1.108  13.125  22.720  0.00  0.00    +0.000 C 
ATOM      6  C   UNL     1      -2.311  12.752  21.875  0.00  0.00    +0.000 A 
ATOM      7  C   UNL     1      -1.863  11.650  20.916  0.00  0.00    +0.000 A 
ATOM      8  C   UNL     1      -2.904  12.123  20.040  0.00  0.00    +0.000 A 
ATOM      9  C   UNL     1      -4.203  13.062  20.144  0.00  0.00    +0.000 A 
ATOM     10  C   UNL     1      -4.480  13.818  21.290  0.00  0.00    +0.000 A 
ATOM     11  C   UNL     1      -5.481  14.841  21.499  0.00  0.00    +0.000 A 
ATOM     12  C   UNL     1      -5.575  15.490  22.723  0.00  0.00    +0.000 A 
ATOM     13  C   UNL     1      -5.067  14.858  23.818  0.00  0.00    +0.000 A 
ATOM     14  C   UNL     1      -3.955  14.049  23.580  0.00  0.00    +0.000 A 
ATOM     15  C   UNL     1      -3.566  13.569  22.274  0.00  0.00    +0.000 A 
ENDROOT
BRANCH   9  16
ATOM     16  N   UNL     1      -5.055  13.338  19.034  0.00  0.00    +0.000 N 
ATOM     17  H   UNL     1      -5.043  14.256  18.623  0.00  0.00    +0.000 HD
ATOM     18  H   UNL     1      -4.920  12.642  18.272  0.00  0.00    +0.000 HD
ENDBRANCH   9  16
BRANCH   1  20
ATOM     19  C   UNL     1       1.252   8.083  20.505  0.00  0.00    +0.000 C 
ATOM     20  C   UNL     1       1.379   9.076  21.505  0.00  0.00    +0.000 C 
BRANCH  19  25
ATOM     21  C   UNL     1       3.455   5.269  18.537  0.00  0.00    +0.000 A 
ATOM     22  C   UNL     1       4.109   5.978  17.529  0.00  0.00    +0.000 A 
ATOM     23  C   UNL     1       3.761   7.313  17.366  0.00  0.00    +0.000 A 
ATOM     24  C   UNL     1       2.823   7.954  18.264  0.00  0.00    +0.000 A 
ATOM     25  C   UNL     1       2.193   7.299  19.387  0.00  0.00    +0.000 A 
ATOM     26  C   UNL     1       2.520   5.929  19.434  0.00  0.00    +0.000 A 
BRANCH  21  30
ATOM     27  C   UNL     1       3.560   1.501  18.290  0.00  0.00    +0.000 C 
ATOM     28  C   UNL     1       3.052   2.898  18.031  0.00  0.00    +0.000 C 
ATOM     29  O   UNL     1       2.108   3.084  17.283  0.00  0.00    +0.000 OA
ATOM     30  N   UNL     1       3.766   3.893  18.684  0.00  0.00    +0.000 N 
ATOM     31  H   UNL     1       4.652   3.643  19.114  0.00  0.00    +0.000 HD
ENDBRANCH  21  30
ENDBRANCH  19  25
ENDBRANCH   1  20
BRANCH   5  32
ATOM     32  C   UNL     1       0.007  13.631  21.699  0.00  0.00    +0.000 C 
ATOM     33 CL   UNL     1      -0.535  14.997  20.708  0.00  0.00    +0.000 Cl
ENDBRANCH   5  32
TORSDOF 5
ENDMDL
MODEL 2
REMARK VINA RESULT:      -8.0      1.994      2.527
REMARK  Name = 
REMARK  6 active torsions:
REMARK  status: ('A' for Active; 'I' for Inactive)
REMARK    1  A    between atoms: C_1  and  C_2
REMARK    2  A    between atoms: N_4  and  C_5
REMARK    3  A    between atoms: C_9  and  C_10
REMARK    4  A    between atoms: C_11  and  C_12
REMARK    5  A    between atoms: C_16  and  C_17
REMARK    6  A    between atoms: C_22  and  N_23
REMARK                            x       y       z     vdW  Elec       q    Type
REMARK                         _______ _______ _______ _____ _____    ______ ____
ROOT
ATOM      1  C   UNL     1       0.605   9.781  19.749  0.00  0.00    +0.000 C 
ATOM      2  O   UNL     1       1.029   9.863  20.914  0.00  0.00    +0.000 OA
ATOM      3  N   UNL     1      -0.536  10.709  19.257  0.00  0.00    +0.000 N 
ATOM      4  C   UNL     1      -0.820  11.491  20.392  0.00  0.00    +0.000 C 
ATOM      5  C   UNL     1      -1.231  12.704  19.650  0.00  0.00    +0.000 C 
ATOM      6  C   UNL     1      -2.492  11.945  19.282  0.00  0.00    +0.000 A 
ATOM      7  C   UNL     1      -2.061  10.718  18.480  0.00  0.00    +0.000 A 
ATOM      8  C   UNL     1      -3.363  10.784  17.864  0.00  0.00    +0.000 A 
ATOM      9  C   UNL     1      -4.770  11.506  18.146  0.00  0.00    +0.000 A 
ATOM     10  C   UNL     1      -4.918  12.477  19.144  0.00  0.00    +0.000 A 
ATOM     11  C   UNL     1      -6.036  13.351  19.421  0.00  0.00    +0.000 A 
ATOM     12  C   UNL     1      -5.968  14.268  20.461  0.00  0.00    +0.000 A 
ATOM     13  C   UNL     1      -5.083  14.024  21.467  0.00  0.00    +0.000 A 
ATOM     14  C   UNL     1      -3.914  13.364  21.088  0.00  0.00    +0.000 A 
ATOM     15  C   UNL     1      -3.759  12.632  19.851  0.00  0.00    +0.000 A 
ENDROOT
BRANCH   9  16
ATOM     16  N   UNL     1      -5.906  11.353  17.297  0.00  0.00    +0.000 N 
ATOM     17  H   UNL     1      -5.933  10.584  16.649  0.00  0.00    +0.000 HD
ATOM     18  H   UNL     1      -6.790  11.344  17.846  0.00  0.00    +0.000 HD
ENDBRANCH   9  16
BRANCH   1  20
ATOM     19  C   UNL     1       2.436   7.710  18.760  0.00  0.00    +0.000 C 
ATOM     20  C   UNL     1       1.708   8.915  18.618  0.00  0.00    +0.000 C 
BRANCH  19  25
ATOM     21  C   UNL     1       4.227   4.384  17.221  0.00  0.00    +0.000 A 
ATOM     22  C   UNL     1       5.232   4.880  16.391  0.00  0.00    +0.000 A 
ATOM     23  C   UNL     1       5.271   6.254  16.194  0.00  0.00    +0.000 A 
ATOM     24  C   UNL     1       4.356   7.133  16.893  0.00  0.00    +0.000 A 
ATOM     25  C   UNL     1       3.362   6.687  17.842  0.00  0.00    +0.000 A 
ATOM     26  C   UNL     1       3.320   5.279  17.920  0.00  0.00    +0.000 A 
BRANCH  21  30
ATOM     27  C   UNL     1       3.987   0.883  18.619  0.00  0.00    +0.000 C 
ATOM     28  C   UNL     1       4.105   2.386  18.648  0.00  0.00    +0.000 C 
ATOM     29  O   UNL     1       4.130   2.985  19.709  0.00  0.00    +0.000 OA
ATOM     30  N   UNL     1       4.148   2.978  17.393  0.00  0.00    +0.000 N 
ATOM     31  H   UNL     1       3.915   2.407  16.585  0.00  0.00    +0.000 HD
ENDBRANCH  21  30
ENDBRANCH  19  25
ENDBRANCH   1  20
BRANCH   5  32
ATOM     32  C   UNL     1      -0.538  13.099  18.269  0.00  0.00    +0.000 C 
ATOM     33 CL   UNL     1       1.148  13.613  18.466  0.00  0.00    +0.000 Cl
ENDBRANCH   5  32
TORSDOF 5
ENDMDL
MODEL 3
REMARK VINA RESULT:      -8.0      3.164      4.104
REMARK  Name = 
REMARK  6 active torsions:
REMARK  status: ('A' for Active; 'I' for Inactive)
REMARK    1  A    between atoms: C_1  and  C_2
REMARK    2  A    between atoms: N_4  and  C_5
REMARK    3  A    between atoms: C_9  and  C_10
REMARK    4  A    between atoms: C_11  and  C_12
REMARK    5  A    between atoms: C_16  and  C_17
REMARK    6  A    between atoms: C_22  and  N_23
REMARK                            x       y       z     vdW  Elec       q    Type
REMARK                         _______ _______ _______ _____ _____    ______ ____
ROOT
ATOM      1  C   UNL     1       0.737   8.904  19.620  0.00  0.00    +0.000 C 
ATOM      2  O   UNL     1       0.667   8.837  20.858  0.00  0.00    +0.000 OA
ATOM      3  N   UNL     1      -0.196   9.855  18.827  0.00  0.00    +0.000 N 
ATOM      4  C   UNL     1      -0.962  10.463  19.839  0.00  0.00    +0.000 C 
ATOM      5  C   UNL     1      -1.153  11.754  19.139  0.00  0.00    +0.000 C 
ATOM      6  C   UNL     1      -2.104  11.014  18.218  0.00  0.00    +0.000 A 
ATOM      7  C   UNL     1      -1.295   9.924  17.516  0.00  0.00    +0.000 A 
ATOM      8  C   UNL     1      -2.256  10.035  16.448  0.00  0.00    +0.000 A 
ATOM      9  C   UNL     1      -3.718  10.666  16.231  0.00  0.00    +0.000 A 
ATOM     10  C   UNL     1      -4.322  11.484  17.194  0.00  0.00    +0.000 A 
ATOM     11  C   UNL     1      -5.528  12.276  17.104  0.00  0.00    +0.000 A 
ATOM     12  C   UNL     1      -5.945  13.042  18.184  0.00  0.00    +0.000 A 
ATOM     13  C   UNL     1      -5.504  12.688  19.422  0.00  0.00    +0.000 A 
ATOM     14  C   UNL     1      -4.228  12.124  19.464  0.00  0.00    +0.000 A 
ATOM     15  C   UNL     1      -3.545  11.576  18.314  0.00  0.00    +0.000 A 
ENDROOT
BRANCH   9  16
ATOM     16  N   UNL     1      -4.418  10.597  14.990  0.00  0.00    +0.000 N 
ATOM     17  H   UNL     1      -4.953  11.392  14.685  0.00  0.00    +0.000 HD
ATOM     18  H   UNL     1      -3.784  10.317  14.213  0.00  0.00    +0.000 HD
ENDBRANCH   9  16
BRANCH   1  20
ATOM     19  C   UNL     1       2.899   6.987  19.098  0.00  0.00    +0.000 C 
ATOM     20  C   UNL     1       2.261   8.238  18.927  0.00  0.00    +0.000 C 
BRANCH  19  25
ATOM     21  C   UNL     1       5.304   4.789  16.644  0.00  0.00    +0.000 A 
ATOM     22  C   UNL     1       6.347   4.362  17.466  0.00  0.00    +0.000 A 
ATOM     23  C   UNL     1       6.384   4.872  18.758  0.00  0.00    +0.000 A 
ATOM     24  C   UNL     1       5.333   5.739  19.248  0.00  0.00    +0.000 A 
ATOM     25  C   UNL     1       4.176   6.133  18.477  0.00  0.00    +0.000 A 
ATOM     26  C   UNL     1       4.253   5.655  17.152  0.00  0.00    +0.000 A 
BRANCH  21  30
ATOM     27  C   UNL     1       6.123   3.929  13.058  0.00  0.00    +0.000 C 
ATOM     28  C   UNL     1       6.322   4.547  14.420  0.00  0.00    +0.000 C 
ATOM     29  O   UNL     1       7.340   5.167  14.676  0.00  0.00    +0.000 OA
ATOM     30  N   UNL     1       5.281   4.313  15.308  0.00  0.00    +0.000 N 
ATOM     31  H   UNL     1       4.584   3.618  15.057  0.00  0.00    +0.000 HD
ENDBRANCH  21  30
ENDBRANCH  19  25
ENDBRANCH   1  20
BRANCH   5  32
ATOM     32  C   UNL     1      -0.014  12.358  18.202  0.00  0.00    +0.000 C 
ATOM     33 CL   UNL     1       1.352  13.023  19.116  0.00  0.00    +0.000 Cl
ENDBRANCH   5  32
TORSDOF 5
ENDMDL
MODEL 4
REMARK VINA RESULT:      -8.0      3.900      5.181
REMARK  Name = 
REMARK  6 active torsions:
REMARK  status: ('A' for Active; 'I' for Inactive)
REMARK    1  A    between atoms: C_1  and  C_2
REMARK    2  A    between atoms: N_4  and  C_5
REMARK    3  A    between atoms: C_9  and  C_10
REMARK    4  A    between atoms: C_11  and  C_12
REMARK    5  A    between atoms: C_16  and  C_17
REMARK    6  A    between atoms: C_22  and  N_23
REMARK                            x       y       z     vdW  Elec       q    Type
REMARK                         _______ _______ _______ _____ _____    ______ ____
ROOT
ATOM      1  C   UNL     1       0.321  10.625  18.497  0.00  0.00    +0.000 C 
ATOM      2  O   UNL     1      -0.868  10.397  18.221  0.00  0.00    +0.000 OA
ATOM      3  N   UNL     1       0.778  12.048  18.910  0.00  0.00    +0.000 N 
ATOM      4  C   UNL     1      -0.417  12.791  18.860  0.00  0.00    +0.000 C 
ATOM      5  C   UNL     1      -0.058  13.740  19.938  0.00  0.00    +0.000 C 
ATOM      6  C   UNL     1       0.913  14.358  18.951  0.00  0.00    +0.000 A 
ATOM      7  C   UNL     1       1.924  13.276  18.576  0.00  0.00    +0.000 A 
ATOM      8  C   UNL     1       2.839  14.357  18.313  0.00  0.00    +0.000 A 
ATOM      9  C   UNL     1       2.761  15.947  18.094  0.00  0.00    +0.000 A 
ATOM     10  C   UNL     1       1.581  16.668  18.314  0.00  0.00    +0.000 A 
ATOM     11  C   UNL     1       1.367  18.098  18.345  0.00  0.00    +0.000 A 
ATOM     12  C   UNL     1       0.103  18.611  18.603  0.00  0.00    +0.000 A 
ATOM     13  C   UNL     1      -0.970  17.810  18.361  0.00  0.00    +0.000 A 
ATOM     14  C   UNL     1      -0.756  16.446  18.563  0.00  0.00    +0.000 A 
ATOM     15  C   UNL     1       0.550  15.832  18.638  0.00  0.00    +0.000 A 
ENDROOT
BRANCH   9  16
ATOM     16  N   UNL     1       3.911  16.755  17.847  0.00  0.00    +0.000 N 
ATOM     17  H   UNL     1       4.391  17.175  18.625  0.00  0.00    +0.000 HD
ATOM     18  H   UNL     1       4.612  16.248  17.269  0.00  0.00    +0.000 HD
ENDBRANCH   9  16
BRANCH   1  20
ATOM     19  C   UNL     1       2.048   8.301  18.011  0.00  0.00    +0.000 C 
ATOM     20  C   UNL     1       1.295   9.151  18.854  0.00  0.00    +0.000 C 
BRANCH  19  25
ATOM     21  C   UNL     1       4.678   5.310  17.128  0.00  0.00    +0.000 A 
ATOM     22  C   UNL     1       4.761   4.558  18.300  0.00  0.00    +0.000 A 
ATOM     23  C   UNL     1       4.106   5.057  19.419  0.00  0.00    +0.000 A 
ATOM     24  C   UNL     1       3.304   6.260  19.340  0.00  0.00    +0.000 A 
ATOM     25  C   UNL     1       3.099   7.024  18.131  0.00  0.00    +0.000 A 
ATOM     26  C   UNL     1       3.864   6.513  17.062  0.00  0.00    +0.000 A 
BRANCH  21  30
ATOM     27  C   UNL     1       7.231   4.662  14.420  0.00  0.00    +0.000 C 
ATOM     28  C   UNL     1       6.637   5.316  15.642  0.00  0.00    +0.000 C 
ATOM     29  O   UNL     1       7.259   6.169  16.253  0.00  0.00    +0.000 OA
ATOM     30  N   UNL     1       5.381   4.837  15.990  0.00  0.00    +0.000 N 
ATOM     31  H   UNL     1       5.049   3.991  15.537  0.00  0.00    +0.000 HD
ENDBRANCH  21  30
ENDBRANCH  19  25
ENDBRANCH   1  20
BRANCH   5  32
ATOM     32  C   UNL     1       0.819  13.276  21.186  0.00  0.00    +0.000 C 
ATOM     33 CL   UNL     1       1.814  14.582  21.854  0.00  0.00    +0.000 Cl
ENDBRANCH   5  32
TORSDOF 5
ENDMDL
MODEL 5
REMARK VINA RESULT:      -8.0      3.012      4.346
REMARK  Name = 
REMARK  6 active torsions:
REMARK  status: ('A' for Active; 'I' for Inactive)
REMARK    1  A    between atoms: C_1  and  C_2
REMARK    2  A    between atoms: N_4  and  C_5
REMARK    3  A    between atoms: C_9  and  C_10
REMARK    4  A    between atoms: C_11  and  C_12
REMARK    5  A    between atoms: C_16  and  C_17
REMARK    6  A    between atoms: C_22  and  N_23
REMARK                            x       y       z     vdW  Elec       q    Type
REMARK                         _______ _______ _______ _____ _____    ______ ____
ROOT
ATOM      1  C   UNL     1       0.529   9.967  18.275  0.00  0.00    +0.000 C 
ATOM      2  O   UNL     1      -0.563   9.790  17.711  0.00  0.00    +0.000 OA
ATOM      3  N   UNL     1       0.630  10.864  19.536  0.00  0.00    +0.000 N 
ATOM      4  C   UNL     1      -0.698  11.286  19.733  0.00  0.00    +0.000 C 
ATOM      5  C   UNL     1      -0.616  11.389  21.207  0.00  0.00    +0.000 C 
ATOM      6  C   UNL     1       0.235  12.625  20.986  0.00  0.00    +0.000 A 
ATOM      7  C   UNL     1       1.482  12.182  20.221  0.00  0.00    +0.000 A 
ATOM      8  C   UNL     1       2.139  13.310  20.833  0.00  0.00    +0.000 A 
ATOM      9  C   UNL     1       1.712  14.651  21.607  0.00  0.00    +0.000 A 
ATOM     10  C   UNL     1       0.390  14.889  22.003  0.00  0.00    +0.000 A 
ATOM     11  C   UNL     1      -0.144  15.931  22.851  0.00  0.00    +0.000 A 
ATOM     12  C   UNL     1      -1.502  15.975  23.137  0.00  0.00    +0.000 A 
ATOM     13  C   UNL     1      -2.353  15.354  22.274  0.00  0.00    +0.000 A 
ATOM     14  C   UNL     1      -1.844  14.217  21.646  0.00  0.00    +0.000 A 
ATOM     15  C   UNL     1      -0.438  13.894  21.567  0.00  0.00    +0.000 A 
ENDROOT
BRANCH   9  16
ATOM     16  N   UNL     1       2.658  15.594  22.108  0.00  0.00    +0.000 N 
ATOM     17  H   UNL     1       2.674  16.523  21.722  0.00  0.00    +0.000 HD
ATOM     18  H   UNL     1       2.599  15.676  23.144  0.00  0.00    +0.000 HD
ENDBRANCH   9  16
BRANCH   1  20
ATOM     19  C   UNL     1       2.422   7.747  18.597  0.00  0.00    +0.000 C 
ATOM     20  C   UNL     1       1.794   8.761  17.837  0.00  0.00    +0.000 C 
BRANCH  19  25
ATOM     21  C   UNL     1       4.840   4.923  16.916  0.00  0.00    +0.000 A 
ATOM     22  C   UNL     1       5.106   4.029  17.953  0.00  0.00    +0.000 A 
ATOM     23  C   UNL     1       4.651   4.373  19.220  0.00  0.00    +0.000 A 
ATOM     24  C   UNL     1       3.859   5.567  19.428  0.00  0.00    +0.000 A 
ATOM     25  C   UNL     1       3.464   6.477  18.377  0.00  0.00    +0.000 A 
ATOM     26  C   UNL     1       4.038   6.115  17.140  0.00  0.00    +0.000 A 
BRANCH  21  30
ATOM     27  C   UNL     1       6.941   4.586  13.796  0.00  0.00    +0.000 C 
ATOM     28  C   UNL     1       6.574   5.060  15.180  0.00  0.00    +0.000 C 
ATOM     29  O   UNL     1       7.342   5.757  15.819  0.00  0.00    +0.000 OA
ATOM     30  N   UNL     1       5.340   4.607  15.628  0.00  0.00    +0.000 N 
ATOM     31  H   UNL     1       4.879   3.871  15.099  0.00  0.00    +0.000 HD
ENDBRANCH  21  30
ENDBRANCH  19  25
ENDBRANCH   1  20
BRANCH   5  32
ATOM     32  C   UNL     1       0.285  10.381  22.054  0.00  0.00    +0.000 C 
ATOM     33 CL   UNL     1      -0.620   9.558  23.336  0.00  0.00    +0.000 Cl
ENDBRANCH   5  32
TORSDOF 5
ENDMDL
MODEL 6
REMARK VINA RESULT:      -7.9      3.071      4.382
REMARK  Name = 
REMARK  6 active torsions:
REMARK  status: ('A' for Active; 'I' for Inactive)
REMARK    1  A    between atoms: C_1  and  C_2
REMARK    2  A    between atoms: N_4  and  C_5
REMARK    3  A    between atoms: C_9  and  C_10
REMARK    4  A    between atoms: C_11  and  C_12
REMARK    5  A    between atoms: C_16  and  C_17
REMARK    6  A    between atoms: C_22  and  N_23
REMARK                            x       y       z     vdW  Elec       q    Type
REMARK                         _______ _______ _______ _____ _____    ______ ____
ROOT
ATOM      1  C   UNL     1       1.274   9.439  18.026  0.00  0.00    +0.000 C 
ATOM      2  O   UNL     1       0.445   9.001  17.212  0.00  0.00    +0.000 OA
ATOM      3  N   UNL     1       0.811  10.242  19.270  0.00  0.00    +0.000 N 
ATOM      4  C   UNL     1      -0.590  10.259  19.132  0.00  0.00    +0.000 C 
ATOM      5  C   UNL     1      -0.892  10.282  20.581  0.00  0.00    +0.000 C 
ATOM      6  C   UNL     1      -0.406  11.719  20.571  0.00  0.00    +0.000 A 
ATOM      7  C   UNL     1       1.059  11.697  20.138  0.00  0.00    +0.000 A 
ATOM      8  C   UNL     1       1.198  12.919  20.888  0.00  0.00    +0.000 A 
ATOM      9  C   UNL     1       0.232  14.032  21.529  0.00  0.00    +0.000 A 
ATOM     10  C   UNL     1      -1.157  13.862  21.586  0.00  0.00    +0.000 A 
ATOM     11  C   UNL     1      -2.153  14.652  22.273  0.00  0.00    +0.000 A 
ATOM     12  C   UNL     1      -3.494  14.294  22.215  0.00  0.00    +0.000 A 
ATOM     13  C   UNL     1      -3.900  13.519  21.172  0.00  0.00    +0.000 A 
ATOM     14  C   UNL     1      -2.951  12.615  20.693  0.00  0.00    +0.000 A 
ATOM     15  C   UNL     1      -1.535  12.706  20.964  0.00  0.00    +0.000 A 
ENDROOT
BRANCH   9  16
ATOM     16  N   UNL     1       0.719  15.167  22.242  0.00  0.00    +0.000 N 
ATOM     17  H   UNL     1       0.956  16.001  21.732  0.00  0.00    +0.000 HD
ATOM     18  H   UNL     1       0.075  15.432  23.015  0.00  0.00    +0.000 HD
ENDBRANCH   9  16
BRANCH   1  20
ATOM     19  C   UNL     1       3.291   7.310  17.895  0.00  0.00    +0.000 C 
ATOM     20  C   UNL     1       2.899   8.669  17.918  0.00  0.00    +0.000 C 
BRANCH  19  25
ATOM     21  C   UNL     1       6.558   5.520  16.233  0.00  0.00    +0.000 A 
ATOM     22  C   UNL     1       6.940   4.555  17.165  0.00  0.00    +0.000 A 
ATOM     23  C   UNL     1       6.270   4.548  18.382  0.00  0.00    +0.000 A 
ATOM     24  C   UNL     1       5.165   5.451  18.628  0.00  0.00    +0.000 A 
ATOM     25  C   UNL     1       4.658   6.401  17.665  0.00  0.00    +0.000 A 
ATOM     26  C   UNL     1       5.443   6.415  16.494  0.00  0.00    +0.000 A 
BRANCH  21  30
ATOM     27  C   UNL     1       7.749   5.031  12.682  0.00  0.00    +0.000 C 
ATOM     28  C   UNL     1       6.889   4.813  13.902  0.00  0.00    +0.000 C 
ATOM     29  O   UNL     1       5.940   4.050  13.863  0.00  0.00    +0.000 OA
ATOM     30  N   UNL     1       7.266   5.568  15.005  0.00  0.00    +0.000 N 
ATOM     31  H   UNL     1       7.939   6.317  14.866  0.00  0.00    +0.000 HD
ENDBRANCH  21  30
ENDBRANCH  19  25
ENDBRANCH   1  20
BRANCH   5  32
ATOM     32  C   UNL     1       0.035   9.513  21.627  0.00  0.00    +0.000 C 
ATOM     33 CL   UNL     1      -0.372   9.884  23.312  0.00  0.00    +0.000 Cl
ENDBRANCH   5  32
TORSDOF 5
ENDMDL
MODEL 7
REMARK VINA RESULT:      -7.9      2.402      3.307
REMARK  Name = 
REMARK  6 active torsions:
REMARK  status: ('A' for Active; 'I' for Inactive)
REMARK    1  A    between atoms: C_1  and  C_2
REMARK    2  A    between atoms: N_4  and  C_5
REMARK    3  A    between atoms: C_9  and  C_10
REMARK    4  A    between atoms: C_11  and  C_12
REMARK    5  A    between atoms: C_16  and  C_17
REMARK    6  A    between atoms: C_22  and  N_23
REMARK                            x       y       z     vdW  Elec       q    Type
REMARK                         _______ _______ _______ _____ _____    ______ ____
ROOT
ATOM      1  C   UNL     1       0.891   9.127  20.321  0.00  0.00    +0.000 C 
ATOM      2  O   UNL     1       1.220   9.254  21.512  0.00  0.00    +0.000 OA
ATOM      3  N   UNL     1      -0.116  10.111  19.671  0.00  0.00    +0.000 N 
ATOM      4  C   UNL     1      -0.422  10.993  20.725  0.00  0.00    +0.000 C 
ATOM      5  C   UNL     1      -0.657  12.181  19.875  0.00  0.00    +0.000 C 
ATOM      6  C   UNL     1      -1.946  11.509  19.443  0.00  0.00    +0.000 A 
ATOM      7  C   UNL     1      -1.563  10.196  18.760  0.00  0.00    +0.000 A 
ATOM      8  C   UNL     1      -2.797  10.329  18.027  0.00  0.00    +0.000 A 
ATOM      9  C   UNL     1      -4.151  11.186  18.136  0.00  0.00    +0.000 A 
ATOM     10  C   UNL     1      -4.294  12.234  19.054  0.00  0.00    +0.000 A 
ATOM     11  C   UNL     1      -5.347  13.217  19.174  0.00  0.00    +0.000 A 
ATOM     12  C   UNL     1      -5.283  14.196  20.157  0.00  0.00    +0.000 A 
ATOM     13  C   UNL     1      -4.513  13.948  21.251  0.00  0.00    +0.000 A 
ATOM     14  C   UNL     1      -3.381  13.166  21.021  0.00  0.00    +0.000 A 
ATOM     15  C   UNL     1      -3.189  12.339  19.852  0.00  0.00    +0.000 A 
ENDROOT
BRANCH   9  16
ATOM     16  N   UNL     1      -5.221  11.072  17.199  0.00  0.00    +0.000 N 
ATOM     17  H   UNL     1      -5.869  11.835  17.100  0.00  0.00    +0.000 HD
ATOM     18  H   UNL     1      -4.869  10.822  16.252  0.00  0.00    +0.000 HD
ENDBRANCH   9  16
BRANCH   1  20
ATOM     19  C   UNL     1       2.416   6.751  19.518  0.00  0.00    +0.000 C 
ATOM     20  C   UNL     1       2.002   8.093  19.350  0.00  0.00    +0.000 C 
BRANCH  19  25
ATOM     21  C   UNL     1       4.687   4.795  16.750  0.00  0.00    +0.000 A 
ATOM     22  C   UNL     1       4.594   3.450  17.108  0.00  0.00    +0.000 A 
ATOM     23  C   UNL     1       3.938   3.154  18.296  0.00  0.00    +0.000 A 
ATOM     24  C   UNL     1       3.307   4.197  19.078  0.00  0.00    +0.000 A 
ATOM     25  C   UNL     1       3.282   5.593  18.706  0.00  0.00    +0.000 A 
ATOM     26  C   UNL     1       4.043   5.829  17.542  0.00  0.00    +0.000 A 
BRANCH  21  30
ATOM     27  C   UNL     1       7.326   5.295  14.094  0.00  0.00    +0.000 C 
ATOM     28  C   UNL     1       6.766   4.930  15.446  0.00  0.00    +0.000 C 
ATOM     29  O   UNL     1       7.495   4.488  16.319  0.00  0.00    +0.000 OA
ATOM     30  N   UNL     1       5.396   5.114  15.563  0.00  0.00    +0.000 N 
ATOM     31  H   UNL     1       4.862   5.290  14.717  0.00  0.00    +0.000 HD
ENDBRANCH  21  30
ENDBRANCH  19  25
ENDBRANCH   1  20
BRANCH   5  32
ATOM     32  C   UNL     1       0.183  12.418  18.540  0.00  0.00    +0.000 C 
ATOM     33 CL   UNL     1       1.901  12.721  18.852  0.00  0.00    +0.000 Cl
ENDBRANCH   5  32
TORSDOF 5
ENDMDL
MODEL 8
REMARK VINA RESULT:      -7.9      8.987     10.576
REMARK  Name = 
REMARK  6 active torsions:
REMARK  status: ('A' for Active; 'I' for Inactive)
REMARK    1  A    between atoms: C_1  and  C_2
REMARK    2  A    between atoms: N_4  and  C_5
REMARK    3  A    between atoms: C_9  and  C_10
REMARK    4  A    between atoms: C_11  and  C_12
REMARK    5  A    between atoms: C_16  and  C_17
REMARK    6  A    between atoms: C_22  and  N_23
REMARK                            x       y       z     vdW  Elec       q    Type
REMARK                         _______ _______ _______ _____ _____    ______ ____
ROOT
ATOM      1  C   UNL     1       8.895  10.110  18.937  0.00  0.00    +0.000 C 
ATOM      2  O   UNL     1       9.492   9.530  19.858  0.00  0.00    +0.000 OA
ATOM      3  N   UNL     1       9.220  11.586  18.591  0.00  0.00    +0.000 N 
ATOM      4  C   UNL     1      10.226  11.915  19.518  0.00  0.00    +0.000 C 
ATOM      5  C   UNL     1      10.933  12.883  18.650  0.00  0.00    +0.000 C 
ATOM      6  C   UNL     1       9.761  13.817  18.886  0.00  0.00    +0.000 A 
ATOM      7  C   UNL     1       8.515  13.125  18.333  0.00  0.00    +0.000 A 
ATOM      8  C   UNL     1       7.982  14.450  18.143  0.00  0.00    +0.000 A 
ATOM      9  C   UNL     1       8.312  15.942  18.641  0.00  0.00    +0.000 A 
ATOM     10  C   UNL     1       9.480  16.243  19.353  0.00  0.00    +0.000 A 
ATOM     11  C   UNL     1      10.028  17.530  19.720  0.00  0.00    +0.000 A 
ATOM     12  C   UNL     1      11.225  17.608  20.420  0.00  0.00    +0.000 A 
ATOM     13  C   UNL     1      11.611  16.519  21.140  0.00  0.00    +0.000 A 
ATOM     14  C   UNL     1      11.233  15.285  20.609  0.00  0.00    +0.000 A 
ATOM     15  C   UNL     1      10.200  15.112  19.614  0.00  0.00    +0.000 A 
ENDROOT
BRANCH   9  16
ATOM     16  N   UNL     1       7.552  17.081  18.241  0.00  0.00    +0.000 N 
ATOM     17  H   UNL     1       6.947  17.525  18.911  0.00  0.00    +0.000 HD
ATOM     18  H   UNL     1       8.161  17.813  17.821  0.00  0.00    +0.000 HD
ENDBRANCH   9  16
BRANCH   1  20
ATOM     19  C   UNL     1       7.673   7.649  17.904  0.00  0.00    +0.000 C 
ATOM     20  C   UNL     1       8.055   9.005  17.788  0.00  0.00    +0.000 C 
BRANCH  19  25
ATOM     21  C   UNL     1       4.767   5.027  16.751  0.00  0.00    +0.000 A 
ATOM     22  C   UNL     1       5.356   4.277  15.733  0.00  0.00    +0.000 A 
ATOM     23  C   UNL     1       6.616   4.674  15.301  0.00  0.00    +0.000 A 
ATOM     24  C   UNL     1       7.314   5.766  15.945  0.00  0.00    +0.000 A 
ATOM     25  C   UNL     1       6.799   6.514  17.069  0.00  0.00    +0.000 A 
ATOM     26  C   UNL     1       5.484   6.118  17.391  0.00  0.00    +0.000 A 
BRANCH  21  30
ATOM     27  C   UNL     1       1.783   3.552  18.535  0.00  0.00    +0.000 C 
ATOM     28  C   UNL     1       3.240   3.787  18.223  0.00  0.00    +0.000 C 
ATOM     29  O   UNL     1       4.109   3.251  18.889  0.00  0.00    +0.000 OA
ATOM     30  N   UNL     1       3.462   4.662  17.169  0.00  0.00    +0.000 N 
ATOM     31  H   UNL     1       2.676   5.204  16.822  0.00  0.00    +0.000 HD
ENDBRANCH  21  30
ENDBRANCH  19  25
ENDBRANCH   1  20
BRANCH   5  32
ATOM     32  C   UNL     1      11.012  12.668  17.072  0.00  0.00    +0.000 C 
ATOM     33 CL   UNL     1      11.466  14.141  16.197  0.00  0.00    +0.000 Cl
ENDBRANCH   5  32
TORSDOF 5
ENDMDL
MODEL 9
REMARK VINA RESULT:      -7.9      2.332      3.052
REMARK  Name = 
REMARK  6 active torsions:
REMARK  status: ('A' for Active; 'I' for Inactive)
REMARK    1  A    between atoms: C_1  and  C_2
REMARK    2  A    between atoms: N_4  and  C_5
REMARK    3  A    between atoms: C_9  and  C_10
REMARK    4  A    between atoms: C_11  and  C_12
REMARK    5  A    between atoms: C_16  and  C_17
REMARK    6  A    between atoms: C_22  and  N_23
REMARK                            x       y       z     vdW  Elec       q    Type
REMARK                         _______ _______ _______ _____ _____    ______ ____
ROOT
ATOM      1  C   UNL     1       0.195  12.913  20.444  0.00  0.00    +0.000 C 
ATOM      2  O   UNL     1       0.622  13.961  19.932  0.00  0.00    +0.000 OA
ATOM      3  N   UNL     1      -1.279  12.807  20.915  0.00  0.00    +0.000 N 
ATOM      4  C   UNL     1      -1.805  14.073  20.596  0.00  0.00    +0.000 C 
ATOM      5  C   UNL     1      -3.186  13.610  20.331  0.00  0.00    +0.000 C 
ATOM      6  C   UNL     1      -3.315  13.418  21.830  0.00  0.00    +0.000 A 
ATOM      7  C   UNL     1      -2.271  12.381  22.243  0.00  0.00    +0.000 A 
ATOM      8  C   UNL     1      -3.154  12.072  23.340  0.00  0.00    +0.000 A 
ATOM      9  C   UNL     1      -4.420  12.744  24.066  0.00  0.00    +0.000 A 
ATOM     10  C   UNL     1      -5.060  13.875  23.543  0.00  0.00    +0.000 A 
ATOM     11  C   UNL     1      -6.299  14.500  23.947  0.00  0.00    +0.000 A 
ATOM     12  C   UNL     1      -6.771  15.618  23.272  0.00  0.00    +0.000 A 
ATOM     13  C   UNL     1      -5.872  16.369  22.579  0.00  0.00    +0.000 A 
ATOM     14  C   UNL     1      -4.804  15.663  22.024  0.00  0.00    +0.000 A 
ATOM     15  C   UNL     1      -4.412  14.333  22.431  0.00  0.00    +0.000 A 
ENDROOT
BRANCH   9  16
ATOM     16  N   UNL     1      -5.091  12.143  25.172  0.00  0.00    +0.000 N 
ATOM     17  H   UNL     1      -6.097  12.136  25.190  0.00  0.00    +0.000 HD
ATOM     18  H   UNL     1      -4.758  11.170  25.333  0.00  0.00    +0.000 HD
ENDBRANCH   9  16
BRANCH   1  20
ATOM     19  C   UNL     1       0.883  10.126  19.831  0.00  0.00    +0.000 C 
ATOM     20  C   UNL     1       1.221  11.465  20.136  0.00  0.00    +0.000 C 
BRANCH  19  25
ATOM     21  C   UNL     1       2.509   6.385  19.870  0.00  0.00    +0.000 A 
ATOM     22  C   UNL     1       3.207   6.293  18.666  0.00  0.00    +0.000 A 
ATOM     23  C   UNL     1       3.061   7.343  17.768  0.00  0.00    +0.000 A 
ATOM     24  C   UNL     1       2.286   8.517  18.113  0.00  0.00    +0.000 A 
ATOM     25  C   UNL     1       1.626   8.713  19.384  0.00  0.00    +0.000 A 
ATOM     26  C   UNL     1       1.740   7.572  20.205  0.00  0.00    +0.000 A 
BRANCH  21  30
ATOM     27  C   UNL     1       2.016   3.166  21.785  0.00  0.00    +0.000 C 
ATOM     28  C   UNL     1       1.715   4.239  20.768  0.00  0.00    +0.000 C 
ATOM     29  O   UNL     1       0.767   4.125  20.010  0.00  0.00    +0.000 OA
ATOM     30  N   UNL     1       2.613   5.298  20.776  0.00  0.00    +0.000 N 
ATOM     31  H   UNL     1       3.474   5.192  21.305  0.00  0.00    +0.000 HD
ENDBRANCH  21  30
ENDBRANCH  19  25
ENDBRANCH   1  20
BRANCH   5  32
ATOM     32  C   UNL     1      -3.464  12.182  19.680  0.00  0.00    +0.000 C 
ATOM     33 CL   UNL     1      -2.562  11.922  18.176  0.00  0.00    +0.000 Cl
ENDBRANCH   5  32
TORSDOF 5
ENDMDL
