MODEL 1
REMARK VINA RESULT:      -7.8      0.000      0.000
REMARK  Name = 
REMARK  6 active torsions:
REMARK  status: ('A' for Active; 'I' for Inactive)
REMARK    1  A    between atoms: C_1  and  C_2
REMARK    2  A    between atoms: C_2  and  N_3
REMARK    3  A    between atoms: N_3  and  C_4
REMARK    4  A    between atoms: C_8  and  C_9
REMARK    5  A    between atoms: C_9  and  N_10
REMARK    6  A    between atoms: N_10  and  C_11
REMARK                            x       y       z     vdW  Elec       q    Type
REMARK                         _______ _______ _______ _____ _____    ______ ____
ROOT
ATOM      1  N   UNL     1       2.835   7.482  18.833  0.00  0.00    +0.000 NA
ATOM      2  H   UNL     1       2.228   7.327  19.641  0.00  0.00    +0.000 HD
ENDROOT
BRANCH   1   3
ATOM      3  C   UNL     1       2.918   6.204  18.094  0.00  0.00    +0.000 C 
ATOM      4  C   UNL     1       4.378   5.812  17.765  0.00  0.00    +0.000 C 
ATOM      5  C   UNL     1       4.506   4.799  16.621  0.00  0.00    +0.000 C 
ATOM      6  C   UNL     1       3.841   3.458  16.900  0.00  0.00    +0.000 C 
ATOM      7  O   UNL     1       2.421   3.611  16.972  0.00  0.00    +0.000 OA
ATOM      8  C   UNL     1       2.041   3.822  18.271  0.00  0.00    +0.000 A 
ATOM      9  C   UNL     1       1.427   2.774  18.959  0.00  0.00    +0.000 A 
ATOM     10  F   UNL     1       1.243   1.588  18.359  0.00  0.00    +0.000 F 
ATOM     11  C   UNL     1       1.033   2.927  20.281  0.00  0.00    +0.000 A 
ATOM     12  C   UNL     1       1.250   4.144  20.919  0.00  0.00    +0.000 A 
ATOM     13  C   UNL     1       1.858   5.201  20.229  0.00  0.00    +0.000 A 
ATOM     14  C   UNL     1       2.255   5.068  18.883  0.00  0.00    +0.000 A 
ENDBRANCH   1   3
BRANCH   1  15
ATOM     15  C   UNL     1       2.249   8.588  18.070  0.00  0.00    +0.000 C 
BRANCH  15  21
ATOM     16  N   UNL     1      -1.439  11.640  21.156  0.00  0.00    +0.000 N 
ATOM     17  C   UNL     1      -2.089  12.716  20.415  0.00  0.00    +0.000 C 
ATOM     18  C   UNL     1      -0.539  10.869  20.425  0.00  0.00    +0.000 A 
ATOM     19  C   UNL     1       0.117   9.774  20.991  0.00  0.00    +0.000 A 
ATOM     20  C   UNL     1       1.020   9.024  20.240  0.00  0.00    +0.000 A 
ATOM     21  C   UNL     1       1.260   9.353  18.909  0.00  0.00    +0.000 A 
ATOM     22  C   UNL     1       0.562  10.441  18.410  0.00  0.00    +0.000 A 
ATOM     23  N   UNL     1      -0.317  11.181  19.126  0.00  0.00    +0.000 NA
BRANCH  16  25
ATOM     24  C   UNL     1      -2.621  12.079  23.304  0.00  0.00    +0.000 C 
ATOM     25  C   UNL     1      -1.296  11.806  22.603  0.00  0.00    +0.000 C 
ENDBRANCH  16  25
ENDBRANCH  15  21
ENDBRANCH   1  15
TORSDOF 4
ENDMDL
MODEL 2
REMARK VINA RESULT:      -7.6      0.789      1.300
REMARK  Name = 
REMARK  6 active torsions:
REMARK  status: ('A' for Active; 'I' for Inactive)
REMARK    1  A    between atoms: C_1  and  C_2
REMARK    2  A    between atoms: C_2  and  N_3
REMARK    3  A    between atoms: N_3  and  C_4
REMARK    4  A    between atoms: C_8  and  C_9
REMARK    5  A    between atoms: C_9  and  N_10
REMARK    6  A    between atoms: N_10  and  C_11
REMARK                            x       y       z     vdW  Elec       q    Type
REMARK                         _______ _______ _______ _____ _____    ______ ____
ROOT
ATOM      1  N   UNL     1       3.028   7.378  18.644  0.00  0.00    +0.000 NA
ATOM      2  H   UNL     1       2.615   7.225  19.566  0.00  0.00    +0.000 HD
ENDROOT
BRANCH   1   3
ATOM      3  C   UNL     1       3.125   6.059  17.982  0.00  0.00    +0.000 C 
ATOM      4  C   UNL     1       4.593   5.629  17.746  0.00  0.00    +0.000 C 
ATOM      5  C   UNL     1       4.758   4.552  16.668  0.00  0.00    +0.000 C 
ATOM      6  C   UNL     1       4.059   3.239  16.987  0.00  0.00    +0.000 C 
ATOM      7  O   UNL     1       2.640   3.415  16.982  0.00  0.00    +0.000 OA
ATOM      8  C   UNL     1       2.202   3.703  18.248  0.00  0.00    +0.000 A 
ATOM      9  C   UNL     1       1.538   2.704  18.962  0.00  0.00    +0.000 A 
ATOM     10  F   UNL     1       1.363   1.489  18.421  0.00  0.00    +0.000 F 
ATOM     11  C   UNL     1       1.084   2.937  20.252  0.00  0.00    +0.000 A 
ATOM     12  C   UNL     1       1.290   4.184  20.832  0.00  0.00    +0.000 A 
ATOM     13  C   UNL     1       1.948   5.193  20.114  0.00  0.00    +0.000 A 
ATOM     14  C   UNL     1       2.407   4.979  18.799  0.00  0.00    +0.000 A 
ENDBRANCH   1   3
BRANCH   1  15
ATOM     15  C   UNL     1       2.170   8.343  17.952  0.00  0.00    +0.000 C 
BRANCH  15  21
ATOM     16  N   UNL     1      -0.796  11.369  21.760  0.00  0.00    +0.000 N 
ATOM     17  C   UNL     1      -0.865  10.757  23.082  0.00  0.00    +0.000 C 
ATOM     18  C   UNL     1      -0.068  10.658  20.809  0.00  0.00    +0.000 A 
ATOM     19  C   UNL     1       0.125  11.147  19.516  0.00  0.00    +0.000 A 
ATOM     20  C   UNL     1       0.851  10.410  18.580  0.00  0.00    +0.000 A 
ATOM     21  C   UNL     1       1.404   9.184  18.939  0.00  0.00    +0.000 A 
ATOM     22  C   UNL     1       1.186   8.770  20.242  0.00  0.00    +0.000 A 
ATOM     23  N   UNL     1       0.483   9.472  21.162  0.00  0.00    +0.000 NA
BRANCH  16  25
ATOM     24  C   UNL     1      -2.837  12.579  22.517  0.00  0.00    +0.000 C 
ATOM     25  C   UNL     1      -1.890  12.259  21.367  0.00  0.00    +0.000 C 
ENDBRANCH  16  25
ENDBRANCH  15  21
ENDBRANCH   1  15
TORSDOF 4
ENDMDL
MODEL 3
REMARK VINA RESULT:      -7.6      1.777      3.527
REMARK  Name = 
REMARK  6 active torsions:
REMARK  status: ('A' for Active; 'I' for Inactive)
REMARK    1  A    between atoms: C_1  and  C_2
REMARK    2  A    between atoms: C_2  and  N_3
REMARK    3  A    between atoms: N_3  and  C_4
REMARK    4  A    between atoms: C_8  and  C_9
REMARK    5  A    between atoms: C_9  and  N_10
REMARK    6  A    between atoms: N_10  and  C_11
REMARK                            x       y       z     vdW  Elec       q    Type
REMARK                         _______ _______ _______ _____ _____    ______ ____
ROOT
ATOM      1  N   UNL     1       3.057   6.361  20.049  0.00  0.00    +0.000 NA
ATOM      2  H   UNL     1       3.747   6.347  20.803  0.00  0.00    +0.000 HD
ENDROOT
BRANCH   1   3
ATOM      3  C   UNL     1       3.191   5.089  19.307  0.00  0.00    +0.000 C 
ATOM      4  C   UNL     1       1.817   4.467  18.961  0.00  0.00    +0.000 C 
ATOM      5  C   UNL     1       1.879   2.968  18.642  0.00  0.00    +0.000 C 
ATOM      6  C   UNL     1       2.732   2.623  17.430  0.00  0.00    +0.000 C 
ATOM      7  O   UNL     1       4.109   2.903  17.694  0.00  0.00    +0.000 OA
ATOM      8  C   UNL     1       4.415   4.171  17.275  0.00  0.00    +0.000 A 
ATOM      9  C   UNL     1       5.163   4.318  16.104  0.00  0.00    +0.000 A 
ATOM     10  F   UNL     1       5.542   3.239  15.405  0.00  0.00    +0.000 F 
ATOM     11  C   UNL     1       5.491   5.579  15.627  0.00  0.00    +0.000 A 
ATOM     12  C   UNL     1       5.072   6.704  16.331  0.00  0.00    +0.000 A 
ATOM     13  C   UNL     1       4.330   6.559  17.511  0.00  0.00    +0.000 A 
ATOM     14  C   UNL     1       3.996   5.287  18.017  0.00  0.00    +0.000 A 
ENDBRANCH   1   3
BRANCH   1  15
ATOM     15  C   UNL     1       1.749   6.563  20.678  0.00  0.00    +0.000 C 
BRANCH  15  21
ATOM     16  N   UNL     1      -0.295  11.818  19.869  0.00  0.00    +0.000 N 
ATOM     17  C   UNL     1      -1.127  12.308  20.963  0.00  0.00    +0.000 C 
ATOM     18  C   UNL     1       0.228  10.539  20.042  0.00  0.00    +0.000 A 
ATOM     19  C   UNL     1       1.082   9.962  19.100  0.00  0.00    +0.000 A 
ATOM     20  C   UNL     1       1.585   8.676  19.294  0.00  0.00    +0.000 A 
ATOM     21  C   UNL     1       1.251   7.965  20.443  0.00  0.00    +0.000 A 
ATOM     22  C   UNL     1       0.414   8.606  21.340  0.00  0.00    +0.000 A 
ATOM     23  N   UNL     1      -0.085   9.853  21.166  0.00  0.00    +0.000 NA
BRANCH  16  25
ATOM     24  C   UNL     1      -1.838  11.841  17.913  0.00  0.00    +0.000 C 
ATOM     25  C   UNL     1      -0.546  12.360  18.532  0.00  0.00    +0.000 C 
ENDBRANCH  16  25
ENDBRANCH  15  21
ENDBRANCH   1  15
TORSDOF 4
ENDMDL
MODEL 4
REMARK VINA RESULT:      -7.5      3.619      8.234
REMARK  Name = 
REMARK  6 active torsions:
REMARK  status: ('A' for Active; 'I' for Inactive)
REMARK    1  A    between atoms: C_1  and  C_2
REMARK    2  A    between atoms: C_2  and  N_3
REMARK    3  A    between atoms: N_3  and  C_4
REMARK    4  A    between atoms: C_8  and  C_9
REMARK    5  A    between atoms: C_9  and  N_10
REMARK    6  A    between atoms: N_10  and  C_11
REMARK                            x       y       z     vdW  Elec       q    Type
REMARK                         _______ _______ _______ _____ _____    ______ ____
ROOT
ATOM      1  N   UNL     1       4.048   6.594  17.578  0.00  0.00    +0.000 NA
ATOM      2  H   UNL     1       3.529   6.093  16.854  0.00  0.00    +0.000 HD
ENDROOT
BRANCH   1   3
ATOM      3  C   UNL     1       3.288   6.454  18.839  0.00  0.00    +0.000 C 
ATOM      4  C   UNL     1       2.273   7.605  19.042  0.00  0.00    +0.000 C 
ATOM      5  C   UNL     1       1.823   7.786  20.496  0.00  0.00    +0.000 C 
ATOM      6  C   UNL     1       1.101   6.580  21.079  0.00  0.00    +0.000 C 
ATOM      7  O   UNL     1       1.999   5.474  21.207  0.00  0.00    +0.000 OA
ATOM      8  C   UNL     1       1.938   4.693  20.084  0.00  0.00    +0.000 A 
ATOM      9  C   UNL     1       1.269   3.470  20.165  0.00  0.00    +0.000 A 
ATOM     10  F   UNL     1       0.684   3.094  21.312  0.00  0.00    +0.000 F 
ATOM     11  C   UNL     1       1.165   2.643  19.055  0.00  0.00    +0.000 A 
ATOM     12  C   UNL     1       1.742   3.042  17.853  0.00  0.00    +0.000 A 
ATOM     13  C   UNL     1       2.422   4.264  17.771  0.00  0.00    +0.000 A 
ATOM     14  C   UNL     1       2.547   5.112  18.890  0.00  0.00    +0.000 A 
ENDBRANCH   1   3
BRANCH   1  15
ATOM     15  C   UNL     1       5.393   6.014  17.612  0.00  0.00    +0.000 C 
BRANCH  15  21
ATOM     16  N   UNL     1       6.594   3.581  12.604  0.00  0.00    +0.000 N 
ATOM     17  C   UNL     1       7.436   4.395  11.733  0.00  0.00    +0.000 C 
ATOM     18  C   UNL     1       6.292   4.144  13.841  0.00  0.00    +0.000 A 
ATOM     19  C   UNL     1       5.538   3.458  14.795  0.00  0.00    +0.000 A 
ATOM     20  C   UNL     1       5.242   4.049  16.023  0.00  0.00    +0.000 A 
ATOM     21  C   UNL     1       5.714   5.327  16.311  0.00  0.00    +0.000 A 
ATOM     22  C   UNL     1       6.468   5.941  15.324  0.00  0.00    +0.000 A 
ATOM     23  N   UNL     1       6.763   5.381  14.127  0.00  0.00    +0.000 NA
BRANCH  16  25
ATOM     24  C   UNL     1       4.418   3.262  11.436  0.00  0.00    +0.000 C 
ATOM     25  C   UNL     1       5.692   2.620  11.967  0.00  0.00    +0.000 C 
ENDBRANCH  16  25
ENDBRANCH  15  21
ENDBRANCH   1  15
TORSDOF 4
ENDMDL
MODEL 5
REMARK VINA RESULT:      -7.5      4.521      8.276
REMARK  Name = 
REMARK  6 active torsions:
REMARK  status: ('A' for Active; 'I' for Inactive)
REMARK    1  A    between atoms: C_1  and  C_2
REMARK    2  A    between atoms: C_2  and  N_3
REMARK    3  A    between atoms: N_3  and  C_4
REMARK    4  A    between atoms: C_8  and  C_9
REMARK    5  A    between atoms: C_9  and  N_10
REMARK    6  A    between atoms: N_10  and  C_11
REMARK                            x       y       z     vdW  Elec       q    Type
REMARK                         _______ _______ _______ _____ _____    ______ ____
ROOT
ATOM      1  N   UNL     1       5.798   4.947  18.726  0.00  0.00    +0.000 NA
ATOM      2  H   UNL     1       6.546   4.994  19.421  0.00  0.00    +0.000 HD
ENDROOT
BRANCH   1   3
ATOM      3  C   UNL     1       4.527   5.229  19.428  0.00  0.00    +0.000 C 
ATOM      4  C   UNL     1       3.739   6.386  18.769  0.00  0.00    +0.000 C 
ATOM      5  C   UNL     1       2.700   7.034  19.693  0.00  0.00    +0.000 C 
ATOM      6  C   UNL     1       1.603   6.086  20.157  0.00  0.00    +0.000 C 
ATOM      7  O   UNL     1       2.144   5.080  21.017  0.00  0.00    +0.000 OA
ATOM      8  C   UNL     1       2.485   3.975  20.283  0.00  0.00    +0.000 A 
ATOM      9  C   UNL     1       1.666   2.847  20.365  0.00  0.00    +0.000 A 
ATOM     10  F   UNL     1       0.561   2.868  21.126  0.00  0.00    +0.000 F 
ATOM     11  C   UNL     1       1.957   1.704  19.634  0.00  0.00    +0.000 A 
ATOM     12  C   UNL     1       3.083   1.687  18.817  0.00  0.00    +0.000 A 
ATOM     13  C   UNL     1       3.913   2.814  18.740  0.00  0.00    +0.000 A 
ATOM     14  C   UNL     1       3.640   3.980  19.483  0.00  0.00    +0.000 A 
ENDBRANCH   1   3
BRANCH   1  15
ATOM     15  C   UNL     1       6.137   5.909  17.675  0.00  0.00    +0.000 C 
BRANCH  15  21
ATOM     16  N   UNL     1       6.485   3.503  12.524  0.00  0.00    +0.000 N 
ATOM     17  C   UNL     1       7.290   4.256  11.567  0.00  0.00    +0.000 C 
ATOM     18  C   UNL     1       6.390   4.061  13.796  0.00  0.00    +0.000 A 
ATOM     19  C   UNL     1       5.695   3.424  14.826  0.00  0.00    +0.000 A 
ATOM     20  C   UNL     1       5.607   4.009  16.089  0.00  0.00    +0.000 A 
ATOM     21  C   UNL     1       6.231   5.229  16.335  0.00  0.00    +0.000 A 
ATOM     22  C   UNL     1       6.916   5.794  15.271  0.00  0.00    +0.000 A 
ATOM     23  N   UNL     1       7.009   5.240  14.039  0.00  0.00    +0.000 NA
BRANCH  16  25
ATOM     24  C   UNL     1       4.248   3.437  11.430  0.00  0.00    +0.000 C 
ATOM     25  C   UNL     1       5.425   2.647  11.989  0.00  0.00    +0.000 C 
ENDBRANCH  16  25
ENDBRANCH  15  21
ENDBRANCH   1  15
TORSDOF 4
ENDMDL
MODEL 6
REMARK VINA RESULT:      -7.4      1.754      3.179
REMARK  Name = 
REMARK  6 active torsions:
REMARK  status: ('A' for Active; 'I' for Inactive)
REMARK    1  A    between atoms: C_1  and  C_2
REMARK    2  A    between atoms: C_2  and  N_3
REMARK    3  A    between atoms: N_3  and  C_4
REMARK    4  A    between atoms: C_8  and  C_9
REMARK    5  A    between atoms: C_9  and  N_10
REMARK    6  A    between atoms: N_10  and  C_11
REMARK                            x       y       z     vdW  Elec       q    Type
REMARK                         _______ _______ _______ _____ _____    ______ ____
ROOT
ATOM      1  N   UNL     1       2.728   6.654  19.846  0.00  0.00    +0.000 NA
ATOM      2  H   UNL     1       3.568   6.925  20.361  0.00  0.00    +0.000 HD
ENDROOT
BRANCH   1   3
ATOM      3  C   UNL     1       2.982   5.321  19.258  0.00  0.00    +0.000 C 
ATOM      4  C   UNL     1       1.673   4.589  18.879  0.00  0.00    +0.000 C 
ATOM      5  C   UNL     1       1.832   3.071  18.730  0.00  0.00    +0.000 C 
ATOM      6  C   UNL     1       2.796   2.651  17.630  0.00  0.00    +0.000 C 
ATOM      7  O   UNL     1       4.132   3.034  17.964  0.00  0.00    +0.000 OA
ATOM      8  C   UNL     1       4.409   4.267  17.435  0.00  0.00    +0.000 A 
ATOM      9  C   UNL     1       5.240   4.334  16.314  0.00  0.00    +0.000 A 
ATOM     10  F   UNL     1       5.727   3.211  15.766  0.00  0.00    +0.000 F 
ATOM     11  C   UNL     1       5.544   5.555  15.729  0.00  0.00    +0.000 A 
ATOM     12  C   UNL     1       5.017   6.721  16.274  0.00  0.00    +0.000 A 
ATOM     13  C   UNL     1       4.190   6.658  17.404  0.00  0.00    +0.000 A 
ATOM     14  C   UNL     1       3.878   5.429  18.019  0.00  0.00    +0.000 A 
ENDBRANCH   1   3
BRANCH   1  15
ATOM     15  C   UNL     1       1.617   6.694  20.801  0.00  0.00    +0.000 C 
BRANCH  15  21
ATOM     16  N   UNL     1      -0.428  12.005  21.056  0.00  0.00    +0.000 N 
ATOM     17  C   UNL     1      -0.094  12.828  19.899  0.00  0.00    +0.000 C 
ATOM     18  C   UNL     1       0.049  10.697  21.018  0.00  0.00    +0.000 A 
ATOM     19  C   UNL     1      -0.237   9.782  22.034  0.00  0.00    +0.000 A 
ATOM     20  C   UNL     1       0.261   8.481  21.975  0.00  0.00    +0.000 A 
ATOM     21  C   UNL     1       1.035   8.080  20.890  0.00  0.00    +0.000 A 
ATOM     22  C   UNL     1       1.264   9.036  19.913  0.00  0.00    +0.000 A 
ATOM     23  N   UNL     1       0.790  10.303  19.955  0.00  0.00    +0.000 NA
BRANCH  16  25
ATOM     24  C   UNL     1      -2.144  12.851  22.652  0.00  0.00    +0.000 C 
ATOM     25  C   UNL     1      -0.663  12.690  22.328  0.00  0.00    +0.000 C 
ENDBRANCH  16  25
ENDBRANCH  15  21
ENDBRANCH   1  15
TORSDOF 4
ENDMDL
MODEL 7
REMARK VINA RESULT:      -7.4      1.011      1.171
REMARK  Name = 
REMARK  6 active torsions:
REMARK  status: ('A' for Active; 'I' for Inactive)
REMARK    1  A    between atoms: C_1  and  C_2
REMARK    2  A    between atoms: C_2  and  N_3
REMARK    3  A    between atoms: N_3  and  C_4
REMARK    4  A    between atoms: C_8  and  C_9
REMARK    5  A    between atoms: C_9  and  N_10
REMARK    6  A    between atoms: N_10  and  C_11
REMARK                            x       y       z     vdW  Elec       q    Type
REMARK                         _______ _______ _______ _____ _____    ______ ____
ROOT
ATOM      1  N   UNL     1       2.322   7.626  18.896  0.00  0.00    +0.000 NA
ATOM      2  H   UNL     1       1.437   7.421  19.364  0.00  0.00    +0.000 HD
ENDROOT
BRANCH   1   3
ATOM      3  C   UNL     1       2.730   6.402  18.173  0.00  0.00    +0.000 C 
ATOM      4  C   UNL     1       4.245   6.390  17.853  0.00  0.00    +0.000 C 
ATOM      5  C   UNL     1       4.631   5.429  16.721  0.00  0.00    +0.000 C 
ATOM      6  C   UNL     1       4.326   3.967  17.015  0.00  0.00    +0.000 C 
ATOM      7  O   UNL     1       2.913   3.756  17.081  0.00  0.00    +0.000 OA
ATOM      8  C   UNL     1       2.485   3.878  18.377  0.00  0.00    +0.000 A 
ATOM      9  C   UNL     1       2.152   2.716  19.076  0.00  0.00    +0.000 A 
ATOM     10  F   UNL     1       2.278   1.515  18.490  0.00  0.00    +0.000 F 
ATOM     11  C   UNL     1       1.725   2.779  20.394  0.00  0.00    +0.000 A 
ATOM     12  C   UNL     1       1.623   4.018  21.018  0.00  0.00    +0.000 A 
ATOM     13  C   UNL     1       1.947   5.187  20.317  0.00  0.00    +0.000 A 
ATOM     14  C   UNL     1       2.373   5.144  18.974  0.00  0.00    +0.000 A 
ENDBRANCH   1   3
BRANCH   1  15
ATOM     15  C   UNL     1       2.087   8.789  18.037  0.00  0.00    +0.000 C 
BRANCH  15  21
ATOM     16  N   UNL     1      -2.448  11.827  19.666  0.00  0.00    +0.000 N 
ATOM     17  C   UNL     1      -3.532  11.849  18.690  0.00  0.00    +0.000 C 
ATOM     18  C   UNL     1      -1.329  11.083  19.301  0.00  0.00    +0.000 A 
ATOM     19  C   UNL     1      -0.237  10.932  20.157  0.00  0.00    +0.000 A 
ATOM     20  C   UNL     1       0.875  10.189  19.763  0.00  0.00    +0.000 A 
ATOM     21  C   UNL     1       0.895   9.576  18.513  0.00  0.00    +0.000 A 
ATOM     22  C   UNL     1      -0.229   9.755  17.724  0.00  0.00    +0.000 A 
ATOM     23  N   UNL     1      -1.316  10.475  18.091  0.00  0.00    +0.000 NA
BRANCH  16  25
ATOM     24  C   UNL     1      -3.052  12.735  21.905  0.00  0.00    +0.000 C 
ATOM     25  C   UNL     1      -2.337  12.965  20.579  0.00  0.00    +0.000 C 
ENDBRANCH  16  25
ENDBRANCH  15  21
ENDBRANCH   1  15
TORSDOF 4
ENDMDL
MODEL 8
REMARK VINA RESULT:      -7.4      1.262      1.737
REMARK  Name = 
REMARK  6 active torsions:
REMARK  status: ('A' for Active; 'I' for Inactive)
REMARK    1  A    between atoms: C_1  and  C_2
REMARK    2  A    between atoms: C_2  and  N_3
REMARK    3  A    between atoms: N_3  and  C_4
REMARK    4  A    between atoms: C_8  and  C_9
REMARK    5  A    between atoms: C_9  and  N_10
REMARK    6  A    between atoms: N_10  and  C_11
REMARK                            x       y       z     vdW  Elec       q    Type
REMARK                         _______ _______ _______ _____ _____    ______ ____
ROOT
ATOM      1  N   UNL     1       2.155   7.468  19.009  0.00  0.00    +0.000 NA
ATOM      2  H   UNL     1       1.159   7.365  19.217  0.00  0.00    +0.000 HD
ENDROOT
BRANCH   1   3
ATOM      3  C   UNL     1       2.580   6.252  18.284  0.00  0.00    +0.000 C 
ATOM      4  C   UNL     1       4.090   6.272  17.942  0.00  0.00    +0.000 C 
ATOM      5  C   UNL     1       4.482   5.317  16.808  0.00  0.00    +0.000 C 
ATOM      6  C   UNL     1       4.213   3.850  17.110  0.00  0.00    +0.000 C 
ATOM      7  O   UNL     1       2.807   3.607  17.197  0.00  0.00    +0.000 OA
ATOM      8  C   UNL     1       2.394   3.724  18.498  0.00  0.00    +0.000 A 
ATOM      9  C   UNL     1       2.097   2.556  19.205  0.00  0.00    +0.000 A 
ATOM     10  F   UNL     1       2.242   1.357  18.620  0.00  0.00    +0.000 F 
ATOM     11  C   UNL     1       1.687   2.614  20.529  0.00  0.00    +0.000 A 
ATOM     12  C   UNL     1       1.566   3.853  21.150  0.00  0.00    +0.000 A 
ATOM     13  C   UNL     1       1.854   5.026  20.441  0.00  0.00    +0.000 A 
ATOM     14  C   UNL     1       2.262   4.989  19.093  0.00  0.00    +0.000 A 
ENDBRANCH   1   3
BRANCH   1  15
ATOM     15  C   UNL     1       2.300   8.712  18.247  0.00  0.00    +0.000 C 
BRANCH  15  21
ATOM     16  N   UNL     1      -2.225  12.056  19.136  0.00  0.00    +0.000 N 
ATOM     17  C   UNL     1      -2.067  12.989  20.245  0.00  0.00    +0.000 C 
ATOM     18  C   UNL     1      -1.130  11.231  18.886  0.00  0.00    +0.000 A 
ATOM     19  C   UNL     1      -1.121  10.325  17.825  0.00  0.00    +0.000 A 
ATOM     20  C   UNL     1      -0.016   9.505  17.603  0.00  0.00    +0.000 A 
ATOM     21  C   UNL     1       1.098   9.599  18.433  0.00  0.00    +0.000 A 
ATOM     22  C   UNL     1       1.024  10.530  19.456  0.00  0.00    +0.000 A 
ATOM     23  N   UNL     1      -0.042  11.333  19.686  0.00  0.00    +0.000 NA
BRANCH  16  25
ATOM     24  C   UNL     1      -4.653  12.372  19.591  0.00  0.00    +0.000 C 
ATOM     25  C   UNL     1      -3.585  11.635  18.793  0.00  0.00    +0.000 C 
ENDBRANCH  16  25
ENDBRANCH  15  21
ENDBRANCH   1  15
TORSDOF 4
ENDMDL
MODEL 9
REMARK VINA RESULT:      -7.4      1.367      1.423
REMARK  Name = 
REMARK  6 active torsions:
REMARK  status: ('A' for Active; 'I' for Inactive)
REMARK    1  A    between atoms: C_1  and  C_2
REMARK    2  A    between atoms: C_2  and  N_3
REMARK    3  A    between atoms: N_3  and  C_4
REMARK    4  A    between atoms: C_8  and  C_9
REMARK    5  A    between atoms: C_9  and  N_10
REMARK    6  A    between atoms: N_10  and  C_11
REMARK                            x       y       z     vdW  Elec       q    Type
REMARK                         _______ _______ _______ _____ _____    ______ ____
ROOT
ATOM      1  N   UNL     1       2.024   6.889  17.914  0.00  0.00    +0.000 NA
ATOM      2  H   UNL     1       1.548   6.830  17.011  0.00  0.00    +0.000 HD
ENDROOT
BRANCH   1   3
ATOM      3  C   UNL     1       3.129   5.905  17.893  0.00  0.00    +0.000 C 
ATOM      4  C   UNL     1       4.516   6.582  18.008  0.00  0.00    +0.000 C 
ATOM      5  C   UNL     1       5.675   5.706  17.516  0.00  0.00    +0.000 C 
ATOM      6  C   UNL     1       5.854   4.413  18.297  0.00  0.00    +0.000 C 
ATOM      7  O   UNL     1       4.741   3.541  18.079  0.00  0.00    +0.000 OA
ATOM      8  C   UNL     1       3.796   3.740  19.050  0.00  0.00    +0.000 A 
ATOM      9  C   UNL     1       3.667   2.780  20.055  0.00  0.00    +0.000 A 
ATOM     10  F   UNL     1       4.473   1.707  20.072  0.00  0.00    +0.000 F 
ATOM     11  C   UNL     1       2.735   2.936  21.071  0.00  0.00    +0.000 A 
ATOM     12  C   UNL     1       1.919   4.063  21.078  0.00  0.00    +0.000 A 
ATOM     13  C   UNL     1       2.040   5.025  20.066  0.00  0.00    +0.000 A 
ATOM     14  C   UNL     1       2.972   4.878  19.020  0.00  0.00    +0.000 A 
ENDBRANCH   1   3
BRANCH   1  15
ATOM     15  C   UNL     1       2.453   8.280  18.076  0.00  0.00    +0.000 C 
BRANCH  15  21
ATOM     16  N   UNL     1      -1.234  11.354  21.142  0.00  0.00    +0.000 N 
ATOM     17  C   UNL     1      -1.916  12.397  20.384  0.00  0.00    +0.000 C 
ATOM     18  C   UNL     1      -0.334  10.578  20.417  0.00  0.00    +0.000 A 
ATOM     19  C   UNL     1       0.352   9.512  21.002  0.00  0.00    +0.000 A 
ATOM     20  C   UNL     1       1.256   8.756  20.255  0.00  0.00    +0.000 A 
ATOM     21  C   UNL     1       1.465   9.052  18.911  0.00  0.00    +0.000 A 
ATOM     22  C   UNL     1       0.739  10.112  18.394  0.00  0.00    +0.000 A 
ATOM     23  N   UNL     1      -0.140  10.857  19.106  0.00  0.00    +0.000 NA
BRANCH  16  25
ATOM     24  C   UNL     1      -2.311  12.141  23.246  0.00  0.00    +0.000 C 
ATOM     25  C   UNL     1      -1.067  11.564  22.582  0.00  0.00    +0.000 C 
ENDBRANCH  16  25
ENDBRANCH  15  21
ENDBRANCH   1  15
TORSDOF 4
ENDMDL
