MODEL 1
REMARK VINA RESULT:      -6.5      0.000      0.000
REMARK  Name = 
REMARK  5 active torsions:
REMARK  status: ('A' for Active; 'I' for Inactive)
REMARK    1  A    between atoms: N_6  and  C1*_7
REMARK    2  A    between atoms: C4*_9  and  C5*_10
REMARK    3  A    between atoms: C5*_10  and  O5*_11
REMARK    4  A    between atoms: C3*_12  and  O3*_13
REMARK    5  A    between atoms: C2*_14  and  O2*_15
REMARK                            x       y       z     vdW  Elec       q    Type
REMARK                         _______ _______ _______ _____ _____    ______ ____
ROOT
ATOM      1  C1* UNL     1       5.043   4.615  18.814  0.00  0.00    +0.000 C 
ATOM      2  O4* UNL     1       5.073   3.310  19.415  0.00  0.00    +0.000 OA
ATOM      3  C4* UNL     1       3.711   2.873  19.649  0.00  0.00    +0.000 C 
ATOM      4  C3* UNL     1       2.854   4.128  19.555  0.00  0.00    +0.000 C 
ATOM      5  C2* UNL     1       3.583   4.951  18.501  0.00  0.00    +0.000 C 
ENDROOT
BRANCH   1  11
ATOM      6  O   UNL     1       8.041   4.796  18.755  0.00  0.00    +0.000 OA
ATOM      7  C   UNL     1       7.340   4.661  17.768  0.00  0.00    +0.000 C 
ATOM      8  N   UNL     1       7.831   4.492  16.479  0.00  0.00    +0.000 N 
ATOM      9  C   UNL     1       6.760   4.550  15.524  0.00  0.00    +0.000 C 
ATOM     10  C   UNL     1       5.538   4.233  16.371  0.00  0.00    +0.000 C 
ATOM     11  N   UNL     1       5.951   4.661  17.692  0.00  0.00    +0.000 N 
ATOM     12  H   UNL     1       8.807   4.679  16.293  0.00  0.00    +0.000 HD
ENDBRANCH   1  11
BRANCH   4  13
ATOM     13  O3* UNL     1       2.872   4.874  20.791  0.00  0.00    +0.000 OA
ATOM     14  H3* UNL     1       2.367   5.699  20.657  0.00  0.00    +0.000 HD
ENDBRANCH   4  13
BRANCH   5  15
ATOM     15  O2* UNL     1       3.293   6.344  18.646  0.00  0.00    +0.000 OA
ATOM     16  H2* UNL     1       3.915   6.676  19.331  0.00  0.00    +0.000 HD
ENDBRANCH   5  15
BRANCH   3  17
ATOM     17  C5* UNL     1       3.298   1.809  18.627  0.00  0.00    +0.000 C 
BRANCH  17  18
ATOM     18  O5* UNL     1       4.304   0.806  18.540  0.00  0.00    +0.000 OA
ATOM     19  H5* UNL     1       5.150   1.289  18.663  0.00  0.00    +0.000 HD
ENDBRANCH  17  18
ENDBRANCH   3  17
TORSDOF 5
ENDMDL
MODEL 2
REMARK VINA RESULT:      -6.2      1.435      2.899
REMARK  Name = 
REMARK  5 active torsions:
REMARK  status: ('A' for Active; 'I' for Inactive)
REMARK    1  A    between atoms: N_6  and  C1*_7
REMARK    2  A    between atoms: C4*_9  and  C5*_10
REMARK    3  A    between atoms: C5*_10  and  O5*_11
REMARK    4  A    between atoms: C3*_12  and  O3*_13
REMARK    5  A    between atoms: C2*_14  and  O2*_15
REMARK                            x       y       z     vdW  Elec       q    Type
REMARK                         _______ _______ _______ _____ _____    ______ ____
ROOT
ATOM      1  C1* UNL     1       3.698   3.378  17.593  0.00  0.00    +0.000 C 
ATOM      2  O4* UNL     1       2.805   4.432  17.992  0.00  0.00    +0.000 OA
ATOM      3  C4* UNL     1       2.109   4.022  19.195  0.00  0.00    +0.000 C 
ATOM      4  C3* UNL     1       2.297   2.515  19.287  0.00  0.00    +0.000 C 
ATOM      5  C2* UNL     1       3.685   2.314  18.694  0.00  0.00    +0.000 C 
ENDROOT
BRANCH   1  11
ATOM      6  O   UNL     1       5.893   4.361  19.392  0.00  0.00    +0.000 OA
ATOM      7  C   UNL     1       5.982   4.279  18.180  0.00  0.00    +0.000 C 
ATOM      8  N   UNL     1       7.138   4.554  17.461  0.00  0.00    +0.000 N 
ATOM      9  C   UNL     1       6.866   4.546  16.051  0.00  0.00    +0.000 C 
ATOM     10  C   UNL     1       5.588   3.725  15.962  0.00  0.00    +0.000 C 
ATOM     11  N   UNL     1       4.993   3.926  17.267  0.00  0.00    +0.000 N 
ATOM     12  H   UNL     1       7.903   5.032  17.918  0.00  0.00    +0.000 HD
ENDBRANCH   1  11
BRANCH   4  13
ATOM     13  O3* UNL     1       1.352   1.813  18.450  0.00  0.00    +0.000 OA
ATOM     14  H3* UNL     1       0.595   2.406  18.279  0.00  0.00    +0.000 HD
ENDBRANCH   4  13
BRANCH   5  15
ATOM     15  O2* UNL     1       3.839   0.987  18.182  0.00  0.00    +0.000 OA
ATOM     16  H2* UNL     1       4.095   0.432  18.953  0.00  0.00    +0.000 HD
ENDBRANCH   5  15
BRANCH   3  17
ATOM     17  C5* UNL     1       2.667   4.753  20.421  0.00  0.00    +0.000 C 
BRANCH  17  18
ATOM     18  O5* UNL     1       3.407   5.896  20.007  0.00  0.00    +0.000 OA
ATOM     19  H5* UNL     1       3.223   6.575  20.692  0.00  0.00    +0.000 HD
ENDBRANCH  17  18
ENDBRANCH   3  17
TORSDOF 5
ENDMDL
MODEL 3
REMARK VINA RESULT:      -6.1      2.486      4.870
REMARK  Name = 
REMARK  5 active torsions:
REMARK  status: ('A' for Active; 'I' for Inactive)
REMARK    1  A    between atoms: N_6  and  C1*_7
REMARK    2  A    between atoms: C4*_9  and  C5*_10
REMARK    3  A    between atoms: C5*_10  and  O5*_11
REMARK    4  A    between atoms: C3*_12  and  O3*_13
REMARK    5  A    between atoms: C2*_14  and  O2*_15
REMARK                            x       y       z     vdW  Elec       q    Type
REMARK                         _______ _______ _______ _____ _____    ______ ____
ROOT
ATOM      1  C1* UNL     1       5.206   4.719  17.398  0.00  0.00    +0.000 C 
ATOM      2  O4* UNL     1       6.220   4.233  18.293  0.00  0.00    +0.000 OA
ATOM      3  C4* UNL     1       7.437   4.988  18.073  0.00  0.00    +0.000 C 
ATOM      4  C3* UNL     1       7.260   5.672  16.724  0.00  0.00    +0.000 C 
ATOM      5  C2* UNL     1       5.764   5.956  16.689  0.00  0.00    +0.000 C 
ENDROOT
BRANCH   1  11
ATOM      6  O   UNL     1       2.494   3.510  16.943  0.00  0.00    +0.000 OA
ATOM      7  C   UNL     1       2.774   4.238  17.877  0.00  0.00    +0.000 C 
ATOM      8  N   UNL     1       1.901   4.554  18.911  0.00  0.00    +0.000 N 
ATOM      9  C   UNL     1       2.464   5.576  19.748  0.00  0.00    +0.000 C 
ATOM     10  C   UNL     1       3.952   5.470  19.453  0.00  0.00    +0.000 C 
ATOM     11  N   UNL     1       3.968   4.913  18.115  0.00  0.00    +0.000 N 
ATOM     12  H   UNL     1       0.918   4.338  18.811  0.00  0.00    +0.000 HD
ENDBRANCH   1  11
BRANCH   4  13
ATOM     13  O3* UNL     1       7.566   4.776  15.633  0.00  0.00    +0.000 OA
ATOM     14  H3* UNL     1       7.705   3.882  16.001  0.00  0.00    +0.000 HD
ENDBRANCH   4  13
BRANCH   5  15
ATOM     15  O2* UNL     1       5.296   6.080  15.343  0.00  0.00    +0.000 OA
ATOM     16  H2* UNL     1       6.080   5.920  14.772  0.00  0.00    +0.000 HD
ENDBRANCH   5  15
BRANCH   3  17
ATOM     17  C5* UNL     1       7.668   5.991  19.207  0.00  0.00    +0.000 C 
BRANCH  17  18
ATOM     18  O5* UNL     1       7.971   5.297  20.413  0.00  0.00    +0.000 OA
ATOM     19  H5* UNL     1       7.112   4.925  20.709  0.00  0.00    +0.000 HD
ENDBRANCH  17  18
ENDBRANCH   3  17
TORSDOF 5
ENDMDL
MODEL 4
REMARK VINA RESULT:      -6.0      2.404      4.740
REMARK  Name = 
REMARK  5 active torsions:
REMARK  status: ('A' for Active; 'I' for Inactive)
REMARK    1  A    between atoms: N_6  and  C1*_7
REMARK    2  A    between atoms: C4*_9  and  C5*_10
REMARK    3  A    between atoms: C5*_10  and  O5*_11
REMARK    4  A    between atoms: C3*_12  and  O3*_13
REMARK    5  A    between atoms: C2*_14  and  O2*_15
REMARK                            x       y       z     vdW  Elec       q    Type
REMARK                         _______ _______ _______ _____ _____    ______ ____
ROOT
ATOM      1  C1* UNL     1       5.236   4.667  17.263  0.00  0.00    +0.000 C 
ATOM      2  O4* UNL     1       4.741   5.228  16.036  0.00  0.00    +0.000 OA
ATOM      3  C4* UNL     1       5.822   5.269  15.072  0.00  0.00    +0.000 C 
ATOM      4  C3* UNL     1       7.101   5.101  15.880  0.00  0.00    +0.000 C 
ATOM      5  C2* UNL     1       6.664   4.177  17.009  0.00  0.00    +0.000 C 
ENDROOT
BRANCH   1  11
ATOM      6  O   UNL     1       5.232   3.153  19.858  0.00  0.00    +0.000 OA
ATOM      7  C   UNL     1       4.350   3.087  19.021  0.00  0.00    +0.000 C 
ATOM      8  N   UNL     1       3.175   2.362  19.180  0.00  0.00    +0.000 N 
ATOM      9  C   UNL     1       2.433   2.333  17.950  0.00  0.00    +0.000 C 
ATOM     10  C   UNL     1       2.984   3.535  17.199  0.00  0.00    +0.000 C 
ATOM     11  N   UNL     1       4.312   3.676  17.760  0.00  0.00    +0.000 N 
ATOM     12  H   UNL     1       3.106   1.692  19.934  0.00  0.00    +0.000 HD
ENDBRANCH   1  11
BRANCH   4  13
ATOM     13  O3* UNL     1       7.522   6.351  16.468  0.00  0.00    +0.000 OA
ATOM     14  H3* UNL     1       8.280   6.172  17.057  0.00  0.00    +0.000 HD
ENDBRANCH   4  13
BRANCH   5  15
ATOM     15  O2* UNL     1       7.511   4.324  18.151  0.00  0.00    +0.000 OA
ATOM     16  H2* UNL     1       6.949   4.727  18.850  0.00  0.00    +0.000 HD
ENDBRANCH   5  15
BRANCH   3  17
ATOM     17  C5* UNL     1       5.652   4.170  14.018  0.00  0.00    +0.000 C 
BRANCH  17  18
ATOM     18  O5* UNL     1       6.731   4.218  13.090  0.00  0.00    +0.000 OA
ATOM     19  H5* UNL     1       7.001   3.282  12.973  0.00  0.00    +0.000 HD
ENDBRANCH  17  18
ENDBRANCH   3  17
TORSDOF 5
ENDMDL
MODEL 5
REMARK VINA RESULT:      -6.0      1.735      3.156
REMARK  Name = 
REMARK  5 active torsions:
REMARK  status: ('A' for Active; 'I' for Inactive)
REMARK    1  A    between atoms: N_6  and  C1*_7
REMARK    2  A    between atoms: C4*_9  and  C5*_10
REMARK    3  A    between atoms: C5*_10  and  O5*_11
REMARK    4  A    between atoms: C3*_12  and  O3*_13
REMARK    5  A    between atoms: C2*_14  and  O2*_15
REMARK                            x       y       z     vdW  Elec       q    Type
REMARK                         _______ _______ _______ _____ _____    ______ ____
ROOT
ATOM      1  C1* UNL     1       3.791   3.512  18.294  0.00  0.00    +0.000 C 
ATOM      2  O4* UNL     1       2.764   4.406  18.755  0.00  0.00    +0.000 OA
ATOM      3  C4* UNL     1       1.956   3.719  19.742  0.00  0.00    +0.000 C 
ATOM      4  C3* UNL     1       2.264   2.238  19.568  0.00  0.00    +0.000 C 
ATOM      5  C2* UNL     1       3.730   2.248  19.156  0.00  0.00    +0.000 C 
ENDROOT
BRANCH   1  11
ATOM      6  O   UNL     1       5.786   3.817  16.069  0.00  0.00    +0.000 OA
ATOM      7  C   UNL     1       5.884   4.351  17.159  0.00  0.00    +0.000 C 
ATOM      8  N   UNL     1       6.894   5.241  17.504  0.00  0.00    +0.000 N 
ATOM      9  C   UNL     1       6.836   5.545  18.907  0.00  0.00    +0.000 C 
ATOM     10  C   UNL     1       5.402   5.190  19.268  0.00  0.00    +0.000 C 
ATOM     11  N   UNL     1       5.064   4.194  18.272  0.00  0.00    +0.000 N 
ATOM     12  H   UNL     1       7.707   5.321  16.909  0.00  0.00    +0.000 HD
ENDBRANCH   1  11
BRANCH   4  13
ATOM     13  O3* UNL     1       1.503   1.664  18.484  0.00  0.00    +0.000 OA
ATOM     14  H3* UNL     1       1.551   0.691  18.557  0.00  0.00    +0.000 HD
ENDBRANCH   4  13
BRANCH   5  15
ATOM     15  O2* UNL     1       4.067   1.065  18.427  0.00  0.00    +0.000 OA
ATOM     16  H2* UNL     1       4.334   1.371  17.531  0.00  0.00    +0.000 HD
ENDBRANCH   5  15
BRANCH   3  17
ATOM     17  C5* UNL     1       2.281   4.218  21.153  0.00  0.00    +0.000 C 
BRANCH  17  18
ATOM     18  O5* UNL     1       2.073   3.173  22.097  0.00  0.00    +0.000 OA
ATOM     19  H5* UNL     1       1.269   2.707  21.780  0.00  0.00    +0.000 HD
ENDBRANCH  17  18
ENDBRANCH   3  17
TORSDOF 5
ENDMDL
MODEL 6
REMARK VINA RESULT:      -6.0      2.087      4.744
REMARK  Name = 
REMARK  5 active torsions:
REMARK  status: ('A' for Active; 'I' for Inactive)
REMARK    1  A    between atoms: N_6  and  C1*_7
REMARK    2  A    between atoms: C4*_9  and  C5*_10
REMARK    3  A    between atoms: C5*_10  and  O5*_11
REMARK    4  A    between atoms: C3*_12  and  O3*_13
REMARK    5  A    between atoms: C2*_14  and  O2*_15
REMARK                            x       y       z     vdW  Elec       q    Type
REMARK                         _______ _______ _______ _____ _____    ______ ____
ROOT
ATOM      1  C1* UNL     1       5.404   4.430  17.803  0.00  0.00    +0.000 C 
ATOM      2  O4* UNL     1       6.598   4.110  18.536  0.00  0.00    +0.000 OA
ATOM      3  C4* UNL     1       7.635   5.056  18.175  0.00  0.00    +0.000 C 
ATOM      4  C3* UNL     1       7.163   5.711  16.885  0.00  0.00    +0.000 C 
ATOM      5  C2* UNL     1       5.651   5.747  17.062  0.00  0.00    +0.000 C 
ENDROOT
BRANCH   1  11
ATOM      6  O   UNL     1       3.903   2.111  18.984  0.00  0.00    +0.000 OA
ATOM      7  C   UNL     1       3.686   3.279  19.251  0.00  0.00    +0.000 C 
ATOM      8  N   UNL     1       2.765   3.705  20.200  0.00  0.00    +0.000 N 
ATOM      9  C   UNL     1       2.611   5.132  20.144  0.00  0.00    +0.000 C 
ATOM     10  C   UNL     1       3.894   5.581  19.461  0.00  0.00    +0.000 C 
ATOM     11  N   UNL     1       4.263   4.413  18.688  0.00  0.00    +0.000 N 
ATOM     12  H   UNL     1       2.090   3.046  20.565  0.00  0.00    +0.000 HD
ENDBRANCH   1  11
BRANCH   4  13
ATOM     13  O3* UNL     1       7.455   4.887  15.735  0.00  0.00    +0.000 OA
ATOM     14  H3* UNL     1       6.631   4.774  15.223  0.00  0.00    +0.000 HD
ENDBRANCH   4  13
BRANCH   5  15
ATOM     15  O2* UNL     1       4.986   5.803  15.797  0.00  0.00    +0.000 OA
ATOM     16  H2* UNL     1       5.495   6.447  15.256  0.00  0.00    +0.000 HD
ENDBRANCH   5  15
BRANCH   3  17
ATOM     17  C5* UNL     1       7.857   6.075  19.297  0.00  0.00    +0.000 C 
BRANCH  17  18
ATOM     18  O5* UNL     1       8.038   5.397  20.536  0.00  0.00    +0.000 OA
ATOM     19  H5* UNL     1       7.226   4.858  20.647  0.00  0.00    +0.000 HD
ENDBRANCH  17  18
ENDBRANCH   3  17
TORSDOF 5
ENDMDL
MODEL 7
REMARK VINA RESULT:      -6.0      1.882      2.226
REMARK  Name = 
REMARK  5 active torsions:
REMARK  status: ('A' for Active; 'I' for Inactive)
REMARK    1  A    between atoms: N_6  and  C1*_7
REMARK    2  A    between atoms: C4*_9  and  C5*_10
REMARK    3  A    between atoms: C5*_10  and  O5*_11
REMARK    4  A    between atoms: C3*_12  and  O3*_13
REMARK    5  A    between atoms: C2*_14  and  O2*_15
REMARK                            x       y       z     vdW  Elec       q    Type
REMARK                         _______ _______ _______ _____ _____    ______ ____
ROOT
ATOM      1  C1* UNL     1       3.616   4.206  19.914  0.00  0.00    +0.000 C 
ATOM      2  O4* UNL     1       3.477   2.824  19.547  0.00  0.00    +0.000 OA
ATOM      3  C4* UNL     1       2.122   2.399  19.833  0.00  0.00    +0.000 C 
ATOM      4  C3* UNL     1       1.551   3.449  20.775  0.00  0.00    +0.000 C 
ATOM      5  C2* UNL     1       2.228   4.728  20.300  0.00  0.00    +0.000 C 
ENDROOT
BRANCH   1  11
ATOM      6  O   UNL     1       6.458   5.160  19.725  0.00  0.00    +0.000 OA
ATOM      7  C   UNL     1       5.639   5.258  18.830  0.00  0.00    +0.000 C 
ATOM      8  N   UNL     1       5.922   5.754  17.563  0.00  0.00    +0.000 N 
ATOM      9  C   UNL     1       4.711   5.914  16.806  0.00  0.00    +0.000 C 
ATOM     10  C   UNL     1       3.745   4.980  17.518  0.00  0.00    +0.000 C 
ATOM     11  N   UNL     1       4.286   4.931  18.861  0.00  0.00    +0.000 N 
ATOM     12  H   UNL     1       6.792   6.244  17.407  0.00  0.00    +0.000 HD
ENDBRANCH   1  11
BRANCH   4  13
ATOM     13  O3* UNL     1       1.959   3.212  22.140  0.00  0.00    +0.000 OA
ATOM     14  H3* UNL     1       1.605   3.935  22.694  0.00  0.00    +0.000 HD
ENDBRANCH   4  13
BRANCH   5  15
ATOM     15  O2* UNL     1       2.275   5.704  21.344  0.00  0.00    +0.000 OA
ATOM     16  H2* UNL     1       2.707   6.495  20.951  0.00  0.00    +0.000 HD
ENDBRANCH   5  15
BRANCH   3  17
ATOM     17  C5* UNL     1       1.308   2.272  18.542  0.00  0.00    +0.000 C 
BRANCH  17  18
ATOM     18  O5* UNL     1       2.150   1.837  17.479  0.00  0.00    +0.000 OA
ATOM     19  H5* UNL     1       2.746   1.173  17.889  0.00  0.00    +0.000 HD
ENDBRANCH  17  18
ENDBRANCH   3  17
TORSDOF 5
ENDMDL
MODEL 8
REMARK VINA RESULT:      -6.0      1.839      3.121
REMARK  Name = 
REMARK  5 active torsions:
REMARK  status: ('A' for Active; 'I' for Inactive)
REMARK    1  A    between atoms: N_6  and  C1*_7
REMARK    2  A    between atoms: C4*_9  and  C5*_10
REMARK    3  A    between atoms: C5*_10  and  O5*_11
REMARK    4  A    between atoms: C3*_12  and  O3*_13
REMARK    5  A    between atoms: C2*_14  and  O2*_15
REMARK                            x       y       z     vdW  Elec       q    Type
REMARK                         _______ _______ _______ _____ _____    ______ ____
ROOT
ATOM      1  C1* UNL     1       4.129   3.779  17.310  0.00  0.00    +0.000 C 
ATOM      2  O4* UNL     1       3.400   5.012  17.424  0.00  0.00    +0.000 OA
ATOM      3  C4* UNL     1       2.466   4.901  18.526  0.00  0.00    +0.000 C 
ATOM      4  C3* UNL     1       2.353   3.412  18.822  0.00  0.00    +0.000 C 
ATOM      5  C2* UNL     1       3.752   2.901  18.506  0.00  0.00    +0.000 C 
ENDROOT
BRANCH   1  11
ATOM      6  O   UNL     1       5.809   3.927  14.823  0.00  0.00    +0.000 OA
ATOM      7  C   UNL     1       6.213   4.183  15.943  0.00  0.00    +0.000 C 
ATOM      8  N   UNL     1       7.490   4.656  16.223  0.00  0.00    +0.000 N 
ATOM      9  C   UNL     1       7.715   4.678  17.642  0.00  0.00    +0.000 C 
ATOM     10  C   UNL     1       6.303   4.690  18.205  0.00  0.00    +0.000 C 
ATOM     11  N   UNL     1       5.538   4.053  17.153  0.00  0.00    +0.000 N 
ATOM     12  H   UNL     1       8.201   4.613  15.506  0.00  0.00    +0.000 HD
ENDBRANCH   1  11
BRANCH   4  13
ATOM     13  O3* UNL     1       1.430   2.763  17.920  0.00  0.00    +0.000 OA
ATOM     14  H3* UNL     1       1.649   1.812  17.891  0.00  0.00    +0.000 HD
ENDBRANCH   4  13
BRANCH   5  15
ATOM     15  O2* UNL     1       3.731   1.508  18.185  0.00  0.00    +0.000 OA
ATOM     16  H2* UNL     1       4.069   1.045  18.984  0.00  0.00    +0.000 HD
ENDBRANCH   5  15
BRANCH   3  17
ATOM     17  C5* UNL     1       2.959   5.698  19.738  0.00  0.00    +0.000 C 
BRANCH  17  18
ATOM     18  O5* UNL     1       2.381   5.174  20.929  0.00  0.00    +0.000 OA
ATOM     19  H5* UNL     1       2.090   5.964  21.434  0.00  0.00    +0.000 HD
ENDBRANCH  17  18
ENDBRANCH   3  17
TORSDOF 5
ENDMDL
MODEL 9
REMARK VINA RESULT:      -5.9      1.581      3.017
REMARK  Name = 
REMARK  5 active torsions:
REMARK  status: ('A' for Active; 'I' for Inactive)
REMARK    1  A    between atoms: N_6  and  C1*_7
REMARK    2  A    between atoms: C4*_9  and  C5*_10
REMARK    3  A    between atoms: C5*_10  and  O5*_11
REMARK    4  A    between atoms: C3*_12  and  O3*_13
REMARK    5  A    between atoms: C2*_14  and  O2*_15
REMARK                            x       y       z     vdW  Elec       q    Type
REMARK                         _______ _______ _______ _____ _____    ______ ____
ROOT
ATOM      1  C1* UNL     1       4.601   3.648  18.200  0.00  0.00    +0.000 C 
ATOM      2  O4* UNL     1       3.456   4.467  17.911  0.00  0.00    +0.000 OA
ATOM      3  C4* UNL     1       2.504   4.336  18.995  0.00  0.00    +0.000 C 
ATOM      4  C3* UNL     1       2.918   3.087  19.760  0.00  0.00    +0.000 C 
ATOM      5  C2* UNL     1       4.435   3.098  19.620  0.00  0.00    +0.000 C 
ENDROOT
BRANCH   1  11
ATOM      6  O   UNL     1       6.257   3.883  15.705  0.00  0.00    +0.000 OA
ATOM      7  C   UNL     1       6.466   4.505  16.731  0.00  0.00    +0.000 C 
ATOM      8  N   UNL     1       7.455   5.471  16.871  0.00  0.00    +0.000 N 
ATOM      9  C   UNL     1       7.567   5.879  18.244  0.00  0.00    +0.000 C 
ATOM     10  C   UNL     1       6.219   5.479  18.823  0.00  0.00    +0.000 C 
ATOM     11  N   UNL     1       5.814   4.391  17.955  0.00  0.00    +0.000 N 
ATOM     12  H   UNL     1       8.175   5.548  16.165  0.00  0.00    +0.000 HD
ENDBRANCH   1  11
BRANCH   4  13
ATOM     13  O3* UNL     1       2.423   1.889  19.123  0.00  0.00    +0.000 OA
ATOM     14  H3* UNL     1       1.450   1.950  19.072  0.00  0.00    +0.000 HD
ENDBRANCH   4  13
BRANCH   5  15
ATOM     15  O2* UNL     1       4.975   1.782  19.770  0.00  0.00    +0.000 OA
ATOM     16  H2* UNL     1       4.807   1.530  20.706  0.00  0.00    +0.000 HD
ENDBRANCH   5  15
BRANCH   3  17
ATOM     17  C5* UNL     1       2.511   5.588  19.879  0.00  0.00    +0.000 C 
BRANCH  17  18
ATOM     18  O5* UNL     1       2.363   5.216  21.245  0.00  0.00    +0.000 OA
ATOM     19  H5* UNL     1       3.279   5.068  21.564  0.00  0.00    +0.000 HD
ENDBRANCH  17  18
ENDBRANCH   3  17
TORSDOF 5
ENDMDL
