MODEL 1
REMARK VINA RESULT:      -5.2      0.000      0.000
REMARK  Name = 
REMARK  10 active torsions:
REMARK  status: ('A' for Active; 'I' for Inactive)
REMARK    1  A    between atoms: C_1  and  C_2
REMARK    2  A    between atoms: C_2  and  C_3
REMARK    3  A    between atoms: C_3  and  C_4
REMARK    4  A    between atoms: C_4  and  C_5
REMARK    5  A    between atoms: C_5  and  C_6
REMARK    6  A    between atoms: C_6  and  C_8
REMARK    7  A    between atoms: C_8  and  C_10
REMARK    8  A    between atoms: C_10  and  O_11
REMARK    9  A    between atoms: C_10  and  C_12
REMARK   10  A    between atoms: C_12  and  O_13
REMARK                            x       y       z     vdW  Elec       q    Type
REMARK                         _______ _______ _______ _____ _____    ______ ____
ROOT
ATOM      1  C   UNL     1       5.931   4.497  18.389  0.00  0.00    +0.000 C 
ATOM      2  O   UNL     1       5.620   3.829  19.370  0.00  0.00    +0.000 OA
ENDROOT
BRANCH   1   3
ATOM      3  C   UNL     1       4.857   4.904  17.404  0.00  0.00    +0.000 C 
ATOM      4  O   UNL     1       4.733   6.099  17.135  0.00  0.00    +0.000 OA
BRANCH   3   5
ATOM      5  C   UNL     1       4.014   3.792  16.838  0.00  0.00    +0.000 C 
BRANCH   5   6
ATOM      6  C   UNL     1       2.617   3.798  17.452  0.00  0.00    +0.000 C 
BRANCH   6   7
ATOM      7  C   UNL     1       2.273   2.454  18.092  0.00  0.00    +0.000 C 
BRANCH   7   9
ATOM      8  C   UNL     1       1.033   3.060  20.200  0.00  0.00    +0.000 C 
ATOM      9  C   UNL     1       0.914   2.514  18.787  0.00  0.00    +0.000 C 
ENDBRANCH   7   9
ENDBRANCH   6   7
ENDBRANCH   5   6
ENDBRANCH   3   5
ENDBRANCH   1   3
BRANCH   1  10
ATOM     10  C   UNL     1       7.349   4.925  18.046  0.00  0.00    +0.000 C 
BRANCH  10  11
ATOM     11  O   UNL     1       7.481   5.399  16.709  0.00  0.00    +0.000 OA
ATOM     12  H   UNL     1       8.173   6.092  16.707  0.00  0.00    +0.000 HD
ENDBRANCH  10  11
BRANCH  10  13
ATOM     13  C   UNL     1       7.830   5.988  19.037  0.00  0.00    +0.000 C 
BRANCH  13  14
ATOM     14  O   UNL     1       7.898   5.471  20.366  0.00  0.00    +0.000 OA
ATOM     15  H   UNL     1       8.243   4.561  20.326  0.00  0.00    +0.000 HD
ENDBRANCH  13  14
ENDBRANCH  10  13
ENDBRANCH   1  10
TORSDOF 9
ENDMDL
MODEL 2
REMARK VINA RESULT:      -5.2      3.416      5.053
REMARK  Name = 
REMARK  10 active torsions:
REMARK  status: ('A' for Active; 'I' for Inactive)
REMARK    1  A    between atoms: C_1  and  C_2
REMARK    2  A    between atoms: C_2  and  C_3
REMARK    3  A    between atoms: C_3  and  C_4
REMARK    4  A    between atoms: C_4  and  C_5
REMARK    5  A    between atoms: C_5  and  C_6
REMARK    6  A    between atoms: C_6  and  C_8
REMARK    7  A    between atoms: C_8  and  C_10
REMARK    8  A    between atoms: C_10  and  O_11
REMARK    9  A    between atoms: C_10  and  C_12
REMARK   10  A    between atoms: C_12  and  O_13
REMARK                            x       y       z     vdW  Elec       q    Type
REMARK                         _______ _______ _______ _____ _____    ______ ____
ROOT
ATOM      1  C   UNL     1       6.965   4.580  16.976  0.00  0.00    +0.000 C 
ATOM      2  O   UNL     1       8.133   4.206  16.970  0.00  0.00    +0.000 OA
ENDROOT
BRANCH   1   3
ATOM      3  C   UNL     1       6.301   4.942  15.665  0.00  0.00    +0.000 C 
ATOM      4  O   UNL     1       6.019   6.123  15.459  0.00  0.00    +0.000 OA
BRANCH   3   5
ATOM      5  C   UNL     1       6.031   3.804  14.717  0.00  0.00    +0.000 C 
BRANCH   5   6
ATOM      6  C   UNL     1       6.527   4.133  13.311  0.00  0.00    +0.000 C 
BRANCH   6   7
ATOM      7  C   UNL     1       5.857   3.257  12.254  0.00  0.00    +0.000 C 
BRANCH   7   9
ATOM      8  C   UNL     1       6.326   1.079  11.078  0.00  0.00    +0.000 C 
ATOM      9  C   UNL     1       6.893   2.422  11.503  0.00  0.00    +0.000 C 
ENDBRANCH   7   9
ENDBRANCH   6   7
ENDBRANCH   5   6
ENDBRANCH   3   5
ENDBRANCH   1   3
BRANCH   1  10
ATOM     10  C   UNL     1       6.117   4.759  18.225  0.00  0.00    +0.000 C 
BRANCH  10  11
ATOM     11  O   UNL     1       5.780   3.526  18.854  0.00  0.00    +0.000 OA
ATOM     12  H   UNL     1       5.800   3.672  19.821  0.00  0.00    +0.000 HD
ENDBRANCH  10  11
BRANCH  10  13
ATOM     13  C   UNL     1       6.830   5.684  19.214  0.00  0.00    +0.000 C 
BRANCH  13  14
ATOM     14  O   UNL     1       8.100   5.158  19.601  0.00  0.00    +0.000 OA
ATOM     15  H   UNL     1       8.505   5.769  20.241  0.00  0.00    +0.000 HD
ENDBRANCH  13  14
ENDBRANCH  10  13
ENDBRANCH   1  10
TORSDOF 9
ENDMDL
MODEL 3
REMARK VINA RESULT:      -5.2      0.939      1.574
REMARK  Name = 
REMARK  10 active torsions:
REMARK  status: ('A' for Active; 'I' for Inactive)
REMARK    1  A    between atoms: C_1  and  C_2
REMARK    2  A    between atoms: C_2  and  C_3
REMARK    3  A    between atoms: C_3  and  C_4
REMARK    4  A    between atoms: C_4  and  C_5
REMARK    5  A    between atoms: C_5  and  C_6
REMARK    6  A    between atoms: C_6  and  C_8
REMARK    7  A    between atoms: C_8  and  C_10
REMARK    8  A    between atoms: C_10  and  O_11
REMARK    9  A    between atoms: C_10  and  C_12
REMARK   10  A    between atoms: C_12  and  O_13
REMARK                            x       y       z     vdW  Elec       q    Type
REMARK                         _______ _______ _______ _____ _____    ______ ____
ROOT
ATOM      1  C   UNL     1       5.346   4.518  18.827  0.00  0.00    +0.000 C 
ATOM      2  O   UNL     1       5.300   3.440  19.410  0.00  0.00    +0.000 OA
ENDROOT
BRANCH   1   3
ATOM      3  C   UNL     1       4.182   4.935  17.955  0.00  0.00    +0.000 C 
ATOM      4  O   UNL     1       3.953   6.137  17.822  0.00  0.00    +0.000 OA
BRANCH   3   5
ATOM      5  C   UNL     1       3.389   3.821  17.324  0.00  0.00    +0.000 C 
BRANCH   5   6
ATOM      6  C   UNL     1       1.936   3.853  17.790  0.00  0.00    +0.000 C 
BRANCH   6   7
ATOM      7  C   UNL     1       1.531   2.548  18.473  0.00  0.00    +0.000 C 
BRANCH   7   9
ATOM      8  C   UNL     1       1.032   4.094  20.398  0.00  0.00    +0.000 C 
ATOM      9  C   UNL     1       1.513   2.712  19.993  0.00  0.00    +0.000 C 
ENDBRANCH   7   9
ENDBRANCH   6   7
ENDBRANCH   5   6
ENDBRANCH   3   5
ENDBRANCH   1   3
BRANCH   1  10
ATOM     10  C   UNL     1       6.524   5.478  18.872  0.00  0.00    +0.000 C 
BRANCH  10  11
ATOM     11  O   UNL     1       7.292   5.366  20.066  0.00  0.00    +0.000 OA
ATOM     12  H   UNL     1       7.290   4.425  20.333  0.00  0.00    +0.000 HD
ENDBRANCH  10  11
BRANCH  10  13
ATOM     13  C   UNL     1       7.415   5.272  17.644  0.00  0.00    +0.000 C 
BRANCH  13  14
ATOM     14  O   UNL     1       8.134   4.041  17.720  0.00  0.00    +0.000 OA
ATOM     15  H   UNL     1       8.701   3.966  16.932  0.00  0.00    +0.000 HD
ENDBRANCH  13  14
ENDBRANCH  10  13
ENDBRANCH   1  10
TORSDOF 9
ENDMDL
MODEL 4
REMARK VINA RESULT:      -5.1      1.248      2.272
REMARK  Name = 
REMARK  10 active torsions:
REMARK  status: ('A' for Active; 'I' for Inactive)
REMARK    1  A    between atoms: C_1  and  C_2
REMARK    2  A    between atoms: C_2  and  C_3
REMARK    3  A    between atoms: C_3  and  C_4
REMARK    4  A    between atoms: C_4  and  C_5
REMARK    5  A    between atoms: C_5  and  C_6
REMARK    6  A    between atoms: C_6  and  C_8
REMARK    7  A    between atoms: C_8  and  C_10
REMARK    8  A    between atoms: C_10  and  O_11
REMARK    9  A    between atoms: C_10  and  C_12
REMARK   10  A    between atoms: C_12  and  O_13
REMARK                            x       y       z     vdW  Elec       q    Type
REMARK                         _______ _______ _______ _____ _____    ______ ____
ROOT
ATOM      1  C   UNL     1       4.759   5.088  18.640  0.00  0.00    +0.000 C 
ATOM      2  O   UNL     1       3.921   5.977  18.739  0.00  0.00    +0.000 OA
ENDROOT
BRANCH   1   3
ATOM      3  C   UNL     1       4.318   3.644  18.749  0.00  0.00    +0.000 C 
ATOM      4  O   UNL     1       4.775   2.962  19.667  0.00  0.00    +0.000 OA
BRANCH   3   5
ATOM      5  C   UNL     1       3.350   3.161  17.702  0.00  0.00    +0.000 C 
BRANCH   5   6
ATOM      6  C   UNL     1       1.927   3.608  18.024  0.00  0.00    +0.000 C 
BRANCH   6   7
ATOM      7  C   UNL     1       1.262   2.689  19.048  0.00  0.00    +0.000 C 
BRANCH   7   9
ATOM      8  C   UNL     1       1.619   2.741  21.541  0.00  0.00    +0.000 C 
ATOM      9  C   UNL     1       0.983   3.437  20.350  0.00  0.00    +0.000 C 
ENDBRANCH   7   9
ENDBRANCH   6   7
ENDBRANCH   5   6
ENDBRANCH   3   5
ENDBRANCH   1   3
BRANCH   1  10
ATOM     10  C   UNL     1       6.251   5.317  18.454  0.00  0.00    +0.000 C 
BRANCH  10  11
ATOM     11  O   UNL     1       7.017   4.969  19.604  0.00  0.00    +0.000 OA
ATOM     12  H   UNL     1       7.279   5.801  20.048  0.00  0.00    +0.000 HD
ENDBRANCH  10  11
BRANCH  10  13
ATOM     13  C   UNL     1       6.751   4.550  17.228  0.00  0.00    +0.000 C 
BRANCH  13  14
ATOM     14  O   UNL     1       8.114   4.154  17.379  0.00  0.00    +0.000 OA
ATOM     15  H   UNL     1       8.154   3.424  18.022  0.00  0.00    +0.000 HD
ENDBRANCH  13  14
ENDBRANCH  10  13
ENDBRANCH   1  10
TORSDOF 9
ENDMDL
MODEL 5
REMARK VINA RESULT:      -5.0      2.188      3.390
REMARK  Name = 
REMARK  10 active torsions:
REMARK  status: ('A' for Active; 'I' for Inactive)
REMARK    1  A    between atoms: C_1  and  C_2
REMARK    2  A    between atoms: C_2  and  C_3
REMARK    3  A    between atoms: C_3  and  C_4
REMARK    4  A    between atoms: C_4  and  C_5
REMARK    5  A    between atoms: C_5  and  C_6
REMARK    6  A    between atoms: C_6  and  C_8
REMARK    7  A    between atoms: C_8  and  C_10
REMARK    8  A    between atoms: C_10  and  O_11
REMARK    9  A    between atoms: C_10  and  C_12
REMARK   10  A    between atoms: C_12  and  O_13
REMARK                            x       y       z     vdW  Elec       q    Type
REMARK                         _______ _______ _______ _____ _____    ______ ____
ROOT
ATOM      1  C   UNL     1       7.008   4.583  16.893  0.00  0.00    +0.000 C 
ATOM      2  O   UNL     1       8.125   4.217  17.243  0.00  0.00    +0.000 OA
ENDROOT
BRANCH   1   3
ATOM      3  C   UNL     1       6.306   5.665  17.685  0.00  0.00    +0.000 C 
ATOM      4  O   UNL     1       6.057   6.732  17.123  0.00  0.00    +0.000 OA
BRANCH   3   5
ATOM      5  C   UNL     1       5.978   5.337  19.118  0.00  0.00    +0.000 C 
BRANCH   5   6
ATOM      6  C   UNL     1       4.611   4.666  19.226  0.00  0.00    +0.000 C 
BRANCH   6   7
ATOM      7  C   UNL     1       3.494   5.687  19.436  0.00  0.00    +0.000 C 
BRANCH   7   9
ATOM      8  C   UNL     1       1.884   4.544  17.872  0.00  0.00    +0.000 C 
ATOM      9  C   UNL     1       2.640   5.825  18.177  0.00  0.00    +0.000 C 
ENDBRANCH   7   9
ENDBRANCH   6   7
ENDBRANCH   5   6
ENDBRANCH   3   5
ENDBRANCH   1   3
BRANCH   1  10
ATOM     10  C   UNL     1       6.229   3.997  15.727  0.00  0.00    +0.000 C 
BRANCH  10  11
ATOM     11  O   UNL     1       4.827   4.236  15.814  0.00  0.00    +0.000 OA
ATOM     12  H   UNL     1       4.692   4.983  16.432  0.00  0.00    +0.000 HD
ENDBRANCH  10  11
BRANCH  10  13
ATOM     13  C   UNL     1       6.780   4.536  14.404  0.00  0.00    +0.000 C 
BRANCH  13  14
ATOM     14  O   UNL     1       7.738   5.572  14.620  0.00  0.00    +0.000 OA
ATOM     15  H   UNL     1       7.275   6.428  14.613  0.00  0.00    +0.000 HD
ENDBRANCH  13  14
ENDBRANCH  10  13
ENDBRANCH   1  10
TORSDOF 9
ENDMDL
MODEL 6
REMARK VINA RESULT:      -5.0      2.188      2.828
REMARK  Name = 
REMARK  10 active torsions:
REMARK  status: ('A' for Active; 'I' for Inactive)
REMARK    1  A    between atoms: C_1  and  C_2
REMARK    2  A    between atoms: C_2  and  C_3
REMARK    3  A    between atoms: C_3  and  C_4
REMARK    4  A    between atoms: C_4  and  C_5
REMARK    5  A    between atoms: C_5  and  C_6
REMARK    6  A    between atoms: C_6  and  C_8
REMARK    7  A    between atoms: C_8  and  C_10
REMARK    8  A    between atoms: C_10  and  O_11
REMARK    9  A    between atoms: C_10  and  C_12
REMARK   10  A    between atoms: C_12  and  O_13
REMARK                            x       y       z     vdW  Elec       q    Type
REMARK                         _______ _______ _______ _____ _____    ______ ____
ROOT
ATOM      1  C   UNL     1       6.947   5.909  16.877  0.00  0.00    +0.000 C 
ATOM      2  O   UNL     1       7.674   6.767  16.389  0.00  0.00    +0.000 OA
ENDROOT
BRANCH   1   3
ATOM      3  C   UNL     1       5.557   5.712  16.311  0.00  0.00    +0.000 C 
ATOM      4  O   UNL     1       5.194   6.441  15.388  0.00  0.00    +0.000 OA
BRANCH   3   5
ATOM      5  C   UNL     1       4.726   4.628  16.946  0.00  0.00    +0.000 C 
BRANCH   5   6
ATOM      6  C   UNL     1       3.442   5.201  17.541  0.00  0.00    +0.000 C 
BRANCH   6   7
ATOM      7  C   UNL     1       3.659   5.724  18.959  0.00  0.00    +0.000 C 
BRANCH   7   9
ATOM      8  C   UNL     1       2.393   7.730  18.111  0.00  0.00    +0.000 C 
ATOM      9  C   UNL     1       2.645   6.816  19.297  0.00  0.00    +0.000 C 
ENDBRANCH   7   9
ENDBRANCH   6   7
ENDBRANCH   5   6
ENDBRANCH   3   5
ENDBRANCH   1   3
BRANCH   1  10
ATOM     10  C   UNL     1       7.315   5.032  18.063  0.00  0.00    +0.000 C 
BRANCH  10  11
ATOM     11  O   UNL     1       8.307   4.058  17.753  0.00  0.00    +0.000 OA
ATOM     12  H   UNL     1       8.867   4.423  17.037  0.00  0.00    +0.000 HD
ENDBRANCH  10  11
BRANCH  10  13
ATOM     13  C   UNL     1       7.771   5.902  19.237  0.00  0.00    +0.000 C 
BRANCH  13  14
ATOM     14  O   UNL     1       8.507   5.142  20.196  0.00  0.00    +0.000 OA
ATOM     15  H   UNL     1       9.169   4.606  19.724  0.00  0.00    +0.000 HD
ENDBRANCH  13  14
ENDBRANCH  10  13
ENDBRANCH   1  10
TORSDOF 9
ENDMDL
MODEL 7
REMARK VINA RESULT:      -5.0      1.370      2.379
REMARK  Name = 
REMARK  10 active torsions:
REMARK  status: ('A' for Active; 'I' for Inactive)
REMARK    1  A    between atoms: C_1  and  C_2
REMARK    2  A    between atoms: C_2  and  C_3
REMARK    3  A    between atoms: C_3  and  C_4
REMARK    4  A    between atoms: C_4  and  C_5
REMARK    5  A    between atoms: C_5  and  C_6
REMARK    6  A    between atoms: C_6  and  C_8
REMARK    7  A    between atoms: C_8  and  C_10
REMARK    8  A    between atoms: C_10  and  O_11
REMARK    9  A    between atoms: C_10  and  C_12
REMARK   10  A    between atoms: C_12  and  O_13
REMARK                            x       y       z     vdW  Elec       q    Type
REMARK                         _______ _______ _______ _____ _____    ______ ____
ROOT
ATOM      1  C   UNL     1       4.319   4.705  17.630  0.00  0.00    +0.000 C 
ATOM      2  O   UNL     1       4.540   4.471  16.446  0.00  0.00    +0.000 OA
ENDROOT
BRANCH   1   3
ATOM      3  C   UNL     1       2.978   5.284  18.028  0.00  0.00    +0.000 C 
ATOM      4  O   UNL     1       2.958   6.385  18.578  0.00  0.00    +0.000 OA
BRANCH   3   5
ATOM      5  C   UNL     1       1.769   4.441  17.718  0.00  0.00    +0.000 C 
BRANCH   5   6
ATOM      6  C   UNL     1       1.972   3.002  18.184  0.00  0.00    +0.000 C 
BRANCH   6   7
ATOM      7  C   UNL     1       0.883   2.564  19.161  0.00  0.00    +0.000 C 
BRANCH   7   9
ATOM      8  C   UNL     1       1.616   2.732  21.565  0.00  0.00    +0.000 C 
ATOM      9  C   UNL     1       0.901   3.429  20.421  0.00  0.00    +0.000 C 
ENDBRANCH   7   9
ENDBRANCH   6   7
ENDBRANCH   5   6
ENDBRANCH   3   5
ENDBRANCH   1   3
BRANCH   1  10
ATOM     10  C   UNL     1       5.318   4.500  18.757  0.00  0.00    +0.000 C 
BRANCH  10  11
ATOM     11  O   UNL     1       5.411   3.144  19.182  0.00  0.00    +0.000 OA
ATOM     12  H   UNL     1       4.504   2.830  19.372  0.00  0.00    +0.000 HD
ENDBRANCH  10  11
BRANCH  10  13
ATOM     13  C   UNL     1       6.695   5.022  18.338  0.00  0.00    +0.000 C 
BRANCH  13  14
ATOM     14  O   UNL     1       7.294   4.184  17.349  0.00  0.00    +0.000 OA
ATOM     15  H   UNL     1       7.866   3.537  17.798  0.00  0.00    +0.000 HD
ENDBRANCH  13  14
ENDBRANCH  10  13
ENDBRANCH   1  10
TORSDOF 9
ENDMDL
MODEL 8
REMARK VINA RESULT:      -5.0      1.390      2.223
REMARK  Name = 
REMARK  10 active torsions:
REMARK  status: ('A' for Active; 'I' for Inactive)
REMARK    1  A    between atoms: C_1  and  C_2
REMARK    2  A    between atoms: C_2  and  C_3
REMARK    3  A    between atoms: C_3  and  C_4
REMARK    4  A    between atoms: C_4  and  C_5
REMARK    5  A    between atoms: C_5  and  C_6
REMARK    6  A    between atoms: C_6  and  C_8
REMARK    7  A    between atoms: C_8  and  C_10
REMARK    8  A    between atoms: C_10  and  O_11
REMARK    9  A    between atoms: C_10  and  C_12
REMARK   10  A    between atoms: C_12  and  O_13
REMARK                            x       y       z     vdW  Elec       q    Type
REMARK                         _______ _______ _______ _____ _____    ______ ____
ROOT
ATOM      1  C   UNL     1       5.324   4.129  16.981  0.00  0.00    +0.000 C 
ATOM      2  O   UNL     1       5.590   3.648  15.884  0.00  0.00    +0.000 OA
ENDROOT
BRANCH   1   3
ATOM      3  C   UNL     1       4.246   3.484  17.826  0.00  0.00    +0.000 C 
ATOM      4  O   UNL     1       4.525   3.160  18.980  0.00  0.00    +0.000 OA
BRANCH   3   5
ATOM      5  C   UNL     1       2.909   3.283  17.162  0.00  0.00    +0.000 C 
BRANCH   5   6
ATOM      6  C   UNL     1       1.787   3.891  17.999  0.00  0.00    +0.000 C 
BRANCH   6   7
ATOM      7  C   UNL     1       0.979   2.819  18.729  0.00  0.00    +0.000 C 
BRANCH   7   9
ATOM      8  C   UNL     1       1.355   4.517  20.552  0.00  0.00    +0.000 C 
ATOM      9  C   UNL     1       0.954   3.087  20.233  0.00  0.00    +0.000 C 
ENDBRANCH   7   9
ENDBRANCH   6   7
ENDBRANCH   5   6
ENDBRANCH   3   5
ENDBRANCH   1   3
BRANCH   1  10
ATOM     10  C   UNL     1       5.968   5.378  17.561  0.00  0.00    +0.000 C 
BRANCH  10  11
ATOM     11  O   UNL     1       5.198   5.973  18.601  0.00  0.00    +0.000 OA
ATOM     12  H   UNL     1       4.966   5.268  19.239  0.00  0.00    +0.000 HD
ENDBRANCH  10  11
BRANCH  10  13
ATOM     13  C   UNL     1       7.379   5.055  18.061  0.00  0.00    +0.000 C 
BRANCH  13  14
ATOM     14  O   UNL     1       8.041   4.130  17.198  0.00  0.00    +0.000 OA
ATOM     15  H   UNL     1       8.069   4.509  16.302  0.00  0.00    +0.000 HD
ENDBRANCH  13  14
ENDBRANCH  10  13
ENDBRANCH   1  10
TORSDOF 9
ENDMDL
MODEL 9
REMARK VINA RESULT:      -5.0      1.199      2.388
REMARK  Name = 
REMARK  10 active torsions:
REMARK  status: ('A' for Active; 'I' for Inactive)
REMARK    1  A    between atoms: C_1  and  C_2
REMARK    2  A    between atoms: C_2  and  C_3
REMARK    3  A    between atoms: C_3  and  C_4
REMARK    4  A    between atoms: C_4  and  C_5
REMARK    5  A    between atoms: C_5  and  C_6
REMARK    6  A    between atoms: C_6  and  C_8
REMARK    7  A    between atoms: C_8  and  C_10
REMARK    8  A    between atoms: C_10  and  O_11
REMARK    9  A    between atoms: C_10  and  C_12
REMARK   10  A    between atoms: C_12  and  O_13
REMARK                            x       y       z     vdW  Elec       q    Type
REMARK                         _______ _______ _______ _____ _____    ______ ____
ROOT
ATOM      1  C   UNL     1       4.940   5.328  17.353  0.00  0.00    +0.000 C 
ATOM      2  O   UNL     1       4.707   5.807  16.249  0.00  0.00    +0.000 OA
ENDROOT
BRANCH   1   3
ATOM      3  C   UNL     1       3.783   4.883  18.222  0.00  0.00    +0.000 C 
ATOM      4  O   UNL     1       3.599   5.463  19.292  0.00  0.00    +0.000 OA
BRANCH   3   5
ATOM      5  C   UNL     1       2.952   3.743  17.694  0.00  0.00    +0.000 C 
BRANCH   5   6
ATOM      6  C   UNL     1       1.489   3.897  18.101  0.00  0.00    +0.000 C 
BRANCH   6   7
ATOM      7  C   UNL     1       1.074   2.850  19.132  0.00  0.00    +0.000 C 
BRANCH   7   9
ATOM      8  C   UNL     1       1.939   2.814  21.497  0.00  0.00    +0.000 C 
ATOM      9  C   UNL     1       0.973   3.468  20.525  0.00  0.00    +0.000 C 
ENDBRANCH   7   9
ENDBRANCH   6   7
ENDBRANCH   5   6
ENDBRANCH   3   5
ENDBRANCH   1   3
BRANCH   1  10
ATOM     10  C   UNL     1       6.325   5.180  17.960  0.00  0.00    +0.000 C 
BRANCH  10  11
ATOM     11  O   UNL     1       6.342   4.358  19.124  0.00  0.00    +0.000 OA
ATOM     12  H   UNL     1       7.144   3.799  19.080  0.00  0.00    +0.000 HD
ENDBRANCH  10  11
BRANCH  10  13
ATOM     13  C   UNL     1       7.302   4.639  16.913  0.00  0.00    +0.000 C 
BRANCH  13  14
ATOM     14  O   UNL     1       7.574   5.610  15.901  0.00  0.00    +0.000 OA
ATOM     15  H   UNL     1       8.218   6.250  16.252  0.00  0.00    +0.000 HD
ENDBRANCH  13  14
ENDBRANCH  10  13
ENDBRANCH   1  10
TORSDOF 9
ENDMDL
