MODEL 1
REMARK VINA RESULT:      -6.5      0.000      0.000
REMARK  Name = 
REMARK  9 active torsions:
REMARK  status: ('A' for Active; 'I' for Inactive)
REMARK    1  A    between atoms: C_1  and  C_2
REMARK    2  A    between atoms: C_2  and  C_3
REMARK    3  A    between atoms: C_3  and  C_4
REMARK    4  A    between atoms: C_3  and  N_5
REMARK    5  A    between atoms: N_5  and  C_6
REMARK    6  A    between atoms: C_6  and  N_8
REMARK    7  A    between atoms: C_9  and  C_11
REMARK    8  A    between atoms: C_16  and  O_17
REMARK    9  A    between atoms: O_17  and  C_18
REMARK                            x       y       z     vdW  Elec       q    Type
REMARK                         _______ _______ _______ _____ _____    ______ ____
ROOT
ATOM      1  N   UNL     1       4.970   4.118  17.522  0.00  0.00    +0.000 N 
ATOM      2  C   UNL     1       3.944   4.995  17.875  0.00  0.00    +0.000 C 
ATOM      3  O   UNL     1       3.908   6.165  17.500  0.00  0.00    +0.000 OA
ATOM      4  H   UNL     1       5.007   3.206  17.957  0.00  0.00    +0.000 HD
ENDROOT
BRANCH   2   5
ATOM      5  C   UNL     1       2.896   4.438  18.772  0.00  0.00    +0.000 A 
ATOM      6  C   UNL     1       2.243   5.350  19.633  0.00  0.00    +0.000 A 
ATOM      7  C   UNL     1       1.262   4.933  20.530  0.00  0.00    +0.000 A 
ATOM      8  C   UNL     1       0.893   3.592  20.564  0.00  0.00    +0.000 A 
ATOM      9  C   UNL     1       1.489   2.694  19.678  0.00  0.00    +0.000 A 
ATOM     10  C   UNL     1       2.486   3.094  18.775  0.00  0.00    +0.000 A 
BRANCH  10  11
ATOM     11  O   UNL     1       2.852   2.069  17.946  0.00  0.00    +0.000 OA
ATOM     12  C   UNL     1       3.761   1.082  18.407  0.00  0.00    +0.000 C 
ENDBRANCH  10  11
ENDBRANCH   2   5
BRANCH   1  13
ATOM     13  C   UNL     1       6.037   4.338  16.677  0.00  0.00    +0.000 C 
ATOM     14  S   UNL     1       5.735   4.413  15.038  0.00  0.00    +0.000 S 
BRANCH  13  15
ATOM     15  N   UNL     1       7.248   4.495  17.292  0.00  0.00    +0.000 N 
ATOM     16  H   UNL     1       7.984   3.905  16.908  0.00  0.00    +0.000 HD
BRANCH  15  17
ATOM     17  C   UNL     1       7.722   5.691  17.985  0.00  0.00    +0.000 C 
ATOM     18  C   UNL     1       7.273   5.609  19.447  0.00  0.00    +0.000 C 
BRANCH  17  20
ATOM     19  C   UNL     1       7.939   8.215  17.715  0.00  0.00    +0.000 C 
ATOM     20  C   UNL     1       7.164   6.962  17.328  0.00  0.00    +0.000 C 
ENDBRANCH  17  20
ENDBRANCH  15  17
ENDBRANCH  13  15
ENDBRANCH   1  13
TORSDOF 6
ENDMDL
MODEL 2
REMARK VINA RESULT:      -6.5      2.433      6.091
REMARK  Name = 
REMARK  9 active torsions:
REMARK  status: ('A' for Active; 'I' for Inactive)
REMARK    1  A    between atoms: C_1  and  C_2
REMARK    2  A    between atoms: C_2  and  C_3
REMARK    3  A    between atoms: C_3  and  C_4
REMARK    4  A    between atoms: C_3  and  N_5
REMARK    5  A    between atoms: N_5  and  C_6
REMARK    6  A    between atoms: C_6  and  N_8
REMARK    7  A    between atoms: C_9  and  C_11
REMARK    8  A    between atoms: C_16  and  O_17
REMARK    9  A    between atoms: O_17  and  C_18
REMARK                            x       y       z     vdW  Elec       q    Type
REMARK                         _______ _______ _______ _____ _____    ______ ____
ROOT
ATOM      1  N   UNL     1       3.775   5.293  18.371  0.00  0.00    +0.000 N 
ATOM      2  C   UNL     1       5.011   4.653  18.281  0.00  0.00    +0.000 C 
ATOM      3  O   UNL     1       5.566   4.132  19.247  0.00  0.00    +0.000 OA
ATOM      4  H   UNL     1       3.427   5.804  17.571  0.00  0.00    +0.000 HD
ENDROOT
BRANCH   2   5
ATOM      5  C   UNL     1       5.651   4.665  16.938  0.00  0.00    +0.000 A 
ATOM      6  C   UNL     1       4.906   4.110  15.871  0.00  0.00    +0.000 A 
ATOM      7  C   UNL     1       5.419   4.050  14.577  0.00  0.00    +0.000 A 
ATOM      8  C   UNL     1       6.680   4.573  14.317  0.00  0.00    +0.000 A 
ATOM      9  C   UNL     1       7.398   5.178  15.348  0.00  0.00    +0.000 A 
ATOM     10  C   UNL     1       6.903   5.238  16.660  0.00  0.00    +0.000 A 
BRANCH  10  11
ATOM     11  O   UNL     1       7.733   5.958  17.476  0.00  0.00    +0.000 OA
ATOM     12  C   UNL     1       7.564   7.362  17.589  0.00  0.00    +0.000 C 
ENDBRANCH  10  11
ENDBRANCH   2   5
BRANCH   1  13
ATOM     13  C   UNL     1       2.939   5.398  19.462  0.00  0.00    +0.000 C 
ATOM     14  S   UNL     1       2.312   6.900  19.827  0.00  0.00    +0.000 S 
BRANCH  13  15
ATOM     15  N   UNL     1       2.693   4.227  20.125  0.00  0.00    +0.000 N 
ATOM     16  H   UNL     1       3.300   4.075  20.929  0.00  0.00    +0.000 HD
BRANCH  15  17
ATOM     17  C   UNL     1       1.425   3.504  20.171  0.00  0.00    +0.000 C 
ATOM     18  C   UNL     1       1.323   2.798  21.525  0.00  0.00    +0.000 C 
BRANCH  17  20
ATOM     19  C   UNL     1       2.692   1.911  18.639  0.00  0.00    +0.000 C 
ATOM     20  C   UNL     1       1.334   2.482  19.029  0.00  0.00    +0.000 C 
ENDBRANCH  17  20
ENDBRANCH  15  17
ENDBRANCH  13  15
ENDBRANCH   1  13
TORSDOF 6
ENDMDL
MODEL 3
REMARK VINA RESULT:      -6.5      1.622      2.515
REMARK  Name = 
REMARK  9 active torsions:
REMARK  status: ('A' for Active; 'I' for Inactive)
REMARK    1  A    between atoms: C_1  and  C_2
REMARK    2  A    between atoms: C_2  and  C_3
REMARK    3  A    between atoms: C_3  and  C_4
REMARK    4  A    between atoms: C_3  and  N_5
REMARK    5  A    between atoms: N_5  and  C_6
REMARK    6  A    between atoms: C_6  and  N_8
REMARK    7  A    between atoms: C_9  and  C_11
REMARK    8  A    between atoms: C_16  and  O_17
REMARK    9  A    between atoms: O_17  and  C_18
REMARK                            x       y       z     vdW  Elec       q    Type
REMARK                         _______ _______ _______ _____ _____    ______ ____
ROOT
ATOM      1  N   UNL     1       4.706   4.998  17.703  0.00  0.00    +0.000 N 
ATOM      2  C   UNL     1       4.775   4.274  18.894  0.00  0.00    +0.000 C 
ATOM      3  O   UNL     1       5.834   3.863  19.364  0.00  0.00    +0.000 OA
ATOM      4  H   UNL     1       3.799   5.205  17.306  0.00  0.00    +0.000 HD
ENDROOT
BRANCH   2   5
ATOM      5  C   UNL     1       3.473   3.992  19.556  0.00  0.00    +0.000 A 
ATOM      6  C   UNL     1       3.422   2.865  20.409  0.00  0.00    +0.000 A 
ATOM      7  C   UNL     1       2.248   2.496  21.062  0.00  0.00    +0.000 A 
ATOM      8  C   UNL     1       1.103   3.268  20.897  0.00  0.00    +0.000 A 
ATOM      9  C   UNL     1       1.158   4.415  20.106  0.00  0.00    +0.000 A 
ATOM     10  C   UNL     1       2.328   4.796  19.432  0.00  0.00    +0.000 A 
BRANCH  10  11
ATOM     11  O   UNL     1       2.173   6.000  18.798  0.00  0.00    +0.000 OA
ATOM     12  C   UNL     1       2.403   7.204  19.512  0.00  0.00    +0.000 C 
ENDBRANCH  10  11
ENDBRANCH   2   5
BRANCH   1  13
ATOM     13  C   UNL     1       5.738   5.441  16.905  0.00  0.00    +0.000 C 
ATOM     14  S   UNL     1       6.340   4.399  15.749  0.00  0.00    +0.000 S 
BRANCH  13  15
ATOM     15  N   UNL     1       6.150   6.724  17.141  0.00  0.00    +0.000 N 
ATOM     16  H   UNL     1       5.409   7.340  17.472  0.00  0.00    +0.000 HD
BRANCH  15  17
ATOM     17  C   UNL     1       7.502   7.152  17.491  0.00  0.00    +0.000 C 
ATOM     18  C   UNL     1       7.904   6.455  18.793  0.00  0.00    +0.000 C 
BRANCH  17  20
ATOM     19  C   UNL     1       8.744   9.124  18.518  0.00  0.00    +0.000 C 
ATOM     20  C   UNL     1       7.568   8.677  17.660  0.00  0.00    +0.000 C 
ENDBRANCH  17  20
ENDBRANCH  15  17
ENDBRANCH  13  15
ENDBRANCH   1  13
TORSDOF 6
ENDMDL
MODEL 4
REMARK VINA RESULT:      -6.5      1.181      1.209
REMARK  Name = 
REMARK  9 active torsions:
REMARK  status: ('A' for Active; 'I' for Inactive)
REMARK    1  A    between atoms: C_1  and  C_2
REMARK    2  A    between atoms: C_2  and  C_3
REMARK    3  A    between atoms: C_3  and  C_4
REMARK    4  A    between atoms: C_3  and  N_5
REMARK    5  A    between atoms: N_5  and  C_6
REMARK    6  A    between atoms: C_6  and  N_8
REMARK    7  A    between atoms: C_9  and  C_11
REMARK    8  A    between atoms: C_16  and  O_17
REMARK    9  A    between atoms: O_17  and  C_18
REMARK                            x       y       z     vdW  Elec       q    Type
REMARK                         _______ _______ _______ _____ _____    ______ ____
ROOT
ATOM      1  N   UNL     1       5.192   3.901  17.828  0.00  0.00    +0.000 N 
ATOM      2  C   UNL     1       4.035   4.621  18.129  0.00  0.00    +0.000 C 
ATOM      3  O   UNL     1       3.758   5.694  17.596  0.00  0.00    +0.000 OA
ATOM      4  H   UNL     1       5.423   3.089  18.383  0.00  0.00    +0.000 HD
ENDROOT
BRANCH   2   5
ATOM      5  C   UNL     1       3.157   4.028  19.173  0.00  0.00    +0.000 A 
ATOM      6  C   UNL     1       1.784   4.363  19.119  0.00  0.00    +0.000 A 
ATOM      7  C   UNL     1       0.878   3.881  20.060  0.00  0.00    +0.000 A 
ATOM      8  C   UNL     1       1.323   3.027  21.063  0.00  0.00    +0.000 A 
ATOM      9  C   UNL     1       2.664   2.642  21.091  0.00  0.00    +0.000 A 
ATOM     10  C   UNL     1       3.594   3.125  20.158  0.00  0.00    +0.000 A 
BRANCH  10  11
ATOM     11  O   UNL     1       4.819   2.539  20.322  0.00  0.00    +0.000 OA
ATOM     12  C   UNL     1       4.928   1.125  20.318  0.00  0.00    +0.000 C 
ENDBRANCH  10  11
ENDBRANCH   2   5
BRANCH   1  13
ATOM     13  C   UNL     1       6.155   4.179  16.881  0.00  0.00    +0.000 C 
ATOM     14  S   UNL     1       5.709   4.138  15.274  0.00  0.00    +0.000 S 
BRANCH  13  15
ATOM     15  N   UNL     1       7.392   4.485  17.378  0.00  0.00    +0.000 N 
ATOM     16  H   UNL     1       8.155   3.994  16.915  0.00  0.00    +0.000 HD
BRANCH  15  17
ATOM     17  C   UNL     1       7.778   5.729  18.040  0.00  0.00    +0.000 C 
ATOM     18  C   UNL     1       7.400   5.623  19.520  0.00  0.00    +0.000 C 
BRANCH  17  20
ATOM     19  C   UNL     1       7.807   8.246  17.648  0.00  0.00    +0.000 C 
ATOM     20  C   UNL     1       7.076   6.934  17.396  0.00  0.00    +0.000 C 
ENDBRANCH  17  20
ENDBRANCH  15  17
ENDBRANCH  13  15
ENDBRANCH   1  13
TORSDOF 6
ENDMDL
MODEL 5
REMARK VINA RESULT:      -6.4      1.769      2.540
REMARK  Name = 
REMARK  9 active torsions:
REMARK  status: ('A' for Active; 'I' for Inactive)
REMARK    1  A    between atoms: C_1  and  C_2
REMARK    2  A    between atoms: C_2  and  C_3
REMARK    3  A    between atoms: C_3  and  C_4
REMARK    4  A    between atoms: C_3  and  N_5
REMARK    5  A    between atoms: N_5  and  C_6
REMARK    6  A    between atoms: C_6  and  N_8
REMARK    7  A    between atoms: C_9  and  C_11
REMARK    8  A    between atoms: C_16  and  O_17
REMARK    9  A    between atoms: O_17  and  C_18
REMARK                            x       y       z     vdW  Elec       q    Type
REMARK                         _______ _______ _______ _____ _____    ______ ____
ROOT
ATOM      1  N   UNL     1       5.714   4.431  18.926  0.00  0.00    +0.000 N 
ATOM      2  C   UNL     1       4.496   5.111  18.929  0.00  0.00    +0.000 C 
ATOM      3  O   UNL     1       4.357   6.234  18.447  0.00  0.00    +0.000 OA
ATOM      4  H   UNL     1       5.793   3.564  19.441  0.00  0.00    +0.000 HD
ENDROOT
BRANCH   2   5
ATOM      5  C   UNL     1       3.363   4.409  19.590  0.00  0.00    +0.000 A 
ATOM      6  C   UNL     1       2.244   5.196  19.945  0.00  0.00    +0.000 A 
ATOM      7  C   UNL     1       1.138   4.644  20.588  0.00  0.00    +0.000 A 
ATOM      8  C   UNL     1       1.117   3.282  20.864  0.00  0.00    +0.000 A 
ATOM      9  C   UNL     1       2.189   2.485  20.464  0.00  0.00    +0.000 A 
ATOM     10  C   UNL     1       3.316   3.024  19.825  0.00  0.00    +0.000 A 
BRANCH  10  11
ATOM     11  O   UNL     1       4.192   2.045  19.442  0.00  0.00    +0.000 OA
ATOM     12  C   UNL     1       3.863   1.193  18.356  0.00  0.00    +0.000 C 
ENDBRANCH  10  11
ENDBRANCH   2   5
BRANCH   1  13
ATOM     13  C   UNL     1       6.909   4.809  18.353  0.00  0.00    +0.000 C 
ATOM     14  S   UNL     1       7.837   5.942  19.153  0.00  0.00    +0.000 S 
BRANCH  13  15
ATOM     15  N   UNL     1       7.218   4.184  17.177  0.00  0.00    +0.000 N 
ATOM     16  H   UNL     1       7.251   3.168  17.248  0.00  0.00    +0.000 HD
BRANCH  15  17
ATOM     17  C   UNL     1       6.973   4.696  15.831  0.00  0.00    +0.000 C 
ATOM     18  C   UNL     1       6.461   6.133  15.950  0.00  0.00    +0.000 C 
BRANCH  17  20
ATOM     19  C   UNL     1       6.127   3.859  13.578  0.00  0.00    +0.000 C 
ATOM     20  C   UNL     1       5.948   3.824  15.090  0.00  0.00    +0.000 C 
ENDBRANCH  17  20
ENDBRANCH  15  17
ENDBRANCH  13  15
ENDBRANCH   1  13
TORSDOF 6
ENDMDL
MODEL 6
REMARK VINA RESULT:      -6.4      1.319      2.236
REMARK  Name = 
REMARK  9 active torsions:
REMARK  status: ('A' for Active; 'I' for Inactive)
REMARK    1  A    between atoms: C_1  and  C_2
REMARK    2  A    between atoms: C_2  and  C_3
REMARK    3  A    between atoms: C_3  and  C_4
REMARK    4  A    between atoms: C_3  and  N_5
REMARK    5  A    between atoms: N_5  and  C_6
REMARK    6  A    between atoms: C_6  and  N_8
REMARK    7  A    between atoms: C_9  and  C_11
REMARK    8  A    between atoms: C_16  and  O_17
REMARK    9  A    between atoms: O_17  and  C_18
REMARK                            x       y       z     vdW  Elec       q    Type
REMARK                         _______ _______ _______ _____ _____    ______ ____
ROOT
ATOM      1  N   UNL     1       5.490   3.989  17.037  0.00  0.00    +0.000 N 
ATOM      2  C   UNL     1       4.316   4.718  17.231  0.00  0.00    +0.000 C 
ATOM      3  O   UNL     1       4.210   5.906  16.931  0.00  0.00    +0.000 OA
ATOM      4  H   UNL     1       5.553   3.052  17.412  0.00  0.00    +0.000 HD
ENDROOT
BRANCH   2   5
ATOM      5  C   UNL     1       3.191   3.977  17.863  0.00  0.00    +0.000 A 
ATOM      6  C   UNL     1       3.152   2.579  17.657  0.00  0.00    +0.000 A 
ATOM      7  C   UNL     1       2.130   1.792  18.184  0.00  0.00    +0.000 A 
ATOM      8  C   UNL     1       1.138   2.387  18.956  0.00  0.00    +0.000 A 
ATOM      9  C   UNL     1       1.200   3.756  19.215  0.00  0.00    +0.000 A 
ATOM     10  C   UNL     1       2.215   4.566  18.684  0.00  0.00    +0.000 A 
BRANCH  10  11
ATOM     11  O   UNL     1       2.127   5.850  19.150  0.00  0.00    +0.000 OA
ATOM     12  C   UNL     1       1.964   6.085  20.540  0.00  0.00    +0.000 C 
ENDBRANCH  10  11
ENDBRANCH   2   5
BRANCH   1  13
ATOM     13  C   UNL     1       6.664   4.394  16.440  0.00  0.00    +0.000 C 
ATOM     14  S   UNL     1       6.687   4.542  14.778  0.00  0.00    +0.000 S 
BRANCH  13  15
ATOM     15  N   UNL     1       7.697   4.655  17.297  0.00  0.00    +0.000 N 
ATOM     16  H   UNL     1       8.571   4.200  17.039  0.00  0.00    +0.000 HD
BRANCH  15  17
ATOM     17  C   UNL     1       7.849   5.841  18.137  0.00  0.00    +0.000 C 
ATOM     18  C   UNL     1       7.103   5.597  19.451  0.00  0.00    +0.000 C 
BRANCH  17  20
ATOM     19  C   UNL     1       8.012   8.366  17.843  0.00  0.00    +0.000 C 
ATOM     20  C   UNL     1       7.294   7.087  17.432  0.00  0.00    +0.000 C 
ENDBRANCH  17  20
ENDBRANCH  15  17
ENDBRANCH  13  15
ENDBRANCH   1  13
TORSDOF 6
ENDMDL
MODEL 7
REMARK VINA RESULT:      -6.4      1.224      1.232
REMARK  Name = 
REMARK  9 active torsions:
REMARK  status: ('A' for Active; 'I' for Inactive)
REMARK    1  A    between atoms: C_1  and  C_2
REMARK    2  A    between atoms: C_2  and  C_3
REMARK    3  A    between atoms: C_3  and  C_4
REMARK    4  A    between atoms: C_3  and  N_5
REMARK    5  A    between atoms: N_5  and  C_6
REMARK    6  A    between atoms: C_6  and  N_8
REMARK    7  A    between atoms: C_9  and  C_11
REMARK    8  A    between atoms: C_16  and  O_17
REMARK    9  A    between atoms: O_17  and  C_18
REMARK                            x       y       z     vdW  Elec       q    Type
REMARK                         _______ _______ _______ _____ _____    ______ ____
ROOT
ATOM      1  N   UNL     1       4.528   5.018  16.930  0.00  0.00    +0.000 N 
ATOM      2  C   UNL     1       3.789   5.930  17.685  0.00  0.00    +0.000 C 
ATOM      3  O   UNL     1       3.965   7.145  17.622  0.00  0.00    +0.000 OA
ATOM      4  H   UNL     1       4.420   4.029  17.112  0.00  0.00    +0.000 HD
ENDROOT
BRANCH   2   5
ATOM      5  C   UNL     1       2.784   5.341  18.610  0.00  0.00    +0.000 A 
ATOM      6  C   UNL     1       2.461   6.093  19.763  0.00  0.00    +0.000 A 
ATOM      7  C   UNL     1       1.550   5.624  20.707  0.00  0.00    +0.000 A 
ATOM      8  C   UNL     1       0.919   4.402  20.501  0.00  0.00    +0.000 A 
ATOM      9  C   UNL     1       1.186   3.680  19.338  0.00  0.00    +0.000 A 
ATOM     10  C   UNL     1       2.108   4.130  18.381  0.00  0.00    +0.000 A 
BRANCH  10  11
ATOM     11  O   UNL     1       2.134   3.311  17.285  0.00  0.00    +0.000 OA
ATOM     12  C   UNL     1       2.726   2.025  17.382  0.00  0.00    +0.000 C 
ENDBRANCH  10  11
ENDBRANCH   2   5
BRANCH   1  13
ATOM     13  C   UNL     1       5.482   5.272  15.968  0.00  0.00    +0.000 C 
ATOM     14  S   UNL     1       5.412   4.401  14.546  0.00  0.00    +0.000 S 
BRANCH  13  15
ATOM     15  N   UNL     1       6.387   6.247  16.285  0.00  0.00    +0.000 N 
ATOM     16  H   UNL     1       5.987   7.183  16.323  0.00  0.00    +0.000 HD
BRANCH  15  17
ATOM     17  C   UNL     1       7.614   6.074  17.058  0.00  0.00    +0.000 C 
ATOM     18  C   UNL     1       7.614   4.663  17.651  0.00  0.00    +0.000 C 
BRANCH  17  20
ATOM     19  C   UNL     1       7.854   8.542  17.645  0.00  0.00    +0.000 C 
ATOM     20  C   UNL     1       7.710   7.122  18.177  0.00  0.00    +0.000 C 
ENDBRANCH  17  20
ENDBRANCH  15  17
ENDBRANCH  13  15
ENDBRANCH   1  13
TORSDOF 6
ENDMDL
MODEL 8
REMARK VINA RESULT:      -6.3      2.049      3.302
REMARK  Name = 
REMARK  9 active torsions:
REMARK  status: ('A' for Active; 'I' for Inactive)
REMARK    1  A    between atoms: C_1  and  C_2
REMARK    2  A    between atoms: C_2  and  C_3
REMARK    3  A    between atoms: C_3  and  C_4
REMARK    4  A    between atoms: C_3  and  N_5
REMARK    5  A    between atoms: N_5  and  C_6
REMARK    6  A    between atoms: C_6  and  N_8
REMARK    7  A    between atoms: C_9  and  C_11
REMARK    8  A    between atoms: C_16  and  O_17
REMARK    9  A    between atoms: O_17  and  C_18
REMARK                            x       y       z     vdW  Elec       q    Type
REMARK                         _______ _______ _______ _____ _____    ______ ____
ROOT
ATOM      1  N   UNL     1       5.445   4.753  18.940  0.00  0.00    +0.000 N 
ATOM      2  C   UNL     1       4.494   3.786  18.613  0.00  0.00    +0.000 C 
ATOM      3  O   UNL     1       4.581   3.075  17.614  0.00  0.00    +0.000 OA
ATOM      4  H   UNL     1       5.258   5.386  19.707  0.00  0.00    +0.000 HD
ENDROOT
BRANCH   2   5
ATOM      5  C   UNL     1       3.331   3.684  19.535  0.00  0.00    +0.000 A 
ATOM      6  C   UNL     1       3.335   2.607  20.452  0.00  0.00    +0.000 A 
ATOM      7  C   UNL     1       2.285   2.405  21.344  0.00  0.00    +0.000 A 
ATOM      8  C   UNL     1       1.218   3.296  21.359  0.00  0.00    +0.000 A 
ATOM      9  C   UNL     1       1.232   4.396  20.501  0.00  0.00    +0.000 A 
ATOM     10  C   UNL     1       2.276   4.611  19.587  0.00  0.00    +0.000 A 
BRANCH  10  11
ATOM     11  O   UNL     1       2.124   5.797  18.922  0.00  0.00    +0.000 OA
ATOM     12  C   UNL     1       2.395   7.018  19.591  0.00  0.00    +0.000 C 
ENDBRANCH  10  11
ENDBRANCH   2   5
BRANCH   1  13
ATOM     13  C   UNL     1       6.635   5.038  18.305  0.00  0.00    +0.000 C 
ATOM     14  S   UNL     1       7.824   5.815  19.180  0.00  0.00    +0.000 S 
BRANCH  13  15
ATOM     15  N   UNL     1       6.717   4.623  17.005  0.00  0.00    +0.000 N 
ATOM     16  H   UNL     1       6.406   3.664  16.858  0.00  0.00    +0.000 HD
BRANCH  15  17
ATOM     17  C   UNL     1       6.663   5.472  15.817  0.00  0.00    +0.000 C 
ATOM     18  C   UNL     1       5.263   6.085  15.729  0.00  0.00    +0.000 C 
BRANCH  17  20
ATOM     19  C   UNL     1       5.729   4.020  13.943  0.00  0.00    +0.000 C 
ATOM     20  C   UNL     1       6.970   4.662  14.549  0.00  0.00    +0.000 C 
ENDBRANCH  17  20
ENDBRANCH  15  17
ENDBRANCH  13  15
ENDBRANCH   1  13
TORSDOF 6
ENDMDL
MODEL 9
REMARK VINA RESULT:      -6.2      2.192      2.913
REMARK  Name = 
REMARK  9 active torsions:
REMARK  status: ('A' for Active; 'I' for Inactive)
REMARK    1  A    between atoms: C_1  and  C_2
REMARK    2  A    between atoms: C_2  and  C_3
REMARK    3  A    between atoms: C_3  and  C_4
REMARK    4  A    between atoms: C_3  and  N_5
REMARK    5  A    between atoms: N_5  and  C_6
REMARK    6  A    between atoms: C_6  and  N_8
REMARK    7  A    between atoms: C_9  and  C_11
REMARK    8  A    between atoms: C_16  and  O_17
REMARK    9  A    between atoms: O_17  and  C_18
REMARK                            x       y       z     vdW  Elec       q    Type
REMARK                         _______ _______ _______ _____ _____    ______ ____
ROOT
ATOM      1  N   UNL     1       5.476   4.413  18.629  0.00  0.00    +0.000 N 
ATOM      2  C   UNL     1       4.098   4.363  18.414  0.00  0.00    +0.000 C 
ATOM      3  O   UNL     1       3.567   4.784  17.388  0.00  0.00    +0.000 OA
ATOM      4  H   UNL     1       5.841   4.162  19.538  0.00  0.00    +0.000 HD
ENDROOT
BRANCH   2   5
ATOM      5  C   UNL     1       3.290   3.796  19.527  0.00  0.00    +0.000 A 
ATOM      6  C   UNL     1       1.996   4.334  19.715  0.00  0.00    +0.000 A 
ATOM      7  C   UNL     1       1.164   3.892  20.740  0.00  0.00    +0.000 A 
ATOM      8  C   UNL     1       1.600   2.877  21.585  0.00  0.00    +0.000 A 
ATOM      9  C   UNL     1       2.850   2.297  21.372  0.00  0.00    +0.000 A 
ATOM     10  C   UNL     1       3.707   2.736  20.351  0.00  0.00    +0.000 A 
BRANCH  10  11
ATOM     11  O   UNL     1       4.832   1.961  20.271  0.00  0.00    +0.000 OA
ATOM     12  C   UNL     1       5.208   1.153  21.376  0.00  0.00    +0.000 C 
ENDBRANCH  10  11
ENDBRANCH   2   5
BRANCH   1  13
ATOM     13  C   UNL     1       6.465   4.838  17.768  0.00  0.00    +0.000 C 
ATOM     14  S   UNL     1       7.475   6.064  18.278  0.00  0.00    +0.000 S 
BRANCH  13  15
ATOM     15  N   UNL     1       6.524   4.176  16.572  0.00  0.00    +0.000 N 
ATOM     16  H   UNL     1       6.162   3.224  16.610  0.00  0.00    +0.000 HD
BRANCH  15  17
ATOM     17  C   UNL     1       6.511   4.782  15.243  0.00  0.00    +0.000 C 
ATOM     18  C   UNL     1       5.538   5.964  15.263  0.00  0.00    +0.000 C 
BRANCH  17  20
ATOM     19  C   UNL     1       6.711   4.033  12.816  0.00  0.00    +0.000 C 
ATOM     20  C   UNL     1       6.086   3.760  14.178  0.00  0.00    +0.000 C 
ENDBRANCH  17  20
ENDBRANCH  15  17
ENDBRANCH  13  15
ENDBRANCH   1  13
TORSDOF 6
ENDMDL
