MODEL 1
REMARK VINA RESULT:      -6.8      0.000      0.000
REMARK  Name = 
REMARK  10 active torsions:
REMARK  status: ('A' for Active; 'I' for Inactive)
REMARK    1  A    between atoms: C_1  and  O_2
REMARK    2  A    between atoms: O_2  and  C_3
REMARK    3  A    between atoms: C_6  and  O_7
REMARK    4  A    between atoms: O_7  and  C_8
REMARK    5  A    between atoms: C_8  and  C_9
REMARK    6  A    between atoms: C_9  and  O_10
REMARK    7  A    between atoms: C_9  and  C_11
REMARK    8  A    between atoms: C_11  and  N_12
REMARK    9  A    between atoms: N_12  and  C_13
REMARK   10  A    between atoms: C_14  and  C_16
REMARK                            x       y       z     vdW  Elec       q    Type
REMARK                         _______ _______ _______ _____ _____    ______ ____
ROOT
ATOM      1  C   UNL     1       7.706   7.587  18.138  0.00  0.00    +0.000 C 
ENDROOT
BRANCH   1   2
ATOM      2  O   UNL     1       8.593   7.053  19.137  0.00  0.00    +0.000 OA
ATOM      3  H   UNL     1       8.276   6.166  19.364  0.00  0.00    +0.000 HD
ENDBRANCH   1   2
BRANCH   1   4
ATOM      4  C   UNL     1       8.376   8.803  17.461  0.00  0.00    +0.000 C 
BRANCH   4   5
ATOM      5  O   UNL     1       7.984  10.019  18.117  0.00  0.00    +0.000 OA
BRANCH   5   9
ATOM      6  C   UNL     1      11.112  12.526  19.284  0.00  0.00    +0.000 A 
ATOM      7  C   UNL     1      10.385  12.754  18.116  0.00  0.00    +0.000 A 
ATOM      8  C   UNL     1       9.329  11.908  17.765  0.00  0.00    +0.000 A 
ATOM      9  C   UNL     1       9.020  10.801  18.558  0.00  0.00    +0.000 A 
ATOM     10  C   UNL     1       9.742  10.582  19.733  0.00  0.00    +0.000 A 
ATOM     11  C   UNL     1      10.780  11.440  20.094  0.00  0.00    +0.000 A 
BRANCH   6  13
ATOM     12  C   UNL     1      11.716  14.770  19.591  0.00  0.00    +0.000 C 
ATOM     13  O   UNL     1      12.122  13.406  19.556  0.00  0.00    +0.000 OA
ENDBRANCH   6  13
ENDBRANCH   5   9
ENDBRANCH   4   5
ENDBRANCH   1   4
BRANCH   1  14
ATOM     14  C   UNL     1       7.354   6.491  17.108  0.00  0.00    +0.000 C 
BRANCH  14  15
ATOM     15  N   UNL     1       6.005   5.899  17.184  0.00  0.00    +0.000 N 
ATOM     16  C   UNL     1       4.933   6.453  16.344  0.00  0.00    +0.000 C 
ATOM     17  C   UNL     1       5.750   4.976  18.197  0.00  0.00    +0.000 C 
ATOM     18  O   UNL     1       6.619   4.630  19.034  0.00  0.00    +0.000 OA
BRANCH  17  19
ATOM     19  C   UNL     1       4.407   4.356  18.323  0.00  0.00    +0.000 A 
ATOM     20  C   UNL     1       4.080   3.221  17.577  0.00  0.00    +0.000 A 
ATOM     21  C   UNL     1       2.850   2.602  17.674  0.00  0.00    +0.000 A 
ATOM     22  C   UNL     1       1.931   3.090  18.593  0.00  0.00    +0.000 A 
ATOM     23 CL   UNL     1       0.444   2.269  18.799  0.00  0.00    +0.000 Cl
ATOM     24  C   UNL     1       2.233   4.213  19.362  0.00  0.00    +0.000 A 
ATOM     25  C   UNL     1       3.456   4.863  19.209  0.00  0.00    +0.000 A 
ENDBRANCH  17  19
ENDBRANCH  14  15
ENDBRANCH   1  14
TORSDOF 8
ENDMDL
MODEL 2
REMARK VINA RESULT:      -6.8      3.437      6.174
REMARK  Name = 
REMARK  10 active torsions:
REMARK  status: ('A' for Active; 'I' for Inactive)
REMARK    1  A    between atoms: C_1  and  O_2
REMARK    2  A    between atoms: O_2  and  C_3
REMARK    3  A    between atoms: C_6  and  O_7
REMARK    4  A    between atoms: O_7  and  C_8
REMARK    5  A    between atoms: C_8  and  C_9
REMARK    6  A    between atoms: C_9  and  O_10
REMARK    7  A    between atoms: C_9  and  C_11
REMARK    8  A    between atoms: C_11  and  N_12
REMARK    9  A    between atoms: N_12  and  C_13
REMARK   10  A    between atoms: C_14  and  C_16
REMARK                            x       y       z     vdW  Elec       q    Type
REMARK                         _______ _______ _______ _____ _____    ______ ____
ROOT
ATOM      1  C   UNL     1       3.835   2.074  19.156  0.00  0.00    +0.000 C 
ENDROOT
BRANCH   1   2
ATOM      2  O   UNL     1       3.809   0.820  18.450  0.00  0.00    +0.000 OA
ATOM      3  H   UNL     1       4.234   0.158  19.015  0.00  0.00    +0.000 HD
ENDBRANCH   1   2
BRANCH   1   4
ATOM      4  C   UNL     1       4.625   3.109  18.324  0.00  0.00    +0.000 C 
BRANCH   4   5
ATOM      5  O   UNL     1       5.519   3.850  19.169  0.00  0.00    +0.000 OA
BRANCH   5   9
ATOM      6  C   UNL     1       7.351   7.239  17.561  0.00  0.00    +0.000 A 
ATOM      7  C   UNL     1       7.959   6.480  18.561  0.00  0.00    +0.000 A 
ATOM      8  C   UNL     1       7.328   5.338  19.063  0.00  0.00    +0.000 A 
ATOM      9  C   UNL     1       6.065   4.970  18.598  0.00  0.00    +0.000 A 
ATOM     10  C   UNL     1       5.464   5.725  17.588  0.00  0.00    +0.000 A 
ATOM     11  C   UNL     1       6.105   6.851  17.073  0.00  0.00    +0.000 A 
BRANCH   6  13
ATOM     12  C   UNL     1       8.123   9.393  18.070  0.00  0.00    +0.000 C 
ATOM     13  O   UNL     1       8.041   8.335  17.122  0.00  0.00    +0.000 OA
ENDBRANCH   6  13
ENDBRANCH   5   9
ENDBRANCH   4   5
ENDBRANCH   1   4
BRANCH   1  14
ATOM     14  C   UNL     1       2.393   2.552  19.429  0.00  0.00    +0.000 C 
BRANCH  14  15
ATOM     15  N   UNL     1       2.062   3.946  19.078  0.00  0.00    +0.000 N 
ATOM     16  C   UNL     1       1.654   4.258  17.700  0.00  0.00    +0.000 C 
ATOM     17  C   UNL     1       2.351   4.943  20.008  0.00  0.00    +0.000 C 
ATOM     18  O   UNL     1       2.869   4.700  21.125  0.00  0.00    +0.000 OA
BRANCH  17  19
ATOM     19  C   UNL     1       2.046   6.364  19.701  0.00  0.00    +0.000 A 
ATOM     20  C   UNL     1       1.502   7.197  20.681  0.00  0.00    +0.000 A 
ATOM     21  C   UNL     1       1.218   8.528  20.444  0.00  0.00    +0.000 A 
ATOM     22  C   UNL     1       1.545   9.068  19.208  0.00  0.00    +0.000 A 
ATOM     23 CL   UNL     1       1.296  10.739  18.938  0.00  0.00    +0.000 Cl
ATOM     24  C   UNL     1       2.101   8.265  18.214  0.00  0.00    +0.000 A 
ATOM     25  C   UNL     1       2.326   6.909  18.448  0.00  0.00    +0.000 A 
ENDBRANCH  17  19
ENDBRANCH  14  15
ENDBRANCH   1  14
TORSDOF 8
ENDMDL
MODEL 3
REMARK VINA RESULT:      -6.8      0.956      1.333
REMARK  Name = 
REMARK  10 active torsions:
REMARK  status: ('A' for Active; 'I' for Inactive)
REMARK    1  A    between atoms: C_1  and  O_2
REMARK    2  A    between atoms: O_2  and  C_3
REMARK    3  A    between atoms: C_6  and  O_7
REMARK    4  A    between atoms: O_7  and  C_8
REMARK    5  A    between atoms: C_8  and  C_9
REMARK    6  A    between atoms: C_9  and  O_10
REMARK    7  A    between atoms: C_9  and  C_11
REMARK    8  A    between atoms: C_11  and  N_12
REMARK    9  A    between atoms: N_12  and  C_13
REMARK   10  A    between atoms: C_14  and  C_16
REMARK                            x       y       z     vdW  Elec       q    Type
REMARK                         _______ _______ _______ _____ _____    ______ ____
ROOT
ATOM      1  C   UNL     1       7.664   7.564  18.455  0.00  0.00    +0.000 C 
ENDROOT
BRANCH   1   2
ATOM      2  O   UNL     1       8.595   6.760  19.202  0.00  0.00    +0.000 OA
ATOM      3  H   UNL     1       8.237   6.654  20.096  0.00  0.00    +0.000 HD
ENDBRANCH   1   2
BRANCH   1   4
ATOM      4  C   UNL     1       8.357   8.875  18.022  0.00  0.00    +0.000 C 
BRANCH   4   5
ATOM      5  O   UNL     1       9.170   9.386  19.089  0.00  0.00    +0.000 OA
BRANCH   5   9
ATOM      6  C   UNL     1      10.039  13.469  19.095  0.00  0.00    +0.000 A 
ATOM      7  C   UNL     1      10.090  12.706  20.261  0.00  0.00    +0.000 A 
ATOM      8  C   UNL     1       9.815  11.336  20.221  0.00  0.00    +0.000 A 
ATOM      9  C   UNL     1       9.444  10.727  19.021  0.00  0.00    +0.000 A 
ATOM     10  C   UNL     1       9.404  11.492  17.854  0.00  0.00    +0.000 A 
ATOM     11  C   UNL     1       9.702  12.854  17.891  0.00  0.00    +0.000 A 
BRANCH   6  13
ATOM     12  C   UNL     1       9.689  15.633  18.265  0.00  0.00    +0.000 C 
ATOM     13  O   UNL     1      10.331  14.799  19.223  0.00  0.00    +0.000 OA
ENDBRANCH   6  13
ENDBRANCH   5   9
ENDBRANCH   4   5
ENDBRANCH   1   4
BRANCH   1  14
ATOM     14  C   UNL     1       7.146   6.770  17.236  0.00  0.00    +0.000 C 
BRANCH  14  15
ATOM     15  N   UNL     1       5.807   6.160  17.344  0.00  0.00    +0.000 N 
ATOM     16  C   UNL     1       4.645   6.888  16.812  0.00  0.00    +0.000 C 
ATOM     17  C   UNL     1       5.670   5.016  18.128  0.00  0.00    +0.000 C 
ATOM     18  O   UNL     1       6.633   4.488  18.734  0.00  0.00    +0.000 OA
BRANCH  17  19
ATOM     19  C   UNL     1       4.342   4.367  18.277  0.00  0.00    +0.000 A 
ATOM     20  C   UNL     1       3.914   3.414  17.350  0.00  0.00    +0.000 A 
ATOM     21  C   UNL     1       2.696   2.774  17.458  0.00  0.00    +0.000 A 
ATOM     22  C   UNL     1       1.899   3.042  18.563  0.00  0.00    +0.000 A 
ATOM     23 CL   UNL     1       0.436   2.178  18.763  0.00  0.00    +0.000 Cl
ATOM     24  C   UNL     1       2.305   3.978  19.512  0.00  0.00    +0.000 A 
ATOM     25  C   UNL     1       3.510   4.661  19.358  0.00  0.00    +0.000 A 
ENDBRANCH  17  19
ENDBRANCH  14  15
ENDBRANCH   1  14
TORSDOF 8
ENDMDL
MODEL 4
REMARK VINA RESULT:      -6.7      4.154      6.721
REMARK  Name = 
REMARK  10 active torsions:
REMARK  status: ('A' for Active; 'I' for Inactive)
REMARK    1  A    between atoms: C_1  and  O_2
REMARK    2  A    between atoms: O_2  and  C_3
REMARK    3  A    between atoms: C_6  and  O_7
REMARK    4  A    between atoms: O_7  and  C_8
REMARK    5  A    between atoms: C_8  and  C_9
REMARK    6  A    between atoms: C_9  and  O_10
REMARK    7  A    between atoms: C_9  and  C_11
REMARK    8  A    between atoms: C_11  and  N_12
REMARK    9  A    between atoms: N_12  and  C_13
REMARK   10  A    between atoms: C_14  and  C_16
REMARK                            x       y       z     vdW  Elec       q    Type
REMARK                         _______ _______ _______ _____ _____    ______ ____
ROOT
ATOM      1  C   UNL     1       4.182   2.976  19.188  0.00  0.00    +0.000 C 
ENDROOT
BRANCH   1   2
ATOM      2  O   UNL     1       5.157   2.081  19.754  0.00  0.00    +0.000 OA
ATOM      3  H   UNL     1       5.996   2.563  19.811  0.00  0.00    +0.000 HD
ENDBRANCH   1   2
BRANCH   1   4
ATOM      4  C   UNL     1       3.656   2.383  17.863  0.00  0.00    +0.000 C 
BRANCH   4   5
ATOM      5  O   UNL     1       3.590   3.400  16.852  0.00  0.00    +0.000 OA
BRANCH   5   9
ATOM      6  C   UNL     1       6.802   6.054  16.606  0.00  0.00    +0.000 A 
ATOM      7  C   UNL     1       5.481   6.500  16.614  0.00  0.00    +0.000 A 
ATOM      8  C   UNL     1       4.429   5.586  16.720  0.00  0.00    +0.000 A 
ATOM      9  C   UNL     1       4.688   4.215  16.775  0.00  0.00    +0.000 A 
ATOM     10  C   UNL     1       6.013   3.774  16.777  0.00  0.00    +0.000 A 
ATOM     11  C   UNL     1       7.062   4.688  16.695  0.00  0.00    +0.000 A 
BRANCH   6  13
ATOM     12  C   UNL     1       7.746   7.978  17.555  0.00  0.00    +0.000 C 
ATOM     13  O   UNL     1       7.770   7.015  16.508  0.00  0.00    +0.000 OA
ENDBRANCH   6  13
ENDBRANCH   5   9
ENDBRANCH   4   5
ENDBRANCH   1   4
BRANCH   1  14
ATOM     14  C   UNL     1       3.036   3.209  20.197  0.00  0.00    +0.000 C 
BRANCH  14  15
ATOM     15  N   UNL     1       2.299   4.483  20.103  0.00  0.00    +0.000 N 
ATOM     16  C   UNL     1       0.834   4.453  19.976  0.00  0.00    +0.000 C 
ATOM     17  C   UNL     1       3.034   5.654  19.930  0.00  0.00    +0.000 C 
ATOM     18  O   UNL     1       4.287   5.666  19.859  0.00  0.00    +0.000 OA
BRANCH  17  19
ATOM     19  C   UNL     1       2.341   6.964  19.822  0.00  0.00    +0.000 A 
ATOM     20  C   UNL     1       2.323   7.656  18.609  0.00  0.00    +0.000 A 
ATOM     21  C   UNL     1       1.678   8.867  18.459  0.00  0.00    +0.000 A 
ATOM     22  C   UNL     1       0.969   9.380  19.536  0.00  0.00    +0.000 A 
ATOM     23 CL   UNL     1       0.078  10.827  19.332  0.00  0.00    +0.000 Cl
ATOM     24  C   UNL     1       0.956   8.706  20.756  0.00  0.00    +0.000 A 
ATOM     25  C   UNL     1       1.663   7.515  20.910  0.00  0.00    +0.000 A 
ENDBRANCH  17  19
ENDBRANCH  14  15
ENDBRANCH   1  14
TORSDOF 8
ENDMDL
MODEL 5
REMARK VINA RESULT:      -6.7      5.750      7.494
REMARK  Name = 
REMARK  10 active torsions:
REMARK  status: ('A' for Active; 'I' for Inactive)
REMARK    1  A    between atoms: C_1  and  O_2
REMARK    2  A    between atoms: O_2  and  C_3
REMARK    3  A    between atoms: C_6  and  O_7
REMARK    4  A    between atoms: O_7  and  C_8
REMARK    5  A    between atoms: C_8  and  C_9
REMARK    6  A    between atoms: C_9  and  O_10
REMARK    7  A    between atoms: C_9  and  C_11
REMARK    8  A    between atoms: C_11  and  N_12
REMARK    9  A    between atoms: N_12  and  C_13
REMARK   10  A    between atoms: C_14  and  C_16
REMARK                            x       y       z     vdW  Elec       q    Type
REMARK                         _______ _______ _______ _____ _____    ______ ____
ROOT
ATOM      1  C   UNL     1       1.551   4.142  20.011  0.00  0.00    +0.000 C 
ENDROOT
BRANCH   1   2
ATOM      2  O   UNL     1       0.783   3.304  20.894  0.00  0.00    +0.000 OA
ATOM      3  H   UNL     1       0.704   3.768  21.741  0.00  0.00    +0.000 HD
ENDBRANCH   1   2
BRANCH   1   4
ATOM      4  C   UNL     1       1.721   5.536  20.653  0.00  0.00    +0.000 C 
BRANCH   4   5
ATOM      5  O   UNL     1       2.619   6.339  19.872  0.00  0.00    +0.000 OA
BRANCH   5   9
ATOM      6  C   UNL     1       1.008  10.053  18.851  0.00  0.00    +0.000 A 
ATOM      7  C   UNL     1       0.853   9.511  20.127  0.00  0.00    +0.000 A 
ATOM      8  C   UNL     1       1.424   8.275  20.443  0.00  0.00    +0.000 A 
ATOM      9  C   UNL     1       2.118   7.551  19.472  0.00  0.00    +0.000 A 
ATOM     10  C   UNL     1       2.280   8.101  18.199  0.00  0.00    +0.000 A 
ATOM     11  C   UNL     1       1.730   9.345  17.892  0.00  0.00    +0.000 A 
BRANCH   6  13
ATOM     12  C   UNL     1      -0.977  11.211  18.389  0.00  0.00    +0.000 C 
ATOM     13  O   UNL     1       0.425  11.269  18.630  0.00  0.00    +0.000 OA
ENDBRANCH   6  13
ENDBRANCH   5   9
ENDBRANCH   4   5
ENDBRANCH   1   4
BRANCH   1  14
ATOM     14  C   UNL     1       2.918   3.484  19.721  0.00  0.00    +0.000 C 
BRANCH  14  15
ATOM     15  N   UNL     1       3.572   3.816  18.441  0.00  0.00    +0.000 N 
ATOM     16  C   UNL     1       2.778   3.785  17.204  0.00  0.00    +0.000 C 
ATOM     17  C   UNL     1       4.960   3.941  18.428  0.00  0.00    +0.000 C 
ATOM     18  O   UNL     1       5.665   3.791  19.455  0.00  0.00    +0.000 OA
BRANCH  17  19
ATOM     19  C   UNL     1       5.669   4.266  17.164  0.00  0.00    +0.000 A 
ATOM     20  C   UNL     1       5.487   3.474  16.028  0.00  0.00    +0.000 A 
ATOM     21  C   UNL     1       6.113   3.748  14.828  0.00  0.00    +0.000 A 
ATOM     22  C   UNL     1       6.900   4.887  14.734  0.00  0.00    +0.000 A 
ATOM     23 CL   UNL     1       7.597   5.295  13.225  0.00  0.00    +0.000 Cl
ATOM     24  C   UNL     1       7.092   5.704  15.847  0.00  0.00    +0.000 A 
ATOM     25  C   UNL     1       6.501   5.382  17.068  0.00  0.00    +0.000 A 
ENDBRANCH  17  19
ENDBRANCH  14  15
ENDBRANCH   1  14
TORSDOF 8
ENDMDL
MODEL 6
REMARK VINA RESULT:      -6.7      4.056      6.787
REMARK  Name = 
REMARK  10 active torsions:
REMARK  status: ('A' for Active; 'I' for Inactive)
REMARK    1  A    between atoms: C_1  and  O_2
REMARK    2  A    between atoms: O_2  and  C_3
REMARK    3  A    between atoms: C_6  and  O_7
REMARK    4  A    between atoms: O_7  and  C_8
REMARK    5  A    between atoms: C_8  and  C_9
REMARK    6  A    between atoms: C_9  and  O_10
REMARK    7  A    between atoms: C_9  and  C_11
REMARK    8  A    between atoms: C_11  and  N_12
REMARK    9  A    between atoms: N_12  and  C_13
REMARK   10  A    between atoms: C_14  and  C_16
REMARK                            x       y       z     vdW  Elec       q    Type
REMARK                         _______ _______ _______ _____ _____    ______ ____
ROOT
ATOM      1  C   UNL     1       3.000   2.036  19.512  0.00  0.00    +0.000 C 
ENDROOT
BRANCH   1   2
ATOM      2  O   UNL     1       2.694   1.237  18.354  0.00  0.00    +0.000 OA
ATOM      3  H   UNL     1       2.452   1.843  17.638  0.00  0.00    +0.000 HD
ENDBRANCH   1   2
BRANCH   1   4
ATOM      4  C   UNL     1       4.232   2.917  19.210  0.00  0.00    +0.000 C 
BRANCH   4   5
ATOM      5  O   UNL     1       4.393   3.083  17.793  0.00  0.00    +0.000 OA
BRANCH   5   9
ATOM      6  C   UNL     1       6.993   6.211  16.857  0.00  0.00    +0.000 A 
ATOM      7  C   UNL     1       6.595   5.955  18.169  0.00  0.00    +0.000 A 
ATOM      8  C   UNL     1       5.740   4.886  18.451  0.00  0.00    +0.000 A 
ATOM      9  C   UNL     1       5.243   4.090  17.418  0.00  0.00    +0.000 A 
ATOM     10  C   UNL     1       5.652   4.343  16.107  0.00  0.00    +0.000 A 
ATOM     11  C   UNL     1       6.523   5.395  15.830  0.00  0.00    +0.000 A 
BRANCH   6  13
ATOM     12  C   UNL     1       7.795   8.241  17.712  0.00  0.00    +0.000 C 
ATOM     13  O   UNL     1       7.836   7.271  16.671  0.00  0.00    +0.000 OA
ENDBRANCH   6  13
ENDBRANCH   5   9
ENDBRANCH   4   5
ENDBRANCH   1   4
BRANCH   1  14
ATOM     14  C   UNL     1       1.774   2.892  19.897  0.00  0.00    +0.000 C 
BRANCH  14  15
ATOM     15  N   UNL     1       1.708   4.263  19.356  0.00  0.00    +0.000 N 
ATOM     16  C   UNL     1       1.412   4.454  17.928  0.00  0.00    +0.000 C 
ATOM     17  C   UNL     1       2.134   5.311  20.171  0.00  0.00    +0.000 C 
ATOM     18  O   UNL     1       2.560   5.133  21.338  0.00  0.00    +0.000 OA
BRANCH  17  19
ATOM     19  C   UNL     1       2.096   6.709  19.672  0.00  0.00    +0.000 A 
ATOM     20  C   UNL     1       2.692   7.041  18.454  0.00  0.00    +0.000 A 
ATOM     21  C   UNL     1       2.667   8.324  17.944  0.00  0.00    +0.000 A 
ATOM     22  C   UNL     1       1.969   9.302  18.640  0.00  0.00    +0.000 A 
ATOM     23 CL   UNL     1       1.842  10.870  17.967  0.00  0.00    +0.000 Cl
ATOM     24  C   UNL     1       1.353   8.999  19.852  0.00  0.00    +0.000 A 
ATOM     25  C   UNL     1       1.438   7.713  20.384  0.00  0.00    +0.000 A 
ENDBRANCH  17  19
ENDBRANCH  14  15
ENDBRANCH   1  14
TORSDOF 8
ENDMDL
MODEL 7
REMARK VINA RESULT:      -6.6      5.771      7.317
REMARK  Name = 
REMARK  10 active torsions:
REMARK  status: ('A' for Active; 'I' for Inactive)
REMARK    1  A    between atoms: C_1  and  O_2
REMARK    2  A    between atoms: O_2  and  C_3
REMARK    3  A    between atoms: C_6  and  O_7
REMARK    4  A    between atoms: O_7  and  C_8
REMARK    5  A    between atoms: C_8  and  C_9
REMARK    6  A    between atoms: C_9  and  O_10
REMARK    7  A    between atoms: C_9  and  C_11
REMARK    8  A    between atoms: C_11  and  N_12
REMARK    9  A    between atoms: N_12  and  C_13
REMARK   10  A    between atoms: C_14  and  C_16
REMARK                            x       y       z     vdW  Elec       q    Type
REMARK                         _______ _______ _______ _____ _____    ______ ____
ROOT
ATOM      1  C   UNL     1       1.375   3.138  21.086  0.00  0.00    +0.000 C 
ENDROOT
BRANCH   1   2
ATOM      2  O   UNL     1       2.377   3.256  22.112  0.00  0.00    +0.000 OA
ATOM      3  H   UNL     1       2.862   2.418  22.144  0.00  0.00    +0.000 HD
ENDBRANCH   1   2
BRANCH   1   4
ATOM      4  C   UNL     1       0.990   4.547  20.586  0.00  0.00    +0.000 C 
BRANCH   4   5
ATOM      5  O   UNL     1       2.053   5.476  20.845  0.00  0.00    +0.000 OA
BRANCH   5   9
ATOM      6  C   UNL     1       1.946   8.990  18.594  0.00  0.00    +0.000 A 
ATOM      7  C   UNL     1       1.403   8.924  19.876  0.00  0.00    +0.000 A 
ATOM      8  C   UNL     1       1.475   7.737  20.612  0.00  0.00    +0.000 A 
ATOM      9  C   UNL     1       2.053   6.596  20.054  0.00  0.00    +0.000 A 
ATOM     10  C   UNL     1       2.606   6.670  18.774  0.00  0.00    +0.000 A 
ATOM     11  C   UNL     1       2.554   7.860  18.050  0.00  0.00    +0.000 A 
BRANCH   6  13
ATOM     12  C   UNL     1       1.227  11.218  18.718  0.00  0.00    +0.000 C 
ATOM     13  O   UNL     1       1.840  10.190  17.947  0.00  0.00    +0.000 OA
ENDBRANCH   6  13
ENDBRANCH   5   9
ENDBRANCH   4   5
ENDBRANCH   1   4
BRANCH   1  14
ATOM     14  C   UNL     1       1.906   2.256  19.934  0.00  0.00    +0.000 C 
BRANCH  14  15
ATOM     15  N   UNL     1       2.697   2.921  18.881  0.00  0.00    +0.000 N 
ATOM     16  C   UNL     1       2.051   3.250  17.602  0.00  0.00    +0.000 C 
ATOM     17  C   UNL     1       4.075   3.022  19.062  0.00  0.00    +0.000 C 
ATOM     18  O   UNL     1       4.661   2.580  20.081  0.00  0.00    +0.000 OA
BRANCH  17  19
ATOM     19  C   UNL     1       4.920   3.675  18.029  0.00  0.00    +0.000 A 
ATOM     20  C   UNL     1       4.958   3.172  16.727  0.00  0.00    +0.000 A 
ATOM     21  C   UNL     1       5.715   3.755  15.731  0.00  0.00    +0.000 A 
ATOM     22  C   UNL     1       6.412   4.920  16.023  0.00  0.00    +0.000 A 
ATOM     23 CL   UNL     1       7.270   5.711  14.771  0.00  0.00    +0.000 Cl
ATOM     24  C   UNL     1       6.384   5.453  17.310  0.00  0.00    +0.000 A 
ATOM     25  C   UNL     1       5.663   4.819  18.320  0.00  0.00    +0.000 A 
ENDBRANCH  17  19
ENDBRANCH  14  15
ENDBRANCH   1  14
TORSDOF 8
ENDMDL
MODEL 8
REMARK VINA RESULT:      -6.5      5.942      8.226
REMARK  Name = 
REMARK  10 active torsions:
REMARK  status: ('A' for Active; 'I' for Inactive)
REMARK    1  A    between atoms: C_1  and  O_2
REMARK    2  A    between atoms: O_2  and  C_3
REMARK    3  A    between atoms: C_6  and  O_7
REMARK    4  A    between atoms: O_7  and  C_8
REMARK    5  A    between atoms: C_8  and  C_9
REMARK    6  A    between atoms: C_9  and  O_10
REMARK    7  A    between atoms: C_9  and  C_11
REMARK    8  A    between atoms: C_11  and  N_12
REMARK    9  A    between atoms: N_12  and  C_13
REMARK   10  A    between atoms: C_14  and  C_16
REMARK                            x       y       z     vdW  Elec       q    Type
REMARK                         _______ _______ _______ _____ _____    ______ ____
ROOT
ATOM      1  C   UNL     1       2.450   5.619  19.275  0.00  0.00    +0.000 C 
ENDROOT
BRANCH   1   2
ATOM      2  O   UNL     1       1.773   4.923  18.212  0.00  0.00    +0.000 OA
ATOM      3  H   UNL     1       0.875   5.283  18.154  0.00  0.00    +0.000 HD
ENDBRANCH   1   2
BRANCH   1   4
ATOM      4  C   UNL     1       3.725   4.839  19.662  0.00  0.00    +0.000 C 
BRANCH   4   5
ATOM      5  O   UNL     1       4.050   3.877  18.646  0.00  0.00    +0.000 OA
BRANCH   5   9
ATOM      6  C   UNL     1       6.912   5.015  15.828  0.00  0.00    +0.000 A 
ATOM      7  C   UNL     1       5.623   4.638  15.454  0.00  0.00    +0.000 A 
ATOM      8  C   UNL     1       4.681   4.284  16.424  0.00  0.00    +0.000 A 
ATOM      9  C   UNL     1       5.035   4.262  17.774  0.00  0.00    +0.000 A 
ATOM     10  C   UNL     1       6.324   4.650  18.146  0.00  0.00    +0.000 A 
ATOM     11  C   UNL     1       7.255   5.025  17.179  0.00  0.00    +0.000 A 
BRANCH   6  13
ATOM     12  C   UNL     1       7.368   4.886  13.532  0.00  0.00    +0.000 C 
ATOM     13  O   UNL     1       7.767   5.353  14.816  0.00  0.00    +0.000 OA
ENDBRANCH   6  13
ENDBRANCH   5   9
ENDBRANCH   4   5
ENDBRANCH   1   4
BRANCH   1  14
ATOM     14  C   UNL     1       2.783   7.060  18.829  0.00  0.00    +0.000 C 
BRANCH  14  15
ATOM     15  N   UNL     1       1.950   8.148  19.375  0.00  0.00    +0.000 N 
ATOM     16  C   UNL     1       1.406   8.017  20.736  0.00  0.00    +0.000 C 
ATOM     17  C   UNL     1       1.540   9.158  18.507  0.00  0.00    +0.000 C 
ATOM     18  O   UNL     1       1.856   9.180  17.293  0.00  0.00    +0.000 OA
BRANCH  17  19
ATOM     19  C   UNL     1       0.693  10.272  19.004  0.00  0.00    +0.000 A 
ATOM     20  C   UNL     1       1.278  11.408  19.566  0.00  0.00    +0.000 A 
ATOM     21  C   UNL     1       0.531  12.474  20.026  0.00  0.00    +0.000 A 
ATOM     22  C   UNL     1      -0.847  12.439  19.863  0.00  0.00    +0.000 A 
ATOM     23 CL   UNL     1      -1.775  13.798  20.332  0.00  0.00    +0.000 Cl
ATOM     24  C   UNL     1      -1.460  11.325  19.293  0.00  0.00    +0.000 A 
ATOM     25  C   UNL     1      -0.697  10.231  18.889  0.00  0.00    +0.000 A 
ENDBRANCH  17  19
ENDBRANCH  14  15
ENDBRANCH   1  14
TORSDOF 8
ENDMDL
MODEL 9
REMARK VINA RESULT:      -6.4      1.402      1.910
REMARK  Name = 
REMARK  10 active torsions:
REMARK  status: ('A' for Active; 'I' for Inactive)
REMARK    1  A    between atoms: C_1  and  O_2
REMARK    2  A    between atoms: O_2  and  C_3
REMARK    3  A    between atoms: C_6  and  O_7
REMARK    4  A    between atoms: O_7  and  C_8
REMARK    5  A    between atoms: C_8  and  C_9
REMARK    6  A    between atoms: C_9  and  O_10
REMARK    7  A    between atoms: C_9  and  C_11
REMARK    8  A    between atoms: C_11  and  N_12
REMARK    9  A    between atoms: N_12  and  C_13
REMARK   10  A    between atoms: C_14  and  C_16
REMARK                            x       y       z     vdW  Elec       q    Type
REMARK                         _______ _______ _______ _____ _____    ______ ____
ROOT
ATOM      1  C   UNL     1       7.659   7.801  18.423  0.00  0.00    +0.000 C 
ENDROOT
BRANCH   1   2
ATOM      2  O   UNL     1       8.640   7.056  19.167  0.00  0.00    +0.000 OA
ATOM      3  H   UNL     1       8.208   6.255  19.499  0.00  0.00    +0.000 HD
ENDBRANCH   1   2
BRANCH   1   4
ATOM      4  C   UNL     1       8.300   9.104  17.898  0.00  0.00    +0.000 C 
BRANCH   4   5
ATOM      5  O   UNL     1       9.192   9.652  18.880  0.00  0.00    +0.000 OA
BRANCH   5   9
ATOM      6  C   UNL     1      10.173  13.632  18.088  0.00  0.00    +0.000 A 
ATOM      7  C   UNL     1       9.025  13.040  17.562  0.00  0.00    +0.000 A 
ATOM      8  C   UNL     1       8.714  11.712  17.864  0.00  0.00    +0.000 A 
ATOM      9  C   UNL     1       9.571  10.951  18.661  0.00  0.00    +0.000 A 
ATOM     10  C   UNL     1      10.714  11.550  19.195  0.00  0.00    +0.000 A 
ATOM     11  C   UNL     1      11.011  12.883  18.911  0.00  0.00    +0.000 A 
BRANCH   6  13
ATOM     12  C   UNL     1       9.315  15.813  18.045  0.00  0.00    +0.000 C 
ATOM     13  O   UNL     1      10.397  14.937  17.748  0.00  0.00    +0.000 OA
ENDBRANCH   6  13
ENDBRANCH   5   9
ENDBRANCH   4   5
ENDBRANCH   1   4
BRANCH   1  14
ATOM     14  C   UNL     1       7.110   6.937  17.267  0.00  0.00    +0.000 C 
BRANCH  14  15
ATOM     15  N   UNL     1       6.138   5.882  17.611  0.00  0.00    +0.000 N 
ATOM     16  C   UNL     1       6.625   4.518  17.870  0.00  0.00    +0.000 C 
ATOM     17  C   UNL     1       4.781   6.170  17.474  0.00  0.00    +0.000 C 
ATOM     18  O   UNL     1       4.361   7.285  17.079  0.00  0.00    +0.000 OA
BRANCH  17  19
ATOM     19  C   UNL     1       3.761   5.141  17.800  0.00  0.00    +0.000 A 
ATOM     20  C   UNL     1       2.888   5.327  18.873  0.00  0.00    +0.000 A 
ATOM     21  C   UNL     1       1.914   4.405  19.202  0.00  0.00    +0.000 A 
ATOM     22  C   UNL     1       1.759   3.286  18.396  0.00  0.00    +0.000 A 
ATOM     23 CL   UNL     1       0.489   2.190  18.731  0.00  0.00    +0.000 Cl
ATOM     24  C   UNL     1       2.607   3.079  17.310  0.00  0.00    +0.000 A 
ATOM     25  C   UNL     1       3.624   3.988  17.026  0.00  0.00    +0.000 A 
ENDBRANCH  17  19
ENDBRANCH  14  15
ENDBRANCH   1  14
TORSDOF 8
ENDMDL
