MODEL 1
REMARK VINA RESULT:      -8.1      0.000      0.000
REMARK  Name = 
REMARK  6 active torsions:
REMARK  status: ('A' for Active; 'I' for Inactive)
REMARK    1  A    between atoms: C_1  and  C_2
REMARK    2  A    between atoms: C_2  and  N_3
REMARK    3  A    between atoms: N_6  and  C_7
REMARK    4  A    between atoms: C_12  and  C_13
REMARK    5  A    between atoms: C_18  and  C_19
REMARK    6  A    between atoms: C_22  and  O_23
REMARK                            x       y       z     vdW  Elec       q    Type
REMARK                         _______ _______ _______ _____ _____    ______ ____
ROOT
ATOM      1  C   UNL     1       3.602   6.041  17.997  0.00  0.00    +0.000 A 
ATOM      2  C   UNL     1       3.380   5.233  19.131  0.00  0.00    +0.000 A 
ATOM      3  C   UNL     1       2.612   5.642  20.230  0.00  0.00    +0.000 A 
ATOM      4  C   UNL     1       2.029   6.907  20.184  0.00  0.00    +0.000 A 
ATOM      5  N   UNL     1       1.259   7.554  21.119  0.00  0.00    +0.000 NA
ATOM      6  C   UNL     1       0.929   8.709  20.575  0.00  0.00    +0.000 A 
ATOM      7  N   UNL     1       1.505   8.833  19.332  0.00  0.00    +0.000 N 
ATOM      8  C   UNL     1       2.207   7.687  19.056  0.00  0.00    +0.000 A 
ATOM      9  C   UNL     1       2.972   7.295  17.948  0.00  0.00    +0.000 A 
ATOM     10  H   UNL     1       1.436   9.639  18.732  0.00  0.00    +0.000 HD
ENDROOT
BRANCH   6  11
ATOM     11  C   UNL     1       0.087   9.738  21.187  0.00  0.00    +0.000 A 
ATOM     12  C   UNL     1      -0.259   9.678  22.548  0.00  0.00    +0.000 A 
ATOM     13  C   UNL     1      -1.034  10.680  23.151  0.00  0.00    +0.000 A 
ATOM     14  C   UNL     1      -1.464  11.757  22.366  0.00  0.00    +0.000 A 
ATOM     15  N   UNL     1      -2.201  12.861  22.711  0.00  0.00    +0.000 NA
ATOM     16  C   UNL     1      -2.350  13.561  21.602  0.00  0.00    +0.000 A 
ATOM     17  N   UNL     1      -1.698  12.941  20.559  0.00  0.00    +0.000 N 
ATOM     18  C   UNL     1      -1.123  11.790  21.023  0.00  0.00    +0.000 A 
ATOM     19  C   UNL     1      -0.349  10.813  20.396  0.00  0.00    +0.000 A 
ATOM     20  H   UNL     1      -1.632  13.284  19.613  0.00  0.00    +0.000 HD
BRANCH  16  21
ATOM     21  C   UNL     1      -3.070  14.825  21.461  0.00  0.00    +0.000 A 
ATOM     22  C   UNL     1      -4.364  14.834  20.916  0.00  0.00    +0.000 A 
ATOM     23  C   UNL     1      -5.072  16.030  20.778  0.00  0.00    +0.000 A 
ATOM     24  C   UNL     1      -4.482  17.229  21.179  0.00  0.00    +0.000 A 
ATOM     25  C   UNL     1      -3.197  17.239  21.711  0.00  0.00    +0.000 A 
ATOM     26  C   UNL     1      -2.493  16.042  21.852  0.00  0.00    +0.000 A 
BRANCH  24  27
ATOM     27  O   UNL     1      -5.127  18.416  21.064  0.00  0.00    +0.000 OA
ATOM     28  H   UNL     1      -5.689  18.386  20.272  0.00  0.00    +0.000 HD
ENDBRANCH  24  27
ENDBRANCH  16  21
ENDBRANCH   6  11
BRANCH   1  32
ATOM     29  N   UNL     1       6.854   4.589  15.823  0.00  0.00    +0.000 NA
ATOM     30  C   UNL     1       6.781   5.874  16.550  0.00  0.00    +0.000 C 
ATOM     31  C   UNL     1       5.405   6.524  16.401  0.00  0.00    +0.000 C 
ATOM     32  N   UNL     1       4.431   5.606  16.978  0.00  0.00    +0.000 N 
ATOM     33  C   UNL     1       4.363   4.265  16.393  0.00  0.00    +0.000 C 
ATOM     34  C   UNL     1       5.788   3.674  16.275  0.00  0.00    +0.000 C 
BRANCH  29  36
ATOM     35  C   UNL     1       6.260   3.833  13.463  0.00  0.00    +0.000 C 
ATOM     36  C   UNL     1       6.941   4.840  14.379  0.00  0.00    +0.000 C 
ENDBRANCH  29  36
ENDBRANCH   1  32
TORSDOF 5
ENDMDL
MODEL 2
REMARK VINA RESULT:      -7.9      3.895     12.097
REMARK  Name = 
REMARK  6 active torsions:
REMARK  status: ('A' for Active; 'I' for Inactive)
REMARK    1  A    between atoms: C_1  and  C_2
REMARK    2  A    between atoms: C_2  and  N_3
REMARK    3  A    between atoms: N_6  and  C_7
REMARK    4  A    between atoms: C_12  and  C_13
REMARK    5  A    between atoms: C_18  and  C_19
REMARK    6  A    between atoms: C_22  and  O_23
REMARK                            x       y       z     vdW  Elec       q    Type
REMARK                         _______ _______ _______ _____ _____    ______ ____
ROOT
ATOM      1  C   UNL     1      -1.143  11.543  21.939  0.00  0.00    +0.000 A 
ATOM      2  C   UNL     1      -0.909  10.817  23.125  0.00  0.00    +0.000 A 
ATOM      3  C   UNL     1      -0.153   9.637  23.170  0.00  0.00    +0.000 A 
ATOM      4  C   UNL     1       0.404   9.173  21.979  0.00  0.00    +0.000 A 
ATOM      5  N   UNL     1       1.157   8.050  21.741  0.00  0.00    +0.000 NA
ATOM      6  C   UNL     1       1.465   8.091  20.460  0.00  0.00    +0.000 A 
ATOM      7  N   UNL     1       0.891   9.190  19.865  0.00  0.00    +0.000 N 
ATOM      8  C   UNL     1       0.214   9.904  20.820  0.00  0.00    +0.000 A 
ATOM      9  C   UNL     1      -0.538  11.086  20.757  0.00  0.00    +0.000 A 
ATOM     10  H   UNL     1       0.946   9.423  18.887  0.00  0.00    +0.000 HD
ENDROOT
BRANCH   6  11
ATOM     11  C   UNL     1       2.285   7.113  19.741  0.00  0.00    +0.000 A 
ATOM     12  C   UNL     1       2.528   5.837  20.277  0.00  0.00    +0.000 A 
ATOM     13  C   UNL     1       3.280   4.881  19.578  0.00  0.00    +0.000 A 
ATOM     14  C   UNL     1       3.791   5.220  18.320  0.00  0.00    +0.000 A 
ATOM     15  N   UNL     1       4.526   4.473  17.435  0.00  0.00    +0.000 NA
ATOM     16  C   UNL     1       4.772   5.264  16.407  0.00  0.00    +0.000 A 
ATOM     17  N   UNL     1       4.185   6.494  16.603  0.00  0.00    +0.000 N 
ATOM     18  C   UNL     1       3.551   6.489  17.815  0.00  0.00    +0.000 A 
ATOM     19  C   UNL     1       2.802   7.459  18.483  0.00  0.00    +0.000 A 
ATOM     20  H   UNL     1       4.197   7.267  15.956  0.00  0.00    +0.000 HD
BRANCH  16  21
ATOM     21  C   UNL     1       5.531   4.919  15.206  0.00  0.00    +0.000 A 
ATOM     22  C   UNL     1       4.958   4.082  14.235  0.00  0.00    +0.000 A 
ATOM     23  C   UNL     1       5.662   3.745  13.077  0.00  0.00    +0.000 A 
ATOM     24  C   UNL     1       6.953   4.239  12.889  0.00  0.00    +0.000 A 
ATOM     25  C   UNL     1       7.540   5.060  13.847  0.00  0.00    +0.000 A 
ATOM     26  C   UNL     1       6.832   5.399  15.001  0.00  0.00    +0.000 A 
BRANCH  24  27
ATOM     27  O   UNL     1       7.679   3.939  11.784  0.00  0.00    +0.000 OA
ATOM     28  H   UNL     1       7.218   3.240  11.292  0.00  0.00    +0.000 HD
ENDBRANCH  24  27
ENDBRANCH  16  21
ENDBRANCH   6  11
BRANCH   1  32
ATOM     29  N   UNL     1      -4.413  14.111  22.287  0.00  0.00    +0.000 NA
ATOM     30  C   UNL     1      -4.243  13.029  21.295  0.00  0.00    +0.000 C 
ATOM     31  C   UNL     1      -2.799  12.950  20.795  0.00  0.00    +0.000 C 
ATOM     32  N   UNL     1      -1.960  12.660  21.951  0.00  0.00    +0.000 N 
ATOM     33  C   UNL     1      -2.003  13.621  23.054  0.00  0.00    +0.000 C 
ATOM     34  C   UNL     1      -3.475  13.937  23.413  0.00  0.00    +0.000 C 
BRANCH  29  36
ATOM     35  C   UNL     1      -4.157  16.639  22.478  0.00  0.00    +0.000 C 
ATOM     36  C   UNL     1      -4.398  15.413  21.609  0.00  0.00    +0.000 C 
ENDBRANCH  29  36
ENDBRANCH   1  32
TORSDOF 5
ENDMDL
MODEL 3
REMARK VINA RESULT:      -7.9      0.833      1.000
REMARK  Name = 
REMARK  6 active torsions:
REMARK  status: ('A' for Active; 'I' for Inactive)
REMARK    1  A    between atoms: C_1  and  C_2
REMARK    2  A    between atoms: C_2  and  N_3
REMARK    3  A    between atoms: N_6  and  C_7
REMARK    4  A    between atoms: C_12  and  C_13
REMARK    5  A    between atoms: C_18  and  C_19
REMARK    6  A    between atoms: C_22  and  O_23
REMARK                            x       y       z     vdW  Elec       q    Type
REMARK                         _______ _______ _______ _____ _____    ______ ____
ROOT
ATOM      1  C   UNL     1       3.784   5.725  17.729  0.00  0.00    +0.000 A 
ATOM      2  C   UNL     1       3.496   4.819  18.771  0.00  0.00    +0.000 A 
ATOM      3  C   UNL     1       2.732   5.156  19.896  0.00  0.00    +0.000 A 
ATOM      4  C   UNL     1       2.220   6.450  19.973  0.00  0.00    +0.000 A 
ATOM      5  N   UNL     1       1.468   7.040  20.960  0.00  0.00    +0.000 NA
ATOM      6  C   UNL     1       1.212   8.261  20.534  0.00  0.00    +0.000 A 
ATOM      7  N   UNL     1       1.818   8.479  19.318  0.00  0.00    +0.000 N 
ATOM      8  C   UNL     1       2.461   7.330  18.934  0.00  0.00    +0.000 A 
ATOM      9  C   UNL     1       3.224   7.011  17.802  0.00  0.00    +0.000 A 
ATOM     10  H   UNL     1       1.804   9.345  18.804  0.00  0.00    +0.000 HD
ENDROOT
BRANCH   6  11
ATOM     11  C   UNL     1       0.416   9.267  21.237  0.00  0.00    +0.000 A 
ATOM     12  C   UNL     1       0.158   9.155  22.614  0.00  0.00    +0.000 A 
ATOM     13  C   UNL     1      -0.572  10.135  23.304  0.00  0.00    +0.000 A 
ATOM     14  C   UNL     1      -1.046  11.243  22.591  0.00  0.00    +0.000 A 
ATOM     15  N   UNL     1      -1.754  12.335  23.025  0.00  0.00    +0.000 NA
ATOM     16  C   UNL     1      -1.970  13.077  21.955  0.00  0.00    +0.000 A 
ATOM     17  N   UNL     1      -1.390  12.497  20.849  0.00  0.00    +0.000 N 
ATOM     18  C   UNL     1      -0.792  11.328  21.230  0.00  0.00    +0.000 A 
ATOM     19  C   UNL     1      -0.065  10.373  20.518  0.00  0.00    +0.000 A 
ATOM     20  H   UNL     1      -1.383  12.876  19.915  0.00  0.00    +0.000 HD
BRANCH  16  21
ATOM     21  C   UNL     1      -2.692  14.348  21.909  0.00  0.00    +0.000 A 
ATOM     22  C   UNL     1      -2.466  15.241  20.851  0.00  0.00    +0.000 A 
ATOM     23  C   UNL     1      -3.150  16.457  20.784  0.00  0.00    +0.000 A 
ATOM     24  C   UNL     1      -4.061  16.790  21.787  0.00  0.00    +0.000 A 
ATOM     25  C   UNL     1      -4.287  15.921  22.850  0.00  0.00    +0.000 A 
ATOM     26  C   UNL     1      -3.606  14.704  22.911  0.00  0.00    +0.000 A 
BRANCH  24  27
ATOM     27  O   UNL     1      -4.747  17.959  21.770  0.00  0.00    +0.000 OA
ATOM     28  H   UNL     1      -4.119  18.683  21.619  0.00  0.00    +0.000 HD
ENDBRANCH  24  27
ENDBRANCH  16  21
ENDBRANCH   6  11
BRANCH   1  32
ATOM     29  N   UNL     1       7.102   4.778  15.383  0.00  0.00    +0.000 NA
ATOM     30  C   UNL     1       6.768   6.103  15.946  0.00  0.00    +0.000 C 
ATOM     31  C   UNL     1       5.264   6.376  15.881  0.00  0.00    +0.000 C 
ATOM     32  N   UNL     1       4.607   5.351  16.682  0.00  0.00    +0.000 N 
ATOM     33  C   UNL     1       4.831   3.960  16.282  0.00  0.00    +0.000 C 
ATOM     34  C   UNL     1       6.345   3.715  16.071  0.00  0.00    +0.000 C 
BRANCH  29  36
ATOM     35  C   UNL     1       8.112   5.541  13.172  0.00  0.00    +0.000 C 
ATOM     36  C   UNL     1       7.000   4.820  13.919  0.00  0.00    +0.000 C 
ENDBRANCH  29  36
ENDBRANCH   1  32
TORSDOF 5
ENDMDL
MODEL 4
REMARK VINA RESULT:      -7.9      4.054     12.492
REMARK  Name = 
REMARK  6 active torsions:
REMARK  status: ('A' for Active; 'I' for Inactive)
REMARK    1  A    between atoms: C_1  and  C_2
REMARK    2  A    between atoms: C_2  and  N_3
REMARK    3  A    between atoms: N_6  and  C_7
REMARK    4  A    between atoms: C_12  and  C_13
REMARK    5  A    between atoms: C_18  and  C_19
REMARK    6  A    between atoms: C_22  and  O_23
REMARK                            x       y       z     vdW  Elec       q    Type
REMARK                         _______ _______ _______ _____ _____    ______ ____
ROOT
ATOM      1  C   UNL     1      -2.400  13.848  22.300  0.00  0.00    +0.000 A 
ATOM      2  C   UNL     1      -2.168  14.288  20.981  0.00  0.00    +0.000 A 
ATOM      3  C   UNL     1      -1.405  13.570  20.051  0.00  0.00    +0.000 A 
ATOM      4  C   UNL     1      -0.863  12.351  20.455  0.00  0.00    +0.000 A 
ATOM      5  N   UNL     1      -0.071  11.469  19.762  0.00  0.00    +0.000 NA
ATOM      6  C   UNL     1       0.137  10.455  20.579  0.00  0.00    +0.000 A 
ATOM      7  N   UNL     1      -0.468  10.688  21.792  0.00  0.00    +0.000 N 
ATOM      8  C   UNL     1      -1.123  11.892  21.734  0.00  0.00    +0.000 A 
ATOM      9  C   UNL     1      -1.884  12.597  22.677  0.00  0.00    +0.000 A 
ATOM     10  H   UNL     1      -0.423  10.082  22.595  0.00  0.00    +0.000 HD
ENDROOT
BRANCH   6  11
ATOM     11  C   UNL     1       0.910   9.250  20.274  0.00  0.00    +0.000 A 
ATOM     12  C   UNL     1       0.963   8.175  21.177  0.00  0.00    +0.000 A 
ATOM     13  C   UNL     1       1.669   7.000  20.876  0.00  0.00    +0.000 A 
ATOM     14  C   UNL     1       2.331   6.914  19.644  0.00  0.00    +0.000 A 
ATOM     15  N   UNL     1       3.061   5.885  19.105  0.00  0.00    +0.000 NA
ATOM     16  C   UNL     1       3.486   6.317  17.933  0.00  0.00    +0.000 A 
ATOM     17  N   UNL     1       3.019   7.591  17.697  0.00  0.00    +0.000 N 
ATOM     18  C   UNL     1       2.277   7.991  18.773  0.00  0.00    +0.000 A 
ATOM     19  C   UNL     1       1.578   9.169  19.042  0.00  0.00    +0.000 A 
ATOM     20  H   UNL     1       3.175   8.135  16.863  0.00  0.00    +0.000 HD
BRANCH  16  21
ATOM     21  C   UNL     1       4.312   5.576  16.981  0.00  0.00    +0.000 A 
ATOM     22  C   UNL     1       4.417   4.180  17.086  0.00  0.00    +0.000 A 
ATOM     23  C   UNL     1       5.195   3.452  16.183  0.00  0.00    +0.000 A 
ATOM     24  C   UNL     1       5.883   4.123  15.171  0.00  0.00    +0.000 A 
ATOM     25  C   UNL     1       5.800   5.507  15.060  0.00  0.00    +0.000 A 
ATOM     26  C   UNL     1       5.017   6.232  15.961  0.00  0.00    +0.000 A 
BRANCH  24  27
ATOM     27  O   UNL     1       6.654   3.464  14.272  0.00  0.00    +0.000 OA
ATOM     28  H   UNL     1       6.428   3.779  13.382  0.00  0.00    +0.000 HD
ENDBRANCH  24  27
ENDBRANCH  16  21
ENDBRANCH   6  11
BRANCH   1  32
ATOM     29  N   UNL     1      -5.097  16.538  24.004  0.00  0.00    +0.000 NA
ATOM     30  C   UNL     1      -4.022  16.856  23.040  0.00  0.00    +0.000 C 
ATOM     31  C   UNL     1      -2.755  16.050  23.328  0.00  0.00    +0.000 C 
ATOM     32  N   UNL     1      -3.102  14.641  23.191  0.00  0.00    +0.000 N 
ATOM     33  C   UNL     1      -4.165  14.137  24.063  0.00  0.00    +0.000 C 
ATOM     34  C   UNL     1      -5.383  15.090  24.005  0.00  0.00    +0.000 C 
BRANCH  29  36
ATOM     35  C   UNL     1      -5.368  18.539  25.558  0.00  0.00    +0.000 C 
ATOM     36  C   UNL     1      -4.796  17.152  25.303  0.00  0.00    +0.000 C 
ENDBRANCH  29  36
ENDBRANCH   1  32
TORSDOF 5
ENDMDL
MODEL 5
REMARK VINA RESULT:      -7.8      1.696      2.212
REMARK  Name = 
REMARK  6 active torsions:
REMARK  status: ('A' for Active; 'I' for Inactive)
REMARK    1  A    between atoms: C_1  and  C_2
REMARK    2  A    between atoms: C_2  and  N_3
REMARK    3  A    between atoms: N_6  and  C_7
REMARK    4  A    between atoms: C_12  and  C_13
REMARK    5  A    between atoms: C_18  and  C_19
REMARK    6  A    between atoms: C_22  and  O_23
REMARK                            x       y       z     vdW  Elec       q    Type
REMARK                         _______ _______ _______ _____ _____    ______ ____
ROOT
ATOM      1  C   UNL     1       3.520   6.611  17.949  0.00  0.00    +0.000 A 
ATOM      2  C   UNL     1       3.304   6.135  19.259  0.00  0.00    +0.000 A 
ATOM      3  C   UNL     1       2.443   6.756  20.173  0.00  0.00    +0.000 A 
ATOM      4  C   UNL     1       1.756   7.894  19.752  0.00  0.00    +0.000 A 
ATOM      5  N   UNL     1       0.881   8.697  20.442  0.00  0.00    +0.000 NA
ATOM      6  C   UNL     1       0.484   9.615  19.583  0.00  0.00    +0.000 A 
ATOM      7  N   UNL     1       1.117   9.443  18.373  0.00  0.00    +0.000 N 
ATOM      8  C   UNL     1       1.930   8.341  18.455  0.00  0.00    +0.000 A 
ATOM      9  C   UNL     1       2.787   7.732  17.527  0.00  0.00    +0.000 A 
ATOM     10  H   UNL     1       1.013  10.038  17.568  0.00  0.00    +0.000 HD
ENDROOT
BRANCH   6  11
ATOM     11  C   UNL     1      -0.478  10.685  19.852  0.00  0.00    +0.000 A 
ATOM     12  C   UNL     1      -1.414  11.080  18.881  0.00  0.00    +0.000 A 
ATOM     13  C   UNL     1      -2.365  12.078  19.145  0.00  0.00    +0.000 A 
ATOM     14  C   UNL     1      -2.367  12.684  20.407  0.00  0.00    +0.000 A 
ATOM     15  N   UNL     1      -3.191  13.653  20.919  0.00  0.00    +0.000 NA
ATOM     16  C   UNL     1      -2.760  13.889  22.144  0.00  0.00    +0.000 A 
ATOM     17  N   UNL     1      -1.693  13.069  22.437  0.00  0.00    +0.000 N 
ATOM     18  C   UNL     1      -1.426  12.289  21.346  0.00  0.00    +0.000 A 
ATOM     19  C   UNL     1      -0.473  11.296  21.116  0.00  0.00    +0.000 A 
ATOM     20  H   UNL     1      -1.200  13.028  23.316  0.00  0.00    +0.000 HD
BRANCH  16  21
ATOM     21  C   UNL     1      -3.318  14.851  23.093  0.00  0.00    +0.000 A 
ATOM     22  C   UNL     1      -2.490  15.430  24.067  0.00  0.00    +0.000 A 
ATOM     23  C   UNL     1      -3.001  16.357  24.979  0.00  0.00    +0.000 A 
ATOM     24  C   UNL     1      -4.351  16.701  24.926  0.00  0.00    +0.000 A 
ATOM     25  C   UNL     1      -5.189  16.126  23.975  0.00  0.00    +0.000 A 
ATOM     26  C   UNL     1      -4.674  15.205  23.061  0.00  0.00    +0.000 A 
BRANCH  24  27
ATOM     27  O   UNL     1      -4.897  17.592  25.790  0.00  0.00    +0.000 OA
ATOM     28  H   UNL     1      -4.566  17.398  26.683  0.00  0.00    +0.000 HD
ENDBRANCH  24  27
ENDBRANCH  16  21
ENDBRANCH   6  11
BRANCH   1  32
ATOM     29  N   UNL     1       6.982   4.869  16.403  0.00  0.00    +0.000 NA
ATOM     30  C   UNL     1       6.803   6.284  16.790  0.00  0.00    +0.000 C 
ATOM     31  C   UNL     1       5.417   6.800  16.401  0.00  0.00    +0.000 C 
ATOM     32  N   UNL     1       4.440   5.993  17.121  0.00  0.00    +0.000 N 
ATOM     33  C   UNL     1       4.470   4.550  16.875  0.00  0.00    +0.000 C 
ATOM     34  C   UNL     1       5.922   4.029  16.995  0.00  0.00    +0.000 C 
BRANCH  29  36
ATOM     35  C   UNL     1       6.204   3.869  14.192  0.00  0.00    +0.000 C 
ATOM     36  C   UNL     1       7.167   4.771  14.950  0.00  0.00    +0.000 C 
ENDBRANCH  29  36
ENDBRANCH   1  32
TORSDOF 5
ENDMDL
MODEL 6
REMARK VINA RESULT:      -7.8      3.980     12.469
REMARK  Name = 
REMARK  6 active torsions:
REMARK  status: ('A' for Active; 'I' for Inactive)
REMARK    1  A    between atoms: C_1  and  C_2
REMARK    2  A    between atoms: C_2  and  N_3
REMARK    3  A    between atoms: N_6  and  C_7
REMARK    4  A    between atoms: C_12  and  C_13
REMARK    5  A    between atoms: C_18  and  C_19
REMARK    6  A    between atoms: C_22  and  O_23
REMARK                            x       y       z     vdW  Elec       q    Type
REMARK                         _______ _______ _______ _____ _____    ______ ____
ROOT
ATOM      1  C   UNL     1      -2.932  14.339  21.354  0.00  0.00    +0.000 A 
ATOM      2  C   UNL     1      -1.917  15.037  20.667  0.00  0.00    +0.000 A 
ATOM      3  C   UNL     1      -0.763  14.421  20.166  0.00  0.00    +0.000 A 
ATOM      4  C   UNL     1      -0.626  13.046  20.346  0.00  0.00    +0.000 A 
ATOM      5  N   UNL     1       0.400  12.210  19.978  0.00  0.00    +0.000 NA
ATOM      6  C   UNL     1       0.025  11.000  20.345  0.00  0.00    +0.000 A 
ATOM      7  N   UNL     1      -1.197  11.049  20.976  0.00  0.00    +0.000 N 
ATOM      8  C   UNL     1      -1.638  12.348  20.980  0.00  0.00    +0.000 A 
ATOM      9  C   UNL     1      -2.799  12.947  21.488  0.00  0.00    +0.000 A 
ATOM     10  H   UNL     1      -1.679  10.264  21.382  0.00  0.00    +0.000 HD
ENDROOT
BRANCH   6  11
ATOM     11  C   UNL     1       0.784   9.766  20.139  0.00  0.00    +0.000 A 
ATOM     12  C   UNL     1       0.824   8.766  21.126  0.00  0.00    +0.000 A 
ATOM     13  C   UNL     1       1.517   7.563  20.921  0.00  0.00    +0.000 A 
ATOM     14  C   UNL     1       2.178   7.370  19.702  0.00  0.00    +0.000 A 
ATOM     15  N   UNL     1       2.897   6.294  19.248  0.00  0.00    +0.000 NA
ATOM     16  C   UNL     1       3.328   6.624  18.046  0.00  0.00    +0.000 A 
ATOM     17  N   UNL     1       2.876   7.880  17.708  0.00  0.00    +0.000 N 
ATOM     18  C   UNL     1       2.137   8.375  18.747  0.00  0.00    +0.000 A 
ATOM     19  C   UNL     1       1.452   9.578  18.919  0.00  0.00    +0.000 A 
ATOM     20  H   UNL     1       3.038   8.354  16.832  0.00  0.00    +0.000 HD
BRANCH  16  21
ATOM     21  C   UNL     1       4.146   5.800  17.158  0.00  0.00    +0.000 A 
ATOM     22  C   UNL     1       4.122   4.402  17.284  0.00  0.00    +0.000 A 
ATOM     23  C   UNL     1       4.891   3.596  16.441  0.00  0.00    +0.000 A 
ATOM     24  C   UNL     1       5.699   4.189  15.471  0.00  0.00    +0.000 A 
ATOM     25  C   UNL     1       5.744   5.573  15.341  0.00  0.00    +0.000 A 
ATOM     26  C   UNL     1       4.970   6.377  16.180  0.00  0.00    +0.000 A 
BRANCH  24  27
ATOM     27  O   UNL     1       6.466   3.451  14.631  0.00  0.00    +0.000 OA
ATOM     28  H   UNL     1       6.138   3.574  13.725  0.00  0.00    +0.000 HD
ENDBRANCH  24  27
ENDBRANCH  16  21
ENDBRANCH   6  11
BRANCH   1  32
ATOM     29  N   UNL     1      -5.876  15.788  23.931  0.00  0.00    +0.000 NA
ATOM     30  C   UNL     1      -5.730  14.398  23.451  0.00  0.00    +0.000 C 
ATOM     31  C   UNL     1      -5.306  14.354  21.982  0.00  0.00    +0.000 C 
ATOM     32  N   UNL     1      -4.012  15.019  21.888  0.00  0.00    +0.000 N 
ATOM     33  C   UNL     1      -3.954  16.413  22.334  0.00  0.00    +0.000 C 
ATOM     34  C   UNL     1      -4.627  16.545  23.721  0.00  0.00    +0.000 C 
BRANCH  29  36
ATOM     35  C   UNL     1      -7.223  17.892  23.431  0.00  0.00    +0.000 C 
ATOM     36  C   UNL     1      -7.105  16.376  23.383  0.00  0.00    +0.000 C 
ENDBRANCH  29  36
ENDBRANCH   1  32
TORSDOF 5
ENDMDL
MODEL 7
REMARK VINA RESULT:      -7.7      3.935     12.129
REMARK  Name = 
REMARK  6 active torsions:
REMARK  status: ('A' for Active; 'I' for Inactive)
REMARK    1  A    between atoms: C_1  and  C_2
REMARK    2  A    between atoms: C_2  and  N_3
REMARK    3  A    between atoms: N_6  and  C_7
REMARK    4  A    between atoms: C_12  and  C_13
REMARK    5  A    between atoms: C_18  and  C_19
REMARK    6  A    between atoms: C_22  and  O_23
REMARK                            x       y       z     vdW  Elec       q    Type
REMARK                         _______ _______ _______ _____ _____    ______ ____
ROOT
ATOM      1  C   UNL     1      -0.855  11.461  21.922  0.00  0.00    +0.000 A 
ATOM      2  C   UNL     1      -0.746  10.648  23.068  0.00  0.00    +0.000 A 
ATOM      3  C   UNL     1      -0.076   9.417  23.080  0.00  0.00    +0.000 A 
ATOM      4  C   UNL     1       0.526   8.991  21.898  0.00  0.00    +0.000 A 
ATOM      5  N   UNL     1       1.218   7.834  21.631  0.00  0.00    +0.000 NA
ATOM      6  C   UNL     1       1.611   7.933  20.377  0.00  0.00    +0.000 A 
ATOM      7  N   UNL     1       1.151   9.105  19.822  0.00  0.00    +0.000 N 
ATOM      8  C   UNL     1       0.461   9.804  20.781  0.00  0.00    +0.000 A 
ATOM      9  C   UNL     1      -0.205  11.037  20.750  0.00  0.00    +0.000 A 
ATOM     10  H   UNL     1       1.285   9.394  18.867  0.00  0.00    +0.000 HD
ENDROOT
BRANCH   6  11
ATOM     11  C   UNL     1       2.408   6.947  19.646  0.00  0.00    +0.000 A 
ATOM     12  C   UNL     1       2.649   5.670  20.180  0.00  0.00    +0.000 A 
ATOM     13  C   UNL     1       3.380   4.705  19.469  0.00  0.00    +0.000 A 
ATOM     14  C   UNL     1       3.873   5.038  18.201  0.00  0.00    +0.000 A 
ATOM     15  N   UNL     1       4.586   4.283  17.305  0.00  0.00    +0.000 NA
ATOM     16  C   UNL     1       4.821   5.070  16.272  0.00  0.00    +0.000 A 
ATOM     17  N   UNL     1       4.249   6.306  16.476  0.00  0.00    +0.000 N 
ATOM     18  C   UNL     1       3.635   6.309  17.699  0.00  0.00    +0.000 A 
ATOM     19  C   UNL     1       2.907   7.286  18.378  0.00  0.00    +0.000 A 
ATOM     20  H   UNL     1       4.256   7.078  15.828  0.00  0.00    +0.000 HD
BRANCH  16  21
ATOM     21  C   UNL     1       5.555   4.716  15.059  0.00  0.00    +0.000 A 
ATOM     22  C   UNL     1       6.862   5.193  14.869  0.00  0.00    +0.000 A 
ATOM     23  C   UNL     1       7.584   4.861  13.721  0.00  0.00    +0.000 A 
ATOM     24  C   UNL     1       6.994   4.055  12.747  0.00  0.00    +0.000 A 
ATOM     25  C   UNL     1       5.695   3.585  12.913  0.00  0.00    +0.000 A 
ATOM     26  C   UNL     1       4.978   3.913  14.065  0.00  0.00    +0.000 A 
BRANCH  24  27
ATOM     27  O   UNL     1       7.650   3.708  11.613  0.00  0.00    +0.000 OA
ATOM     28  H   UNL     1       7.446   4.362  10.925  0.00  0.00    +0.000 HD
ENDBRANCH  24  27
ENDBRANCH  16  21
ENDBRANCH   6  11
BRANCH   1  32
ATOM     29  N   UNL     1      -2.147  15.362  22.642  0.00  0.00    +0.000 NA
ATOM     30  C   UNL     1      -1.932  14.304  23.650  0.00  0.00    +0.000 C 
ATOM     31  C   UNL     1      -2.394  12.939  23.137  0.00  0.00    +0.000 C 
ATOM     32  N   UNL     1      -1.594  12.630  21.958  0.00  0.00    +0.000 N 
ATOM     33  C   UNL     1      -1.667  13.579  20.846  0.00  0.00    +0.000 C 
ATOM     34  C   UNL     1      -1.471  15.020  21.375  0.00  0.00    +0.000 C 
BRANCH  29  36
ATOM     35  C   UNL     1      -3.948  16.992  21.872  0.00  0.00    +0.000 C 
ATOM     36  C   UNL     1      -3.577  15.687  22.561  0.00  0.00    +0.000 C 
ENDBRANCH  29  36
ENDBRANCH   1  32
TORSDOF 5
ENDMDL
MODEL 8
REMARK VINA RESULT:      -7.7      3.978     12.146
REMARK  Name = 
REMARK  6 active torsions:
REMARK  status: ('A' for Active; 'I' for Inactive)
REMARK    1  A    between atoms: C_1  and  C_2
REMARK    2  A    between atoms: C_2  and  N_3
REMARK    3  A    between atoms: N_6  and  C_7
REMARK    4  A    between atoms: C_12  and  C_13
REMARK    5  A    between atoms: C_18  and  C_19
REMARK    6  A    between atoms: C_22  and  O_23
REMARK                            x       y       z     vdW  Elec       q    Type
REMARK                         _______ _______ _______ _____ _____    ______ ____
ROOT
ATOM      1  C   UNL     1      -0.678  11.237  21.755  0.00  0.00    +0.000 A 
ATOM      2  C   UNL     1      -0.597  10.390  22.879  0.00  0.00    +0.000 A 
ATOM      3  C   UNL     1       0.086   9.166  22.874  0.00  0.00    +0.000 A 
ATOM      4  C   UNL     1       0.728   8.782  21.698  0.00  0.00    +0.000 A 
ATOM      5  N   UNL     1       1.439   7.641  21.418  0.00  0.00    +0.000 NA
ATOM      6  C   UNL     1       1.870   7.782  20.179  0.00  0.00    +0.000 A 
ATOM      7  N   UNL     1       1.414   8.966  19.647  0.00  0.00    +0.000 N 
ATOM      8  C   UNL     1       0.689   9.629  20.605  0.00  0.00    +0.000 A 
ATOM      9  C   UNL     1       0.011  10.856  20.592  0.00  0.00    +0.000 A 
ATOM     10  H   UNL     1       1.574   9.286  18.706  0.00  0.00    +0.000 HD
ENDROOT
BRANCH   6  11
ATOM     11  C   UNL     1       2.699   6.827  19.444  0.00  0.00    +0.000 A 
ATOM     12  C   UNL     1       3.069   5.597  20.015  0.00  0.00    +0.000 A 
ATOM     13  C   UNL     1       3.831   4.659  19.302  0.00  0.00    +0.000 A 
ATOM     14  C   UNL     1       4.225   4.970  17.995  0.00  0.00    +0.000 A 
ATOM     15  N   UNL     1       4.943   4.231  17.090  0.00  0.00    +0.000 NA
ATOM     16  C   UNL     1       5.058   4.985  16.013  0.00  0.00    +0.000 A 
ATOM     17  N   UNL     1       4.403   6.182  16.199  0.00  0.00    +0.000 N 
ATOM     18  C   UNL     1       3.861   6.194  17.455  0.00  0.00    +0.000 A 
ATOM     19  C   UNL     1       3.098   7.144  18.136  0.00  0.00    +0.000 A 
ATOM     20  H   UNL     1       4.314   6.922  15.520  0.00  0.00    +0.000 HD
BRANCH  16  21
ATOM     21  C   UNL     1       5.748   4.632  14.773  0.00  0.00    +0.000 A 
ATOM     22  C   UNL     1       7.027   5.151  14.514  0.00  0.00    +0.000 A 
ATOM     23  C   UNL     1       7.706   4.821  13.340  0.00  0.00    +0.000 A 
ATOM     24  C   UNL     1       7.102   3.975  12.410  0.00  0.00    +0.000 A 
ATOM     25  C   UNL     1       5.830   3.463  12.645  0.00  0.00    +0.000 A 
ATOM     26  C   UNL     1       5.155   3.789  13.823  0.00  0.00    +0.000 A 
BRANCH  24  27
ATOM     27  O   UNL     1       7.718   3.628  11.253  0.00  0.00    +0.000 OA
ATOM     28  H   UNL     1       8.014   2.706  11.326  0.00  0.00    +0.000 HD
ENDBRANCH  24  27
ENDBRANCH  16  21
ENDBRANCH   6  11
BRANCH   1  32
ATOM     29  N   UNL     1      -3.834  13.959  21.965  0.00  0.00    +0.000 NA
ATOM     30  C   UNL     1      -3.554  13.015  20.862  0.00  0.00    +0.000 C 
ATOM     31  C   UNL     1      -2.054  12.903  20.587  0.00  0.00    +0.000 C 
ATOM     32  N   UNL     1      -1.431  12.397  21.804  0.00  0.00    +0.000 N 
ATOM     33  C   UNL     1      -1.609  13.198  23.017  0.00  0.00    +0.000 C 
ATOM     34  C   UNL     1      -3.103  13.565  23.185  0.00  0.00    +0.000 C 
BRANCH  29  36
ATOM     35  C   UNL     1      -2.868  16.274  22.412  0.00  0.00    +0.000 C 
ATOM     36  C   UNL     1      -3.644  15.338  21.498  0.00  0.00    +0.000 C 
ENDBRANCH  29  36
ENDBRANCH   1  32
TORSDOF 5
ENDMDL
MODEL 9
REMARK VINA RESULT:      -7.6      1.893      2.390
REMARK  Name = 
REMARK  6 active torsions:
REMARK  status: ('A' for Active; 'I' for Inactive)
REMARK    1  A    between atoms: C_1  and  C_2
REMARK    2  A    between atoms: C_2  and  N_3
REMARK    3  A    between atoms: N_6  and  C_7
REMARK    4  A    between atoms: C_12  and  C_13
REMARK    5  A    between atoms: C_18  and  C_19
REMARK    6  A    between atoms: C_22  and  O_23
REMARK                            x       y       z     vdW  Elec       q    Type
REMARK                         _______ _______ _______ _____ _____    ______ ____
ROOT
ATOM      1  C   UNL     1       2.907   6.682  18.356  0.00  0.00    +0.000 A 
ATOM      2  C   UNL     1       2.538   6.265  19.651  0.00  0.00    +0.000 A 
ATOM      3  C   UNL     1       1.835   7.076  20.552  0.00  0.00    +0.000 A 
ATOM      4  C   UNL     1       1.472   8.354  20.131  0.00  0.00    +0.000 A 
ATOM      5  N   UNL     1       0.807   9.347  20.810  0.00  0.00    +0.000 NA
ATOM      6  C   UNL     1       0.682  10.343  19.955  0.00  0.00    +0.000 A 
ATOM      7  N   UNL     1       1.287  10.027  18.761  0.00  0.00    +0.000 N 
ATOM      8  C   UNL     1       1.792   8.754  18.846  0.00  0.00    +0.000 A 
ATOM      9  C   UNL     1       2.495   7.956  17.933  0.00  0.00    +0.000 A 
ATOM     10  H   UNL     1       1.361  10.636  17.963  0.00  0.00    +0.000 HD
ENDROOT
BRANCH   6  11
ATOM     11  C   UNL     1       0.014  11.619  20.216  0.00  0.00    +0.000 A 
ATOM     12  C   UNL     1      -0.098  12.597  19.212  0.00  0.00    +0.000 A 
ATOM     13  C   UNL     1      -0.770  13.807  19.442  0.00  0.00    +0.000 A 
ATOM     14  C   UNL     1      -1.335  14.030  20.704  0.00  0.00    +0.000 A 
ATOM     15  N   UNL     1      -2.052  15.102  21.172  0.00  0.00    +0.000 NA
ATOM     16  C   UNL     1      -2.337  14.827  22.431  0.00  0.00    +0.000 A 
ATOM     17  N   UNL     1      -1.841  13.587  22.770  0.00  0.00    +0.000 N 
ATOM     18  C   UNL     1      -1.201  13.059  21.684  0.00  0.00    +0.000 A 
ATOM     19  C   UNL     1      -0.545  11.844  21.484  0.00  0.00    +0.000 A 
ATOM     20  H   UNL     1      -1.949  13.129  23.662  0.00  0.00    +0.000 HD
BRANCH  16  21
ATOM     21  C   UNL     1      -3.087  15.672  23.358  0.00  0.00    +0.000 A 
ATOM     22  C   UNL     1      -4.483  15.769  23.242  0.00  0.00    +0.000 A 
ATOM     23  C   UNL     1      -5.219  16.565  24.122  0.00  0.00    +0.000 A 
ATOM     24  C   UNL     1      -4.557  17.280  25.120  0.00  0.00    +0.000 A 
ATOM     25  C   UNL     1      -3.173  17.206  25.242  0.00  0.00    +0.000 A 
ATOM     26  C   UNL     1      -2.440  16.404  24.365  0.00  0.00    +0.000 A 
BRANCH  24  27
ATOM     27  O   UNL     1      -5.226  18.070  25.996  0.00  0.00    +0.000 OA
ATOM     28  H   UNL     1      -4.611  18.740  26.338  0.00  0.00    +0.000 HD
ENDBRANCH  24  27
ENDBRANCH  16  21
ENDBRANCH   6  11
BRANCH   1  32
ATOM     29  N   UNL     1       5.965   4.315  16.789  0.00  0.00    +0.000 NA
ATOM     30  C   UNL     1       6.011   5.773  17.028  0.00  0.00    +0.000 C 
ATOM     31  C   UNL     1       4.681   6.441  16.676  0.00  0.00    +0.000 C 
ATOM     32  N   UNL     1       3.665   5.858  17.543  0.00  0.00    +0.000 N 
ATOM     33  C   UNL     1       3.479   4.408  17.457  0.00  0.00    +0.000 C 
ATOM     34  C   UNL     1       4.853   3.700  17.539  0.00  0.00    +0.000 C 
BRANCH  29  36
ATOM     35  C   UNL     1       7.088   4.776  14.549  0.00  0.00    +0.000 C 
ATOM     36  C   UNL     1       6.018   4.046  15.347  0.00  0.00    +0.000 C 
ENDBRANCH  29  36
ENDBRANCH   1  32
TORSDOF 5
ENDMDL
