MODEL 1
REMARK VINA RESULT:      -8.1      0.000      0.000
REMARK  Name = 
REMARK  8 active torsions:
REMARK  status: ('A' for Active; 'I' for Inactive)
REMARK    1  A    between atoms: C_1  and  O_2
REMARK    2  A    between atoms: O_2  and  C_3
REMARK    3  A    between atoms: C_6  and  C_7
REMARK    4  A    between atoms: C_9  and  C_10
REMARK    5  A    between atoms: N_12  and  C_13
REMARK    6  A    between atoms: C_13  and  C_14
REMARK    7  A    between atoms: C_14  and  N_15
REMARK    8  A    between atoms: C_25  and  C_26
REMARK                            x       y       z     vdW  Elec       q    Type
REMARK                         _______ _______ _______ _____ _____    ______ ____
ROOT
ATOM      1  C   UNL     1       1.202  13.211  20.045  0.00  0.00    +0.000 A 
ATOM      2  C   UNL     1       1.798  12.035  19.645  0.00  0.00    +0.000 A 
ATOM      3  C   UNL     1       1.176  10.857  19.947  0.00  0.00    +0.000 A 
ATOM      4  C   UNL     1       0.401  10.793  21.090  0.00  0.00    +0.000 A 
ATOM      5  C   UNL     1       0.298   9.543  21.722  0.00  0.00    +0.000 A 
ATOM      6  C   UNL     1      -0.445   9.383  22.859  0.00  0.00    +0.000 A 
ATOM      7  C   UNL     1      -1.147  10.475  23.311  0.00  0.00    +0.000 A 
ATOM      8  C   UNL     1      -1.046  11.782  22.722  0.00  0.00    +0.000 A 
ATOM      9  C   UNL     1      -0.164  11.995  21.603  0.00  0.00    +0.000 A 
ATOM     10  N   UNL     1       0.191  13.198  20.980  0.00  0.00    +0.000 NA
ENDROOT
BRANCH   8  11
ATOM     11  C   UNL     1      -1.973  12.767  23.360  0.00  0.00    +0.000 A 
ATOM     12  C   UNL     1      -3.359  12.457  23.426  0.00  0.00    +0.000 A 
ATOM     13  C   UNL     1      -4.336  13.448  23.561  0.00  0.00    +0.000 A 
ATOM     14  C   UNL     1      -3.941  14.765  23.715  0.00  0.00    +0.000 A 
ATOM     15  F   UNL     1      -4.873  15.726  23.776  0.00  0.00    +0.000 F 
ATOM     16  C   UNL     1      -2.590  15.096  23.763  0.00  0.00    +0.000 A 
ATOM     17  C   UNL     1      -1.607  14.104  23.584  0.00  0.00    +0.000 A 
ENDBRANCH   8  11
BRANCH   1  21
ATOM     18  C   UNL     1       2.244  16.787  17.826  0.00  0.00    +0.000 A 
ATOM     19  C   UNL     1       1.299  16.834  18.833  0.00  0.00    +0.000 A 
ATOM     20  C   UNL     1       1.073  15.708  19.619  0.00  0.00    +0.000 A 
ATOM     21  C   UNL     1       1.709  14.453  19.383  0.00  0.00    +0.000 A 
ATOM     22  C   UNL     1       2.726  14.462  18.428  0.00  0.00    +0.000 A 
ATOM     23  C   UNL     1       2.989  15.618  17.655  0.00  0.00    +0.000 A 
BRANCH  18  25
ATOM     24  C   UNL     1       1.097  18.404  16.528  0.00  0.00    +0.000 C 
ATOM     25  O   UNL     1       2.313  17.931  17.085  0.00  0.00    +0.000 OA
ENDBRANCH  18  25
ENDBRANCH   1  21
BRANCH   3  26
ATOM     26  C   UNL     1       1.105   9.826  18.855  0.00  0.00    +0.000 C 
ATOM     27  O   UNL     1       0.367   9.935  17.887  0.00  0.00    +0.000 OA
ATOM     28  N   UNL     1       2.067   8.813  18.950  0.00  0.00    +0.000 N 
ATOM     29  H   UNL     1       2.833   8.947  19.588  0.00  0.00    +0.000 HD
BRANCH  28  30
ATOM     30  C   UNL     1       2.318   7.958  17.810  0.00  0.00    +0.000 C 
BRANCH  30  31
ATOM     31  C   UNL     1       2.345   6.481  18.238  0.00  0.00    +0.000 C 
BRANCH  31  32
ATOM     32  N   UNL     1       2.985   6.221  19.537  0.00  0.00    +0.000 NA
ATOM     33  C   UNL     1       4.281   5.514  19.416  0.00  0.00    +0.000 C 
ATOM     34  C   UNL     1       4.140   4.051  18.964  0.00  0.00    +0.000 C 
ATOM     35  O   UNL     1       3.293   3.312  19.854  0.00  0.00    +0.000 OA
ATOM     36  C   UNL     1       2.003   3.924  19.970  0.00  0.00    +0.000 C 
ATOM     37  C   UNL     1       2.106   5.399  20.404  0.00  0.00    +0.000 C 
ENDBRANCH  31  32
ENDBRANCH  30  31
ENDBRANCH  28  30
ENDBRANCH   3  26
TORSDOF 7
ENDMDL
MODEL 2
REMARK VINA RESULT:      -8.0      0.856      1.285
REMARK  Name = 
REMARK  8 active torsions:
REMARK  status: ('A' for Active; 'I' for Inactive)
REMARK    1  A    between atoms: C_1  and  O_2
REMARK    2  A    between atoms: O_2  and  C_3
REMARK    3  A    between atoms: C_6  and  C_7
REMARK    4  A    between atoms: C_9  and  C_10
REMARK    5  A    between atoms: N_12  and  C_13
REMARK    6  A    between atoms: C_13  and  C_14
REMARK    7  A    between atoms: C_14  and  N_15
REMARK    8  A    between atoms: C_25  and  C_26
REMARK                            x       y       z     vdW  Elec       q    Type
REMARK                         _______ _______ _______ _____ _____    ______ ____
ROOT
ATOM      1  C   UNL     1       1.111  13.261  20.017  0.00  0.00    +0.000 A 
ATOM      2  C   UNL     1       1.702  12.101  19.567  0.00  0.00    +0.000 A 
ATOM      3  C   UNL     1       1.100  10.910  19.860  0.00  0.00    +0.000 A 
ATOM      4  C   UNL     1       0.364  10.811  21.027  0.00  0.00    +0.000 A 
ATOM      5  C   UNL     1       0.292   9.544  21.630  0.00  0.00    +0.000 A 
ATOM      6  C   UNL     1      -0.412   9.349  22.786  0.00  0.00    +0.000 A 
ATOM      7  C   UNL     1      -1.106  10.424  23.289  0.00  0.00    +0.000 A 
ATOM      8  C   UNL     1      -1.035  11.746  22.730  0.00  0.00    +0.000 A 
ATOM      9  C   UNL     1      -0.193  11.994  21.589  0.00  0.00    +0.000 A 
ATOM     10  N   UNL     1       0.132  13.216  20.984  0.00  0.00    +0.000 NA
ENDROOT
BRANCH   8  11
ATOM     11  C   UNL     1      -1.948  12.707  23.424  0.00  0.00    +0.000 A 
ATOM     12  C   UNL     1      -3.324  12.372  23.549  0.00  0.00    +0.000 A 
ATOM     13  C   UNL     1      -4.309  13.344  23.743  0.00  0.00    +0.000 A 
ATOM     14  C   UNL     1      -3.930  14.666  23.896  0.00  0.00    +0.000 A 
ATOM     15  F   UNL     1      -4.874  15.611  24.013  0.00  0.00    +0.000 F 
ATOM     16  C   UNL     1      -2.584  15.020  23.886  0.00  0.00    +0.000 A 
ATOM     17  C   UNL     1      -1.594  14.048  23.649  0.00  0.00    +0.000 A 
ENDBRANCH   8  11
BRANCH   1  21
ATOM     18  C   UNL     1       2.090  16.861  17.808  0.00  0.00    +0.000 A 
ATOM     19  C   UNL     1       1.061  16.859  18.730  0.00  0.00    +0.000 A 
ATOM     20  C   UNL     1       0.847  15.735  19.521  0.00  0.00    +0.000 A 
ATOM     21  C   UNL     1       1.586  14.524  19.370  0.00  0.00    +0.000 A 
ATOM     22  C   UNL     1       2.678  14.587  18.504  0.00  0.00    +0.000 A 
ATOM     23  C   UNL     1       2.926  15.745  17.729  0.00  0.00    +0.000 A 
BRANCH  18  25
ATOM     24  C   UNL     1       0.908  18.494  16.564  0.00  0.00    +0.000 C 
ATOM     25  O   UNL     1       2.143  17.993  17.047  0.00  0.00    +0.000 OA
ENDBRANCH  18  25
ENDBRANCH   1  21
BRANCH   3  26
ATOM     26  C   UNL     1       1.000   9.906  18.746  0.00  0.00    +0.000 C 
ATOM     27  O   UNL     1       0.244  10.044  17.795  0.00  0.00    +0.000 OA
ATOM     28  N   UNL     1       1.956   8.884  18.798  0.00  0.00    +0.000 N 
ATOM     29  H   UNL     1       2.735   8.998  19.424  0.00  0.00    +0.000 HD
BRANCH  28  30
ATOM     30  C   UNL     1       2.179   8.055  17.633  0.00  0.00    +0.000 C 
BRANCH  30  31
ATOM     31  C   UNL     1       3.600   7.469  17.652  0.00  0.00    +0.000 C 
BRANCH  31  32
ATOM     32  N   UNL     1       3.689   6.041  17.311  0.00  0.00    +0.000 NA
ATOM     33  C   UNL     1       3.101   5.158  18.345  0.00  0.00    +0.000 C 
ATOM     34  C   UNL     1       3.921   5.106  19.645  0.00  0.00    +0.000 C 
ATOM     35  O   UNL     1       5.268   4.686  19.392  0.00  0.00    +0.000 OA
ATOM     36  C   UNL     1       5.907   5.538  18.434  0.00  0.00    +0.000 C 
ATOM     37  C   UNL     1       5.102   5.629  17.123  0.00  0.00    +0.000 C 
ENDBRANCH  31  32
ENDBRANCH  30  31
ENDBRANCH  28  30
ENDBRANCH   3  26
TORSDOF 7
ENDMDL
MODEL 3
REMARK VINA RESULT:      -8.0      0.979      1.158
REMARK  Name = 
REMARK  8 active torsions:
REMARK  status: ('A' for Active; 'I' for Inactive)
REMARK    1  A    between atoms: C_1  and  O_2
REMARK    2  A    between atoms: O_2  and  C_3
REMARK    3  A    between atoms: C_6  and  C_7
REMARK    4  A    between atoms: C_9  and  C_10
REMARK    5  A    between atoms: N_12  and  C_13
REMARK    6  A    between atoms: C_13  and  C_14
REMARK    7  A    between atoms: C_14  and  N_15
REMARK    8  A    between atoms: C_25  and  C_26
REMARK                            x       y       z     vdW  Elec       q    Type
REMARK                         _______ _______ _______ _____ _____    ______ ____
ROOT
ATOM      1  C   UNL     1       1.167  13.201  19.989  0.00  0.00    +0.000 A 
ATOM      2  C   UNL     1       1.764  12.032  19.573  0.00  0.00    +0.000 A 
ATOM      3  C   UNL     1       1.151  10.848  19.872  0.00  0.00    +0.000 A 
ATOM      4  C   UNL     1       0.387  10.771  21.023  0.00  0.00    +0.000 A 
ATOM      5  C   UNL     1       0.297   9.516  21.646  0.00  0.00    +0.000 A 
ATOM      6  C   UNL     1      -0.435   9.343  22.788  0.00  0.00    +0.000 A 
ATOM      7  C   UNL     1      -1.137  10.428  23.255  0.00  0.00    +0.000 A 
ATOM      8  C   UNL     1      -1.048  11.740  22.676  0.00  0.00    +0.000 A 
ATOM      9  C   UNL     1      -0.179  11.966  21.551  0.00  0.00    +0.000 A 
ATOM     10  N   UNL     1       0.165  13.176  20.933  0.00  0.00    +0.000 NA
ENDROOT
BRANCH   8  11
ATOM     11  C   UNL     1      -1.974  12.716  23.331  0.00  0.00    +0.000 A 
ATOM     12  C   UNL     1      -3.375  12.484  23.257  0.00  0.00    +0.000 A 
ATOM     13  C   UNL     1      -4.306  13.515  23.410  0.00  0.00    +0.000 A 
ATOM     14  C   UNL     1      -3.858  14.786  23.721  0.00  0.00    +0.000 A 
ATOM     15  F   UNL     1      -4.741  15.792  23.801  0.00  0.00    +0.000 F 
ATOM     16  C   UNL     1      -2.500  15.030  23.908  0.00  0.00    +0.000 A 
ATOM     17  C   UNL     1      -1.559  14.002  23.712  0.00  0.00    +0.000 A 
ENDBRANCH   8  11
BRANCH   1  21
ATOM     18  C   UNL     1       2.210  16.760  17.742  0.00  0.00    +0.000 A 
ATOM     19  C   UNL     1       1.160  16.777  18.640  0.00  0.00    +0.000 A 
ATOM     20  C   UNL     1       0.923  15.667  19.445  0.00  0.00    +0.000 A 
ATOM     21  C   UNL     1       1.662  14.451  19.332  0.00  0.00    +0.000 A 
ATOM     22  C   UNL     1       2.773  14.496  18.490  0.00  0.00    +0.000 A 
ATOM     23  C   UNL     1       3.044  15.639  17.701  0.00  0.00    +0.000 A 
BRANCH  18  25
ATOM     24  C   UNL     1       1.055  18.467  16.574  0.00  0.00    +0.000 C 
ATOM     25  O   UNL     1       2.285  17.878  16.963  0.00  0.00    +0.000 OA
ENDBRANCH  18  25
ENDBRANCH   1  21
BRANCH   3  26
ATOM     26  C   UNL     1       1.074   9.826  18.773  0.00  0.00    +0.000 C 
ATOM     27  O   UNL     1       0.266   9.894  17.858  0.00  0.00    +0.000 OA
ATOM     28  N   UNL     1       2.105   8.878  18.788  0.00  0.00    +0.000 N 
ATOM     29  H   UNL     1       2.902   9.057  19.376  0.00  0.00    +0.000 HD
BRANCH  28  30
ATOM     30  C   UNL     1       2.334   8.053  17.622  0.00  0.00    +0.000 C 
BRANCH  30  31
ATOM     31  C   UNL     1       2.534   6.584  18.030  0.00  0.00    +0.000 C 
BRANCH  31  32
ATOM     32  N   UNL     1       3.884   6.249  18.509  0.00  0.00    +0.000 NA
ATOM     33  C   UNL     1       4.946   6.570  17.527  0.00  0.00    +0.000 C 
ATOM     34  C   UNL     1       4.936   5.653  16.293  0.00  0.00    +0.000 C 
ATOM     35  O   UNL     1       5.058   4.275  16.669  0.00  0.00    +0.000 OA
ATOM     36  C   UNL     1       4.022   3.893  17.582  0.00  0.00    +0.000 C 
ATOM     37  C   UNL     1       3.989   4.803  18.825  0.00  0.00    +0.000 C 
ENDBRANCH  31  32
ENDBRANCH  30  31
ENDBRANCH  28  30
ENDBRANCH   3  26
TORSDOF 7
ENDMDL
MODEL 4
REMARK VINA RESULT:      -7.9      0.880      1.453
REMARK  Name = 
REMARK  8 active torsions:
REMARK  status: ('A' for Active; 'I' for Inactive)
REMARK    1  A    between atoms: C_1  and  O_2
REMARK    2  A    between atoms: O_2  and  C_3
REMARK    3  A    between atoms: C_6  and  C_7
REMARK    4  A    between atoms: C_9  and  C_10
REMARK    5  A    between atoms: N_12  and  C_13
REMARK    6  A    between atoms: C_13  and  C_14
REMARK    7  A    between atoms: C_14  and  N_15
REMARK    8  A    between atoms: C_25  and  C_26
REMARK                            x       y       z     vdW  Elec       q    Type
REMARK                         _______ _______ _______ _____ _____    ______ ____
ROOT
ATOM      1  C   UNL     1       1.374  13.053  19.884  0.00  0.00    +0.000 A 
ATOM      2  C   UNL     1       1.944  11.839  19.571  0.00  0.00    +0.000 A 
ATOM      3  C   UNL     1       1.274  10.700  19.914  0.00  0.00    +0.000 A 
ATOM      4  C   UNL     1       0.458  10.723  21.030  0.00  0.00    +0.000 A 
ATOM      5  C   UNL     1       0.292   9.515  21.725  0.00  0.00    +0.000 A 
ATOM      6  C   UNL     1      -0.496   9.441  22.841  0.00  0.00    +0.000 A 
ATOM      7  C   UNL     1      -1.177  10.578  23.206  0.00  0.00    +0.000 A 
ATOM      8  C   UNL     1      -1.012  11.846  22.551  0.00  0.00    +0.000 A 
ATOM      9  C   UNL     1      -0.085  11.969  21.455  0.00  0.00    +0.000 A 
ATOM     10  N   UNL     1       0.330  13.124  20.780  0.00  0.00    +0.000 NA
ENDROOT
BRANCH   8  11
ATOM     11  C   UNL     1      -1.928  12.894  23.099  0.00  0.00    +0.000 A 
ATOM     12  C   UNL     1      -1.397  14.178  23.398  0.00  0.00    +0.000 A 
ATOM     13  C   UNL     1      -2.012  15.042  24.308  0.00  0.00    +0.000 A 
ATOM     14  C   UNL     1      -3.217  14.672  24.879  0.00  0.00    +0.000 A 
ATOM     15  F   UNL     1      -3.776  15.466  25.804  0.00  0.00    +0.000 F 
ATOM     16  C   UNL     1      -3.823  13.469  24.531  0.00  0.00    +0.000 A 
ATOM     17  C   UNL     1      -3.183  12.579  23.647  0.00  0.00    +0.000 A 
ENDBRANCH   8  11
BRANCH   1  21
ATOM     18  C   UNL     1       2.600  16.478  17.525  0.00  0.00    +0.000 A 
ATOM     19  C   UNL     1       1.654  16.613  18.523  0.00  0.00    +0.000 A 
ATOM     20  C   UNL     1       1.370  15.534  19.354  0.00  0.00    +0.000 A 
ATOM     21  C   UNL     1       1.945  14.241  19.173  0.00  0.00    +0.000 A 
ATOM     22  C   UNL     1       2.963  14.159  18.225  0.00  0.00    +0.000 A 
ATOM     23  C   UNL     1       3.287  15.268  17.406  0.00  0.00    +0.000 A 
BRANCH  18  25
ATOM     24  C   UNL     1       1.527  18.223  16.334  0.00  0.00    +0.000 C 
ATOM     25  O   UNL     1       2.728  17.585  16.736  0.00  0.00    +0.000 OA
ENDBRANCH  18  25
ENDBRANCH   1  21
BRANCH   3  26
ATOM     26  C   UNL     1       1.207   9.612  18.879  0.00  0.00    +0.000 C 
ATOM     27  O   UNL     1       0.592   9.732  17.829  0.00  0.00    +0.000 OA
ATOM     28  N   UNL     1       2.037   8.513  19.136  0.00  0.00    +0.000 N 
ATOM     29  H   UNL     1       2.740   8.611  19.849  0.00  0.00    +0.000 HD
BRANCH  28  30
ATOM     30  C   UNL     1       2.313   7.564  18.080  0.00  0.00    +0.000 C 
BRANCH  30  31
ATOM     31  C   UNL     1       2.666   6.188  18.669  0.00  0.00    +0.000 C 
BRANCH  31  32
ATOM     32  N   UNL     1       2.765   5.098  17.687  0.00  0.00    +0.000 NA
ATOM     33  C   UNL     1       1.654   4.123  17.786  0.00  0.00    +0.000 C 
ATOM     34  C   UNL     1       1.708   3.258  19.056  0.00  0.00    +0.000 C 
ATOM     35  O   UNL     1       2.952   2.549  19.147  0.00  0.00    +0.000 OA
ATOM     36  C   UNL     1       4.066   3.449  19.109  0.00  0.00    +0.000 C 
ATOM     37  C   UNL     1       4.034   4.347  17.857  0.00  0.00    +0.000 C 
ENDBRANCH  31  32
ENDBRANCH  30  31
ENDBRANCH  28  30
ENDBRANCH   3  26
TORSDOF 7
ENDMDL
MODEL 5
REMARK VINA RESULT:      -7.9      0.998      1.396
REMARK  Name = 
REMARK  8 active torsions:
REMARK  status: ('A' for Active; 'I' for Inactive)
REMARK    1  A    between atoms: C_1  and  O_2
REMARK    2  A    between atoms: O_2  and  C_3
REMARK    3  A    between atoms: C_6  and  C_7
REMARK    4  A    between atoms: C_9  and  C_10
REMARK    5  A    between atoms: N_12  and  C_13
REMARK    6  A    between atoms: C_13  and  C_14
REMARK    7  A    between atoms: C_14  and  N_15
REMARK    8  A    between atoms: C_25  and  C_26
REMARK                            x       y       z     vdW  Elec       q    Type
REMARK                         _______ _______ _______ _____ _____    ______ ____
ROOT
ATOM      1  C   UNL     1       1.345  13.154  19.807  0.00  0.00    +0.000 A 
ATOM      2  C   UNL     1       1.867  11.933  19.438  0.00  0.00    +0.000 A 
ATOM      3  C   UNL     1       1.181  10.803  19.783  0.00  0.00    +0.000 A 
ATOM      4  C   UNL     1       0.416  10.820  20.935  0.00  0.00    +0.000 A 
ATOM      5  C   UNL     1       0.247   9.598  21.607  0.00  0.00    +0.000 A 
ATOM      6  C   UNL     1      -0.492   9.517  22.755  0.00  0.00    +0.000 A 
ATOM      7  C   UNL     1      -1.124  10.662  23.178  0.00  0.00    +0.000 A 
ATOM      8  C   UNL     1      -0.953  11.942  22.548  0.00  0.00    +0.000 A 
ATOM      9  C   UNL     1      -0.073  12.068  21.415  0.00  0.00    +0.000 A 
ATOM     10  N   UNL     1       0.345  13.229  20.751  0.00  0.00    +0.000 NA
ENDROOT
BRANCH   8  11
ATOM     11  C   UNL     1      -1.814  12.999  23.163  0.00  0.00    +0.000 A 
ATOM     12  C   UNL     1      -1.205  14.204  23.608  0.00  0.00    +0.000 A 
ATOM     13  C   UNL     1      -1.796  15.021  24.576  0.00  0.00    +0.000 A 
ATOM     14  C   UNL     1      -3.049  14.691  25.062  0.00  0.00    +0.000 A 
ATOM     15  F   UNL     1      -3.589  15.433  26.039  0.00  0.00    +0.000 F 
ATOM     16  C   UNL     1      -3.725  13.577  24.573  0.00  0.00    +0.000 A 
ATOM     17  C   UNL     1      -3.112  12.730  23.630  0.00  0.00    +0.000 A 
ENDBRANCH   8  11
BRANCH   1  21
ATOM     18  C   UNL     1       2.591  16.566  17.440  0.00  0.00    +0.000 A 
ATOM     19  C   UNL     1       1.590  16.692  18.384  0.00  0.00    +0.000 A 
ATOM     20  C   UNL     1       1.295  15.622  19.223  0.00  0.00    +0.000 A 
ATOM     21  C   UNL     1       1.917  14.343  19.102  0.00  0.00    +0.000 A 
ATOM     22  C   UNL     1       2.987  14.274  18.210  0.00  0.00    +0.000 A 
ATOM     23  C   UNL     1       3.320  15.375  17.385  0.00  0.00    +0.000 A 
BRANCH  18  25
ATOM     24  C   UNL     1       1.531  18.301  16.224  0.00  0.00    +0.000 C 
ATOM     25  O   UNL     1       2.727  17.660  16.635  0.00  0.00    +0.000 OA
ENDBRANCH  18  25
ENDBRANCH   1  21
BRANCH   3  26
ATOM     26  C   UNL     1       1.037   9.745  18.725  0.00  0.00    +0.000 C 
ATOM     27  O   UNL     1       0.247   9.838  17.797  0.00  0.00    +0.000 OA
ATOM     28  N   UNL     1       1.993   8.723  18.793  0.00  0.00    +0.000 N 
ATOM     29  H   UNL     1       2.794   8.865  19.384  0.00  0.00    +0.000 HD
BRANCH  28  30
ATOM     30  C   UNL     1       2.171   7.836  17.664  0.00  0.00    +0.000 C 
BRANCH  30  31
ATOM     31  C   UNL     1       2.622   6.445  18.137  0.00  0.00    +0.000 C 
BRANCH  31  32
ATOM     32  N   UNL     1       4.070   6.300  18.354  0.00  0.00    +0.000 NA
ATOM     33  C   UNL     1       4.802   5.882  17.136  0.00  0.00    +0.000 C 
ATOM     34  C   UNL     1       4.515   4.430  16.717  0.00  0.00    +0.000 C 
ATOM     35  O   UNL     1       4.822   3.515  17.777  0.00  0.00    +0.000 OA
ATOM     36  C   UNL     1       4.100   3.841  18.970  0.00  0.00    +0.000 C 
ATOM     37  C   UNL     1       4.349   5.297  19.410  0.00  0.00    +0.000 C 
ENDBRANCH  31  32
ENDBRANCH  30  31
ENDBRANCH  28  30
ENDBRANCH   3  26
TORSDOF 7
ENDMDL
MODEL 6
REMARK VINA RESULT:      -7.6      3.691      8.368
REMARK  Name = 
REMARK  8 active torsions:
REMARK  status: ('A' for Active; 'I' for Inactive)
REMARK    1  A    between atoms: C_1  and  O_2
REMARK    2  A    between atoms: O_2  and  C_3
REMARK    3  A    between atoms: C_6  and  C_7
REMARK    4  A    between atoms: C_9  and  C_10
REMARK    5  A    between atoms: N_12  and  C_13
REMARK    6  A    between atoms: C_13  and  C_14
REMARK    7  A    between atoms: C_14  and  N_15
REMARK    8  A    between atoms: C_25  and  C_26
REMARK                            x       y       z     vdW  Elec       q    Type
REMARK                         _______ _______ _______ _____ _____    ______ ____
ROOT
ATOM      1  C   UNL     1       0.011  11.501  21.631  0.00  0.00    +0.000 A 
ATOM      2  C   UNL     1      -0.957  11.307  22.592  0.00  0.00    +0.000 A 
ATOM      3  C   UNL     1      -1.654  12.393  23.039  0.00  0.00    +0.000 A 
ATOM      4  C   UNL     1      -1.026  13.626  23.042  0.00  0.00    +0.000 A 
ATOM      5  C   UNL     1      -1.439  14.551  24.015  0.00  0.00    +0.000 A 
ATOM      6  C   UNL     1      -0.876  15.794  24.095  0.00  0.00    +0.000 A 
ATOM      7  C   UNL     1       0.053  16.127  23.138  0.00  0.00    +0.000 A 
ATOM      8  C   UNL     1       0.534  15.205  22.146  0.00  0.00    +0.000 A 
ATOM      9  C   UNL     1       0.045  13.851  22.132  0.00  0.00    +0.000 A 
ATOM     10  N   UNL     1       0.480  12.767  21.358  0.00  0.00    +0.000 NA
ENDROOT
BRANCH   8  11
ATOM     11  C   UNL     1       1.481  15.849  21.183  0.00  0.00    +0.000 A 
ATOM     12  C   UNL     1       0.956  16.451  20.007  0.00  0.00    +0.000 A 
ATOM     13  C   UNL     1       1.736  16.653  18.865  0.00  0.00    +0.000 A 
ATOM     14  C   UNL     1       3.081  16.331  18.903  0.00  0.00    +0.000 A 
ATOM     15  F   UNL     1       3.818  16.458  17.790  0.00  0.00    +0.000 F 
ATOM     16  C   UNL     1       3.657  15.839  20.071  0.00  0.00    +0.000 A 
ATOM     17  C   UNL     1       2.863  15.595  21.208  0.00  0.00    +0.000 A 
ENDBRANCH   8  11
BRANCH   1  21
ATOM     18  C   UNL     1       1.812   8.012  19.792  0.00  0.00    +0.000 A 
ATOM     19  C   UNL     1       1.389   7.975  21.107  0.00  0.00    +0.000 A 
ATOM     20  C   UNL     1       0.697   9.059  21.639  0.00  0.00    +0.000 A 
ATOM     21  C   UNL     1       0.473  10.269  20.918  0.00  0.00    +0.000 A 
ATOM     22  C   UNL     1       0.822  10.241  19.568  0.00  0.00    +0.000 A 
ATOM     23  C   UNL     1       1.488   9.124  19.011  0.00  0.00    +0.000 A 
BRANCH  18  25
ATOM     24  C   UNL     1       2.198   5.686  20.025  0.00  0.00    +0.000 C 
ATOM     25  O   UNL     1       2.543   6.921  19.420  0.00  0.00    +0.000 OA
ENDBRANCH  18  25
ENDBRANCH   1  21
BRANCH   3  26
ATOM     26  C   UNL     1      -3.142  12.236  23.180  0.00  0.00    +0.000 C 
ATOM     27  O   UNL     1      -3.672  11.817  24.198  0.00  0.00    +0.000 OA
ATOM     28  N   UNL     1      -3.884  12.763  22.115  0.00  0.00    +0.000 N 
ATOM     29  H   UNL     1      -3.411  13.363  21.461  0.00  0.00    +0.000 HD
BRANCH  28  30
ATOM     30  C   UNL     1      -5.308  12.971  22.271  0.00  0.00    +0.000 C 
BRANCH  30  31
ATOM     31  C   UNL     1      -6.063  12.491  21.021  0.00  0.00    +0.000 C 
BRANCH  31  32
ATOM     32  N   UNL     1      -5.452  12.873  19.739  0.00  0.00    +0.000 NA
ATOM     33  C   UNL     1      -6.257  13.859  18.981  0.00  0.00    +0.000 C 
ATOM     34  C   UNL     1      -7.564  13.280  18.417  0.00  0.00    +0.000 C 
ATOM     35  O   UNL     1      -7.308  12.149  17.573  0.00  0.00    +0.000 OA
ATOM     36  C   UNL     1      -6.574  11.136  18.271  0.00  0.00    +0.000 C 
ATOM     37  C   UNL     1      -5.265  11.686  18.868  0.00  0.00    +0.000 C 
ENDBRANCH  31  32
ENDBRANCH  30  31
ENDBRANCH  28  30
ENDBRANCH   3  26
TORSDOF 7
ENDMDL
MODEL 7
REMARK VINA RESULT:      -7.6      1.099      1.735
REMARK  Name = 
REMARK  8 active torsions:
REMARK  status: ('A' for Active; 'I' for Inactive)
REMARK    1  A    between atoms: C_1  and  O_2
REMARK    2  A    between atoms: O_2  and  C_3
REMARK    3  A    between atoms: C_6  and  C_7
REMARK    4  A    between atoms: C_9  and  C_10
REMARK    5  A    between atoms: N_12  and  C_13
REMARK    6  A    between atoms: C_13  and  C_14
REMARK    7  A    between atoms: C_14  and  N_15
REMARK    8  A    between atoms: C_25  and  C_26
REMARK                            x       y       z     vdW  Elec       q    Type
REMARK                         _______ _______ _______ _____ _____    ______ ____
ROOT
ATOM      1  C   UNL     1       1.544  12.826  19.947  0.00  0.00    +0.000 A 
ATOM      2  C   UNL     1       2.043  11.585  19.618  0.00  0.00    +0.000 A 
ATOM      3  C   UNL     1       1.296  10.483  19.921  0.00  0.00    +0.000 A 
ATOM      4  C   UNL     1       0.458  10.534  21.020  0.00  0.00    +0.000 A 
ATOM      5  C   UNL     1       0.202   9.323  21.684  0.00  0.00    +0.000 A 
ATOM      6  C   UNL     1      -0.613   9.275  22.781  0.00  0.00    +0.000 A 
ATOM      7  C   UNL     1      -1.230  10.445  23.158  0.00  0.00    +0.000 A 
ATOM      8  C   UNL     1      -0.972  11.714  22.535  0.00  0.00    +0.000 A 
ATOM      9  C   UNL     1      -0.015  11.801  21.462  0.00  0.00    +0.000 A 
ATOM     10  N   UNL     1       0.487  12.942  20.822  0.00  0.00    +0.000 NA
ENDROOT
BRANCH   8  11
ATOM     11  C   UNL     1      -1.833  12.805  23.089  0.00  0.00    +0.000 A 
ATOM     12  C   UNL     1      -1.220  14.025  23.484  0.00  0.00    +0.000 A 
ATOM     13  C   UNL     1      -1.817  14.891  24.404  0.00  0.00    +0.000 A 
ATOM     14  C   UNL     1      -3.078  14.594  24.888  0.00  0.00    +0.000 A 
ATOM     15  F   UNL     1      -3.626  15.384  25.822  0.00  0.00    +0.000 F 
ATOM     16  C   UNL     1      -3.757  13.462  24.444  0.00  0.00    +0.000 A 
ATOM     17  C   UNL     1      -3.139  12.568  23.549  0.00  0.00    +0.000 A 
ENDBRANCH   8  11
BRANCH   1  21
ATOM     18  C   UNL     1       3.781  16.207  18.410  0.00  0.00    +0.000 A 
ATOM     19  C   UNL     1       4.274  14.922  18.288  0.00  0.00    +0.000 A 
ATOM     20  C   UNL     1       3.485  13.841  18.668  0.00  0.00    +0.000 A 
ATOM     21  C   UNL     1       2.203  13.989  19.276  0.00  0.00    +0.000 A 
ATOM     22  C   UNL     1       1.691  15.286  19.296  0.00  0.00    +0.000 A 
ATOM     23  C   UNL     1       2.474  16.385  18.869  0.00  0.00    +0.000 A 
BRANCH  18  25
ATOM     24  C   UNL     1       5.934  17.140  18.738  0.00  0.00    +0.000 C 
ATOM     25  O   UNL     1       4.682  17.175  18.073  0.00  0.00    +0.000 OA
ENDBRANCH  18  25
ENDBRANCH   1  21
BRANCH   3  26
ATOM     26  C   UNL     1       1.184   9.424  18.860  0.00  0.00    +0.000 C 
ATOM     27  O   UNL     1       0.478   9.548  17.870  0.00  0.00    +0.000 OA
ATOM     28  N   UNL     1       2.076   8.354  19.010  0.00  0.00    +0.000 N 
ATOM     29  H   UNL     1       2.833   8.460  19.664  0.00  0.00    +0.000 HD
BRANCH  28  30
ATOM     30  C   UNL     1       2.299   7.449  17.904  0.00  0.00    +0.000 C 
BRANCH  30  31
ATOM     31  C   UNL     1       2.337   5.993  18.397  0.00  0.00    +0.000 C 
BRANCH  31  32
ATOM     32  N   UNL     1       3.157   5.763  19.596  0.00  0.00    +0.000 NA
ATOM     33  C   UNL     1       4.575   5.469  19.284  0.00  0.00    +0.000 C 
ATOM     34  C   UNL     1       4.785   4.093  18.629  0.00  0.00    +0.000 C 
ATOM     35  O   UNL     1       4.267   3.041  19.454  0.00  0.00    +0.000 OA
ATOM     36  C   UNL     1       2.879   3.247  19.747  0.00  0.00    +0.000 C 
ATOM     37  C   UNL     1       2.628   4.626  20.388  0.00  0.00    +0.000 C 
ENDBRANCH  31  32
ENDBRANCH  30  31
ENDBRANCH  28  30
ENDBRANCH   3  26
TORSDOF 7
ENDMDL
MODEL 8
REMARK VINA RESULT:      -7.6      1.321      2.100
REMARK  Name = 
REMARK  8 active torsions:
REMARK  status: ('A' for Active; 'I' for Inactive)
REMARK    1  A    between atoms: C_1  and  O_2
REMARK    2  A    between atoms: O_2  and  C_3
REMARK    3  A    between atoms: C_6  and  C_7
REMARK    4  A    between atoms: C_9  and  C_10
REMARK    5  A    between atoms: N_12  and  C_13
REMARK    6  A    between atoms: C_13  and  C_14
REMARK    7  A    between atoms: C_14  and  N_15
REMARK    8  A    between atoms: C_25  and  C_26
REMARK                            x       y       z     vdW  Elec       q    Type
REMARK                         _______ _______ _______ _____ _____    ______ ____
ROOT
ATOM      1  C   UNL     1       1.536  12.848  19.926  0.00  0.00    +0.000 A 
ATOM      2  C   UNL     1       2.025  11.607  19.582  0.00  0.00    +0.000 A 
ATOM      3  C   UNL     1       1.272  10.508  19.880  0.00  0.00    +0.000 A 
ATOM      4  C   UNL     1       0.441  10.555  20.986  0.00  0.00    +0.000 A 
ATOM      5  C   UNL     1       0.181   9.340  21.641  0.00  0.00    +0.000 A 
ATOM      6  C   UNL     1      -0.627   9.288  22.743  0.00  0.00    +0.000 A 
ATOM      7  C   UNL     1      -1.233  10.459  23.134  0.00  0.00    +0.000 A 
ATOM      8  C   UNL     1      -0.969  11.731  22.521  0.00  0.00    +0.000 A 
ATOM      9  C   UNL     1      -0.020  11.822  21.442  0.00  0.00    +0.000 A 
ATOM     10  N   UNL     1       0.486  12.965  20.810  0.00  0.00    +0.000 NA
ENDROOT
BRANCH   8  11
ATOM     11  C   UNL     1      -1.819  12.823  23.090  0.00  0.00    +0.000 A 
ATOM     12  C   UNL     1      -1.195  14.036  23.492  0.00  0.00    +0.000 A 
ATOM     13  C   UNL     1      -1.779  14.898  24.424  0.00  0.00    +0.000 A 
ATOM     14  C   UNL     1      -3.040  14.605  24.914  0.00  0.00    +0.000 A 
ATOM     15  F   UNL     1      -3.575  15.391  25.859  0.00  0.00    +0.000 F 
ATOM     16  C   UNL     1      -3.729  13.482  24.464  0.00  0.00    +0.000 A 
ATOM     17  C   UNL     1      -3.123  12.592  23.558  0.00  0.00    +0.000 A 
ENDBRANCH   8  11
BRANCH   1  21
ATOM     18  C   UNL     1       3.779  16.236  18.411  0.00  0.00    +0.000 A 
ATOM     19  C   UNL     1       4.280  14.953  18.299  0.00  0.00    +0.000 A 
ATOM     20  C   UNL     1       3.491  13.869  18.672  0.00  0.00    +0.000 A 
ATOM     21  C   UNL     1       2.199  14.013  19.261  0.00  0.00    +0.000 A 
ATOM     22  C   UNL     1       1.681  15.308  19.270  0.00  0.00    +0.000 A 
ATOM     23  C   UNL     1       2.464  16.409  18.851  0.00  0.00    +0.000 A 
BRANCH  18  25
ATOM     24  C   UNL     1       5.936  17.158  18.740  0.00  0.00    +0.000 C 
ATOM     25  O   UNL     1       4.680  17.207  18.084  0.00  0.00    +0.000 OA
ENDBRANCH  18  25
ENDBRANCH   1  21
BRANCH   3  26
ATOM     26  C   UNL     1       1.145   9.459  18.811  0.00  0.00    +0.000 C 
ATOM     27  O   UNL     1       0.380   9.567  17.864  0.00  0.00    +0.000 OA
ATOM     28  N   UNL     1       2.088   8.427  18.895  0.00  0.00    +0.000 N 
ATOM     29  H   UNL     1       2.875   8.556  19.507  0.00  0.00    +0.000 HD
BRANCH  28  30
ATOM     30  C   UNL     1       2.286   7.546  17.764  0.00  0.00    +0.000 C 
BRANCH  30  31
ATOM     31  C   UNL     1       3.643   6.832  17.867  0.00  0.00    +0.000 C 
BRANCH  31  32
ATOM     32  N   UNL     1       3.653   5.442  17.388  0.00  0.00    +0.000 NA
ATOM     33  C   UNL     1       3.089   4.485  18.368  0.00  0.00    +0.000 C 
ATOM     34  C   UNL     1       3.978   4.279  19.605  0.00  0.00    +0.000 C 
ATOM     35  O   UNL     1       5.290   3.836  19.232  0.00  0.00    +0.000 OA
ATOM     36  C   UNL     1       5.908   4.753  18.322  0.00  0.00    +0.000 C 
ATOM     37  C   UNL     1       5.034   4.999  17.076  0.00  0.00    +0.000 C 
ENDBRANCH  31  32
ENDBRANCH  30  31
ENDBRANCH  28  30
ENDBRANCH   3  26
TORSDOF 7
ENDMDL
MODEL 9
REMARK VINA RESULT:      -7.6      4.117      7.653
REMARK  Name = 
REMARK  8 active torsions:
REMARK  status: ('A' for Active; 'I' for Inactive)
REMARK    1  A    between atoms: C_1  and  O_2
REMARK    2  A    between atoms: O_2  and  C_3
REMARK    3  A    between atoms: C_6  and  C_7
REMARK    4  A    between atoms: C_9  and  C_10
REMARK    5  A    between atoms: N_12  and  C_13
REMARK    6  A    between atoms: C_13  and  C_14
REMARK    7  A    between atoms: C_14  and  N_15
REMARK    8  A    between atoms: C_25  and  C_26
REMARK                            x       y       z     vdW  Elec       q    Type
REMARK                         _______ _______ _______ _____ _____    ______ ____
ROOT
ATOM      1  C   UNL     1       2.394  14.169  18.868  0.00  0.00    +0.000 A 
ATOM      2  C   UNL     1       1.296  14.987  18.723  0.00  0.00    +0.000 A 
ATOM      3  C   UNL     1       0.062  14.476  19.010  0.00  0.00    +0.000 A 
ATOM      4  C   UNL     1      -0.153  13.123  18.820  0.00  0.00    +0.000 A 
ATOM      5  C   UNL     1      -1.461  12.723  18.504  0.00  0.00    +0.000 A 
ATOM      6  C   UNL     1      -1.769  11.407  18.297  0.00  0.00    +0.000 A 
ATOM      7  C   UNL     1      -0.765  10.488  18.489  0.00  0.00    +0.000 A 
ATOM      8  C   UNL     1       0.596  10.849  18.777  0.00  0.00    +0.000 A 
ATOM      9  C   UNL     1       0.962  12.239  18.867  0.00  0.00    +0.000 A 
ATOM     10  N   UNL     1       2.237  12.806  18.993  0.00  0.00    +0.000 NA
ENDROOT
BRANCH   8  11
ATOM     11  C   UNL     1       1.464   9.654  19.014  0.00  0.00    +0.000 A 
ATOM     12  C   UNL     1       2.161   9.087  17.912  0.00  0.00    +0.000 A 
ATOM     13  C   UNL     1       2.601   7.760  17.916  0.00  0.00    +0.000 A 
ATOM     14  C   UNL     1       2.423   6.995  19.055  0.00  0.00    +0.000 A 
ATOM     15  F   UNL     1       2.780   5.703  19.040  0.00  0.00    +0.000 F 
ATOM     16  C   UNL     1       1.840   7.547  20.192  0.00  0.00    +0.000 A 
ATOM     17  C   UNL     1       1.359   8.870  20.175  0.00  0.00    +0.000 A 
ENDBRANCH   8  11
BRANCH   1  21
ATOM     18  C   UNL     1       6.006  16.561  18.707  0.00  0.00    +0.000 A 
ATOM     19  C   UNL     1       5.003  16.861  19.609  0.00  0.00    +0.000 A 
ATOM     20  C   UNL     1       3.912  16.007  19.735  0.00  0.00    +0.000 A 
ATOM     21  C   UNL     1       3.720  14.862  18.906  0.00  0.00    +0.000 A 
ATOM     22  C   UNL     1       4.790  14.531  18.076  0.00  0.00    +0.000 A 
ATOM     23  C   UNL     1       5.922  15.374  17.976  0.00  0.00    +0.000 A 
BRANCH  18  25
ATOM     24  C   UNL     1       8.319  17.061  18.592  0.00  0.00    +0.000 C 
ATOM     25  O   UNL     1       6.977  17.518  18.628  0.00  0.00    +0.000 OA
ENDBRANCH  18  25
ENDBRANCH   1  21
BRANCH   3  26
ATOM     26  C   UNL     1      -0.862  15.342  19.819  0.00  0.00    +0.000 C 
ATOM     27  O   UNL     1      -1.363  16.367  19.382  0.00  0.00    +0.000 OA
ATOM     28  N   UNL     1      -1.234  14.797  21.055  0.00  0.00    +0.000 N 
ATOM     29  H   UNL     1      -1.036  13.826  21.221  0.00  0.00    +0.000 HD
BRANCH  28  30
ATOM     30  C   UNL     1      -2.354  15.362  21.776  0.00  0.00    +0.000 C 
BRANCH  30  31
ATOM     31  C   UNL     1      -2.775  14.436  22.929  0.00  0.00    +0.000 C 
BRANCH  31  32
ATOM     32  N   UNL     1      -3.120  13.063  22.532  0.00  0.00    +0.000 NA
ATOM     33  C   UNL     1      -4.441  12.962  21.870  0.00  0.00    +0.000 C 
ATOM     34  C   UNL     1      -5.624  13.199  22.825  0.00  0.00    +0.000 C 
ATOM     35  O   UNL     1      -5.590  12.284  23.928  0.00  0.00    +0.000 OA
ATOM     36  C   UNL     1      -4.350  12.373  24.640  0.00  0.00    +0.000 C 
ATOM     37  C   UNL     1      -3.140  12.161  23.709  0.00  0.00    +0.000 C 
ENDBRANCH  31  32
ENDBRANCH  30  31
ENDBRANCH  28  30
ENDBRANCH   3  26
TORSDOF 7
ENDMDL
