MODEL 1
REMARK VINA RESULT:      -7.4      0.000      0.000
REMARK  Name = 
REMARK  7 active torsions:
REMARK  status: ('A' for Active; 'I' for Inactive)
REMARK    1  A    between atoms: C_1  and  C_2
REMARK    2  A    between atoms: C_6  and  N_7
REMARK    3  A    between atoms: C_11  and  S_12
REMARK    4  A    between atoms: S_12  and  C_13
REMARK    5  A    between atoms: C_13  and  C_14
REMARK    6  A    between atoms: N_16  and  C_17
REMARK    7  A    between atoms: C_17  and  C_18
REMARK                            x       y       z     vdW  Elec       q    Type
REMARK                         _______ _______ _______ _____ _____    ______ ____
ROOT
ATOM      1  N   UNL     1       7.176   5.011  16.015  0.00  0.00    +0.000 N 
ATOM      2  N   UNL     1       7.905   4.140  16.763  0.00  0.00    +0.000 NA
ATOM      3  N   UNL     1       7.859   4.593  18.007  0.00  0.00    +0.000 NA
ATOM      4  N   UNL     1       7.041   5.687  18.105  0.00  0.00    +0.000 NA
ATOM      5  C   UNL     1       6.598   5.924  16.895  0.00  0.00    +0.000 A 
ENDROOT
BRANCH   1  11
ATOM      6  C   UNL     1       5.302   2.636  12.097  0.00  0.00    +0.000 C 
ATOM      7  C   UNL     1       6.208   3.693  12.657  0.00  0.00    +0.000 A 
ATOM      8  C   UNL     1       7.108   4.389  11.847  0.00  0.00    +0.000 A 
ATOM      9  C   UNL     1       7.954   5.351  12.399  0.00  0.00    +0.000 A 
ATOM     10  C   UNL     1       7.937   5.597  13.775  0.00  0.00    +0.000 A 
ATOM     11  C   UNL     1       7.085   4.856  14.607  0.00  0.00    +0.000 A 
ATOM     12  C   UNL     1       6.184   3.952  14.035  0.00  0.00    +0.000 A 
ENDBRANCH   1  11
BRANCH   5  13
ATOM     13  S   UNL     1       5.332   7.038  16.497  0.00  0.00    +0.000 S 
BRANCH  13  14
ATOM     14  C   UNL     1       4.001   6.553  17.635  0.00  0.00    +0.000 C 
BRANCH  14  15
ATOM     15  C   UNL     1       3.934   5.032  17.778  0.00  0.00    +0.000 C 
ATOM     16  O   UNL     1       3.639   4.260  16.868  0.00  0.00    +0.000 OA
ATOM     17  N   UNL     1       4.262   4.573  19.042  0.00  0.00    +0.000 N 
ATOM     18  H   UNL     1       4.266   5.212  19.827  0.00  0.00    +0.000 HD
BRANCH  17  19
ATOM     19  C   UNL     1       4.262   3.149  19.360  0.00  0.00    +0.000 C 
BRANCH  19  20
ATOM     20  C   UNL     1       2.899   2.620  19.818  0.00  0.00    +0.000 C 
ATOM     21  C   UNL     1       1.981   2.133  18.710  0.00  0.00    +0.000 C 
ATOM     22  C   UNL     1       0.631   2.199  19.373  0.00  0.00    +0.000 C 
ATOM     23  C   UNL     1       0.757   3.415  20.270  0.00  0.00    +0.000 C 
ATOM     24  O   UNL     1       2.156   3.639  20.515  0.00  0.00    +0.000 OA
ENDBRANCH  19  20
ENDBRANCH  17  19
ENDBRANCH  14  15
ENDBRANCH  13  14
ENDBRANCH   5  13
TORSDOF 6
ENDMDL
MODEL 2
REMARK VINA RESULT:      -7.2      2.534      4.384
REMARK  Name = 
REMARK  7 active torsions:
REMARK  status: ('A' for Active; 'I' for Inactive)
REMARK    1  A    between atoms: C_1  and  C_2
REMARK    2  A    between atoms: C_6  and  N_7
REMARK    3  A    between atoms: C_11  and  S_12
REMARK    4  A    between atoms: S_12  and  C_13
REMARK    5  A    between atoms: C_13  and  C_14
REMARK    6  A    between atoms: N_16  and  C_17
REMARK    7  A    between atoms: C_17  and  C_18
REMARK                            x       y       z     vdW  Elec       q    Type
REMARK                         _______ _______ _______ _____ _____    ______ ____
ROOT
ATOM      1  N   UNL     1       6.755   5.155  15.665  0.00  0.00    +0.000 N 
ATOM      2  N   UNL     1       7.446   5.325  14.507  0.00  0.00    +0.000 NA
ATOM      3  N   UNL     1       6.839   4.573  13.600  0.00  0.00    +0.000 NA
ATOM      4  N   UNL     1       5.714   3.988  14.116  0.00  0.00    +0.000 NA
ATOM      5  C   UNL     1       5.644   4.368  15.368  0.00  0.00    +0.000 A 
ENDROOT
BRANCH   1  11
ATOM      6  C   UNL     1       8.281   9.199  18.076  0.00  0.00    +0.000 C 
ATOM      7  C   UNL     1       7.975   7.730  18.078  0.00  0.00    +0.000 A 
ATOM      8  C   UNL     1       8.298   6.918  19.167  0.00  0.00    +0.000 A 
ATOM      9  C   UNL     1       8.022   5.551  19.133  0.00  0.00    +0.000 A 
ATOM     10  C   UNL     1       7.459   4.975  17.991  0.00  0.00    +0.000 A 
ATOM     11  C   UNL     1       7.193   5.770  16.867  0.00  0.00    +0.000 A 
ATOM     12  C   UNL     1       7.396   7.152  16.940  0.00  0.00    +0.000 A 
ENDBRANCH   1  11
BRANCH   5  13
ATOM     13  S   UNL     1       4.281   4.120  16.409  0.00  0.00    +0.000 S 
BRANCH  13  14
ATOM     14  C   UNL     1       4.516   2.410  16.975  0.00  0.00    +0.000 C 
BRANCH  14  15
ATOM     15  C   UNL     1       3.440   2.018  17.987  0.00  0.00    +0.000 C 
ATOM     16  O   UNL     1       3.641   1.329  18.985  0.00  0.00    +0.000 OA
ATOM     17  N   UNL     1       2.187   2.533  17.701  0.00  0.00    +0.000 N 
ATOM     18  H   UNL     1       1.986   2.887  16.774  0.00  0.00    +0.000 HD
BRANCH  17  19
ATOM     19  C   UNL     1       1.040   2.271  18.563  0.00  0.00    +0.000 C 
BRANCH  19  20
ATOM     20  C   UNL     1       0.972   3.183  19.793  0.00  0.00    +0.000 C 
ATOM     21  C   UNL     1       1.738   4.489  19.681  0.00  0.00    +0.000 C 
ATOM     22  C   UNL     1       1.924   4.866  21.126  0.00  0.00    +0.000 C 
ATOM     23  C   UNL     1       2.096   3.521  21.804  0.00  0.00    +0.000 C 
ATOM     24  O   UNL     1       1.505   2.521  20.957  0.00  0.00    +0.000 OA
ENDBRANCH  19  20
ENDBRANCH  17  19
ENDBRANCH  14  15
ENDBRANCH  13  14
ENDBRANCH   5  13
TORSDOF 6
ENDMDL
MODEL 3
REMARK VINA RESULT:      -7.2      4.125      5.659
REMARK  Name = 
REMARK  7 active torsions:
REMARK  status: ('A' for Active; 'I' for Inactive)
REMARK    1  A    between atoms: C_1  and  C_2
REMARK    2  A    between atoms: C_6  and  N_7
REMARK    3  A    between atoms: C_11  and  S_12
REMARK    4  A    between atoms: S_12  and  C_13
REMARK    5  A    between atoms: C_13  and  C_14
REMARK    6  A    between atoms: N_16  and  C_17
REMARK    7  A    between atoms: C_17  and  C_18
REMARK                            x       y       z     vdW  Elec       q    Type
REMARK                         _______ _______ _______ _____ _____    ______ ____
ROOT
ATOM      1  N   UNL     1       3.476   3.665  18.394  0.00  0.00    +0.000 N 
ATOM      2  N   UNL     1       2.916   2.462  18.098  0.00  0.00    +0.000 NA
ATOM      3  N   UNL     1       1.842   2.355  18.868  0.00  0.00    +0.000 NA
ATOM      4  N   UNL     1       1.638   3.499  19.592  0.00  0.00    +0.000 NA
ATOM      5  C   UNL     1       2.617   4.311  19.280  0.00  0.00    +0.000 A 
ENDROOT
BRANCH   1  11
ATOM      6  C   UNL     1       6.323   4.037  14.361  0.00  0.00    +0.000 C 
ATOM      7  C   UNL     1       6.139   4.234  15.837  0.00  0.00    +0.000 A 
ATOM      8  C   UNL     1       7.201   4.608  16.662  0.00  0.00    +0.000 A 
ATOM      9  C   UNL     1       7.007   4.762  18.035  0.00  0.00    +0.000 A 
ATOM     10  C   UNL     1       5.756   4.503  18.602  0.00  0.00    +0.000 A 
ATOM     11  C   UNL     1       4.699   4.062  17.792  0.00  0.00    +0.000 A 
ATOM     12  C   UNL     1       4.882   3.989  16.407  0.00  0.00    +0.000 A 
ENDBRANCH   1  11
BRANCH   5  13
ATOM     13  S   UNL     1       2.700   5.985  19.718  0.00  0.00    +0.000 S 
BRANCH  13  14
ATOM     14  C   UNL     1       2.696   6.822  18.105  0.00  0.00    +0.000 C 
BRANCH  14  15
ATOM     15  C   UNL     1       2.132   8.237  18.227  0.00  0.00    +0.000 C 
ATOM     16  O   UNL     1       2.106   9.057  17.311  0.00  0.00    +0.000 OA
ATOM     17  N   UNL     1       1.617   8.530  19.478  0.00  0.00    +0.000 N 
ATOM     18  H   UNL     1       1.857   7.949  20.272  0.00  0.00    +0.000 HD
BRANCH  17  19
ATOM     19  C   UNL     1       1.028   9.831  19.775  0.00  0.00    +0.000 C 
BRANCH  19  20
ATOM     20  C   UNL     1       0.879  10.113  21.274  0.00  0.00    +0.000 C 
ATOM     21  C   UNL     1       0.506   8.916  22.130  0.00  0.00    +0.000 C 
ATOM     22  C   UNL     1      -0.066   9.576  23.356  0.00  0.00    +0.000 C 
ATOM     23  C   UNL     1      -0.750  10.804  22.787  0.00  0.00    +0.000 C 
ATOM     24  O   UNL     1      -0.147  11.096  21.515  0.00  0.00    +0.000 OA
ENDBRANCH  19  20
ENDBRANCH  17  19
ENDBRANCH  14  15
ENDBRANCH  13  14
ENDBRANCH   5  13
TORSDOF 6
ENDMDL
MODEL 4
REMARK VINA RESULT:      -7.1      1.893      2.818
REMARK  Name = 
REMARK  7 active torsions:
REMARK  status: ('A' for Active; 'I' for Inactive)
REMARK    1  A    between atoms: C_1  and  C_2
REMARK    2  A    between atoms: C_6  and  N_7
REMARK    3  A    between atoms: C_11  and  S_12
REMARK    4  A    between atoms: S_12  and  C_13
REMARK    5  A    between atoms: C_13  and  C_14
REMARK    6  A    between atoms: N_16  and  C_17
REMARK    7  A    between atoms: C_17  and  C_18
REMARK                            x       y       z     vdW  Elec       q    Type
REMARK                         _______ _______ _______ _____ _____    ______ ____
ROOT
ATOM      1  N   UNL     1       6.833   4.388  13.272  0.00  0.00    +0.000 N 
ATOM      2  N   UNL     1       7.890   5.013  12.689  0.00  0.00    +0.000 NA
ATOM      3  N   UNL     1       8.419   5.793  13.622  0.00  0.00    +0.000 NA
ATOM      4  N   UNL     1       7.786   5.622  14.825  0.00  0.00    +0.000 NA
ATOM      5  C   UNL     1       6.838   4.742  14.619  0.00  0.00    +0.000 A 
ENDROOT
BRANCH   1  11
ATOM      6  C   UNL     1       6.124   0.071  10.958  0.00  0.00    +0.000 C 
ATOM      7  C   UNL     1       5.619   1.430  11.342  0.00  0.00    +0.000 A 
ATOM      8  C   UNL     1       4.435   1.947  10.811  0.00  0.00    +0.000 A 
ATOM      9  C   UNL     1       4.001   3.224  11.169  0.00  0.00    +0.000 A 
ATOM     10  C   UNL     1       4.769   4.013  12.030  0.00  0.00    +0.000 A 
ATOM     11  C   UNL     1       5.993   3.529  12.515  0.00  0.00    +0.000 A 
ATOM     12  C   UNL     1       6.379   2.219  12.217  0.00  0.00    +0.000 A 
ENDBRANCH   1  11
BRANCH   5  13
ATOM     13  S   UNL     1       5.903   3.978  15.862  0.00  0.00    +0.000 S 
BRANCH  13  14
ATOM     14  C   UNL     1       5.955   5.197  17.208  0.00  0.00    +0.000 C 
BRANCH  14  15
ATOM     15  C   UNL     1       5.709   4.527  18.560  0.00  0.00    +0.000 C 
ATOM     16  O   UNL     1       6.227   4.882  19.617  0.00  0.00    +0.000 OA
ATOM     17  N   UNL     1       4.815   3.472  18.509  0.00  0.00    +0.000 N 
ATOM     18  H   UNL     1       4.588   3.045  17.619  0.00  0.00    +0.000 HD
BRANCH  17  19
ATOM     19  C   UNL     1       4.452   2.720  19.705  0.00  0.00    +0.000 C 
BRANCH  19  20
ATOM     20  C   UNL     1       2.953   2.423  19.815  0.00  0.00    +0.000 C 
ATOM     21  C   UNL     1       2.230   2.210  18.497  0.00  0.00    +0.000 C 
ATOM     22  C   UNL     1       0.799   2.477  18.880  0.00  0.00    +0.000 C 
ATOM     23  C   UNL     1       0.929   3.569  19.924  0.00  0.00    +0.000 C 
ATOM     24  O   UNL     1       2.258   3.504  20.467  0.00  0.00    +0.000 OA
ENDBRANCH  19  20
ENDBRANCH  17  19
ENDBRANCH  14  15
ENDBRANCH  13  14
ENDBRANCH   5  13
TORSDOF 6
ENDMDL
MODEL 5
REMARK VINA RESULT:      -7.1      2.155      3.108
REMARK  Name = 
REMARK  7 active torsions:
REMARK  status: ('A' for Active; 'I' for Inactive)
REMARK    1  A    between atoms: C_1  and  C_2
REMARK    2  A    between atoms: C_6  and  N_7
REMARK    3  A    between atoms: C_11  and  S_12
REMARK    4  A    between atoms: S_12  and  C_13
REMARK    5  A    between atoms: C_13  and  C_14
REMARK    6  A    between atoms: N_16  and  C_17
REMARK    7  A    between atoms: C_17  and  C_18
REMARK                            x       y       z     vdW  Elec       q    Type
REMARK                         _______ _______ _______ _____ _____    ______ ____
ROOT
ATOM      1  N   UNL     1       6.847   4.455  16.209  0.00  0.00    +0.000 N 
ATOM      2  N   UNL     1       8.011   4.371  16.907  0.00  0.00    +0.000 NA
ATOM      3  N   UNL     1       7.680   4.433  18.189  0.00  0.00    +0.000 NA
ATOM      4  N   UNL     1       6.320   4.463  18.346  0.00  0.00    +0.000 NA
ATOM      5  C   UNL     1       5.810   4.445  17.139  0.00  0.00    +0.000 A 
ENDROOT
BRANCH   1  11
ATOM      6  C   UNL     1       5.258   2.651  11.883  0.00  0.00    +0.000 C 
ATOM      7  C   UNL     1       6.119   3.616  12.644  0.00  0.00    +0.000 A 
ATOM      8  C   UNL     1       7.070   4.411  12.001  0.00  0.00    +0.000 A 
ATOM      9  C   UNL     1       7.872   5.283  12.737  0.00  0.00    +0.000 A 
ATOM     10  C   UNL     1       7.760   5.339  14.129  0.00  0.00    +0.000 A 
ATOM     11  C   UNL     1       6.855   4.495  14.790  0.00  0.00    +0.000 A 
ATOM     12  C   UNL     1       5.998   3.684  14.039  0.00  0.00    +0.000 A 
ENDBRANCH   1  11
BRANCH   5  13
ATOM     13  S   UNL     1       4.133   4.216  16.771  0.00  0.00    +0.000 S 
BRANCH  13  14
ATOM     14  C   UNL     1       3.628   2.953  17.977  0.00  0.00    +0.000 C 
BRANCH  14  15
ATOM     15  C   UNL     1       3.175   3.600  19.285  0.00  0.00    +0.000 C 
ATOM     16  O   UNL     1       3.347   3.110  20.400  0.00  0.00    +0.000 OA
ATOM     17  N   UNL     1       2.557   4.828  19.120  0.00  0.00    +0.000 N 
ATOM     18  H   UNL     1       2.213   5.101  18.208  0.00  0.00    +0.000 HD
BRANCH  17  19
ATOM     19  C   UNL     1       2.068   5.596  20.259  0.00  0.00    +0.000 C 
BRANCH  19  20
ATOM     20  C   UNL     1       2.209   7.112  20.088  0.00  0.00    +0.000 C 
ATOM     21  C   UNL     1       1.084   7.943  20.678  0.00  0.00    +0.000 C 
ATOM     22  C   UNL     1       1.219   9.235  19.918  0.00  0.00    +0.000 C 
ATOM     23  C   UNL     1       1.669   8.772  18.546  0.00  0.00    +0.000 C 
ATOM     24  O   UNL     1       2.264   7.471  18.693  0.00  0.00    +0.000 OA
ENDBRANCH  19  20
ENDBRANCH  17  19
ENDBRANCH  14  15
ENDBRANCH  13  14
ENDBRANCH   5  13
TORSDOF 6
ENDMDL
MODEL 6
REMARK VINA RESULT:      -7.1      3.073      7.255
REMARK  Name = 
REMARK  7 active torsions:
REMARK  status: ('A' for Active; 'I' for Inactive)
REMARK    1  A    between atoms: C_1  and  C_2
REMARK    2  A    between atoms: C_6  and  N_7
REMARK    3  A    between atoms: C_11  and  S_12
REMARK    4  A    between atoms: S_12  and  C_13
REMARK    5  A    between atoms: C_13  and  C_14
REMARK    6  A    between atoms: N_16  and  C_17
REMARK    7  A    between atoms: C_17  and  C_18
REMARK                            x       y       z     vdW  Elec       q    Type
REMARK                         _______ _______ _______ _____ _____    ______ ____
ROOT
ATOM      1  N   UNL     1       2.046   4.345  20.631  0.00  0.00    +0.000 N 
ATOM      2  N   UNL     1       2.284   3.931  21.904  0.00  0.00    +0.000 NA
ATOM      3  N   UNL     1       2.144   2.613  21.897  0.00  0.00    +0.000 NA
ATOM      4  N   UNL     1       1.911   2.148  20.630  0.00  0.00    +0.000 NA
ATOM      5  C   UNL     1       1.882   3.202  19.852  0.00  0.00    +0.000 A 
ENDROOT
BRANCH   1  11
ATOM      6  C   UNL     1       0.386   8.924  21.511  0.00  0.00    +0.000 C 
ATOM      7  C   UNL     1       1.224   7.987  20.692  0.00  0.00    +0.000 A 
ATOM      8  C   UNL     1       1.837   8.401  19.507  0.00  0.00    +0.000 A 
ATOM      9  C   UNL     1       2.592   7.503  18.754  0.00  0.00    +0.000 A 
ATOM     10  C   UNL     1       2.708   6.169  19.156  0.00  0.00    +0.000 A 
ATOM     11  C   UNL     1       2.040   5.727  20.308  0.00  0.00    +0.000 A 
ATOM     12  C   UNL     1       1.354   6.653  21.100  0.00  0.00    +0.000 A 
ENDBRANCH   1  11
BRANCH   5  13
ATOM     13  S   UNL     1       1.872   3.160  18.120  0.00  0.00    +0.000 S 
BRANCH  13  14
ATOM     14  C   UNL     1       3.558   2.612  17.723  0.00  0.00    +0.000 C 
BRANCH  14  15
ATOM     15  C   UNL     1       4.303   3.678  16.921  0.00  0.00    +0.000 C 
ATOM     16  O   UNL     1       3.816   4.751  16.568  0.00  0.00    +0.000 OA
ATOM     17  N   UNL     1       5.615   3.347  16.630  0.00  0.00    +0.000 N 
ATOM     18  H   UNL     1       5.924   2.387  16.712  0.00  0.00    +0.000 HD
BRANCH  17  19
ATOM     19  C   UNL     1       6.481   4.250  15.880  0.00  0.00    +0.000 C 
BRANCH  19  20
ATOM     20  C   UNL     1       7.422   5.077  16.762  0.00  0.00    +0.000 C 
ATOM     21  C   UNL     1       7.126   5.037  18.251  0.00  0.00    +0.000 C 
ATOM     22  C   UNL     1       7.812   6.284  18.739  0.00  0.00    +0.000 C 
ATOM     23  C   UNL     1       7.619   7.247  17.583  0.00  0.00    +0.000 C 
ATOM     24  O   UNL     1       7.381   6.471  16.397  0.00  0.00    +0.000 OA
ENDBRANCH  19  20
ENDBRANCH  17  19
ENDBRANCH  14  15
ENDBRANCH  13  14
ENDBRANCH   5  13
TORSDOF 6
ENDMDL
MODEL 7
REMARK VINA RESULT:      -7.0      2.635      6.955
REMARK  Name = 
REMARK  7 active torsions:
REMARK  status: ('A' for Active; 'I' for Inactive)
REMARK    1  A    between atoms: C_1  and  C_2
REMARK    2  A    between atoms: C_6  and  N_7
REMARK    3  A    between atoms: C_11  and  S_12
REMARK    4  A    between atoms: S_12  and  C_13
REMARK    5  A    between atoms: C_13  and  C_14
REMARK    6  A    between atoms: N_16  and  C_17
REMARK    7  A    between atoms: C_17  and  C_18
REMARK                            x       y       z     vdW  Elec       q    Type
REMARK                         _______ _______ _______ _____ _____    ______ ____
ROOT
ATOM      1  N   UNL     1       3.134   4.957  18.377  0.00  0.00    +0.000 N 
ATOM      2  N   UNL     1       2.371   3.983  17.815  0.00  0.00    +0.000 NA
ATOM      3  N   UNL     1       3.214   3.057  17.381  0.00  0.00    +0.000 NA
ATOM      4  N   UNL     1       4.503   3.360  17.729  0.00  0.00    +0.000 NA
ATOM      5  C   UNL     1       4.452   4.505  18.364  0.00  0.00    +0.000 A 
ENDROOT
BRANCH   1  11
ATOM      6  C   UNL     1       2.060   9.756  17.811  0.00  0.00    +0.000 C 
ATOM      7  C   UNL     1       2.019   8.511  18.648  0.00  0.00    +0.000 A 
ATOM      8  C   UNL     1       1.592   8.538  19.977  0.00  0.00    +0.000 A 
ATOM      9  C   UNL     1       1.586   7.370  20.739  0.00  0.00    +0.000 A 
ATOM     10  C   UNL     1       2.045   6.169  20.190  0.00  0.00    +0.000 A 
ATOM     11  C   UNL     1       2.539   6.145  18.877  0.00  0.00    +0.000 A 
ATOM     12  C   UNL     1       2.465   7.302  18.096  0.00  0.00    +0.000 A 
ENDBRANCH   1  11
BRANCH   5  13
ATOM     13  S   UNL     1       5.767   5.218  19.239  0.00  0.00    +0.000 S 
BRANCH  13  14
ATOM     14  C   UNL     1       7.170   4.991  18.107  0.00  0.00    +0.000 C 
BRANCH  14  15
ATOM     15  C   UNL     1       6.842   5.536  16.717  0.00  0.00    +0.000 C 
ATOM     16  O   UNL     1       6.760   6.731  16.440  0.00  0.00    +0.000 OA
ATOM     17  N   UNL     1       6.660   4.555  15.758  0.00  0.00    +0.000 N 
ATOM     18  H   UNL     1       6.494   3.597  16.041  0.00  0.00    +0.000 HD
BRANCH  17  19
ATOM     19  C   UNL     1       6.350   4.890  14.373  0.00  0.00    +0.000 C 
BRANCH  19  20
ATOM     20  C   UNL     1       5.961   3.679  13.517  0.00  0.00    +0.000 C 
ATOM     21  C   UNL     1       6.850   3.416  12.315  0.00  0.00    +0.000 C 
ATOM     22  C   UNL     1       5.954   2.579  11.442  0.00  0.00    +0.000 C 
ATOM     23  C   UNL     1       4.581   3.161  11.714  0.00  0.00    +0.000 C 
ATOM     24  O   UNL     1       4.629   3.827  12.988  0.00  0.00    +0.000 OA
ENDBRANCH  19  20
ENDBRANCH  17  19
ENDBRANCH  14  15
ENDBRANCH  13  14
ENDBRANCH   5  13
TORSDOF 6
ENDMDL
MODEL 8
REMARK VINA RESULT:      -7.0      4.286      6.183
REMARK  Name = 
REMARK  7 active torsions:
REMARK  status: ('A' for Active; 'I' for Inactive)
REMARK    1  A    between atoms: C_1  and  C_2
REMARK    2  A    between atoms: C_6  and  N_7
REMARK    3  A    between atoms: C_11  and  S_12
REMARK    4  A    between atoms: S_12  and  C_13
REMARK    5  A    between atoms: C_13  and  C_14
REMARK    6  A    between atoms: N_16  and  C_17
REMARK    7  A    between atoms: C_17  and  C_18
REMARK                            x       y       z     vdW  Elec       q    Type
REMARK                         _______ _______ _______ _____ _____    ______ ____
ROOT
ATOM      1  N   UNL     1       3.165   3.906  18.529  0.00  0.00    +0.000 N 
ATOM      2  N   UNL     1       2.504   2.765  18.198  0.00  0.00    +0.000 NA
ATOM      3  N   UNL     1       1.355   2.799  18.858  0.00  0.00    +0.000 NA
ATOM      4  N   UNL     1       1.212   3.977  19.541  0.00  0.00    +0.000 NA
ATOM      5  C   UNL     1       2.302   4.667  19.315  0.00  0.00    +0.000 A 
ENDROOT
BRANCH   1  11
ATOM      6  C   UNL     1       7.712   5.720  19.260  0.00  0.00    +0.000 C 
ATOM      7  C   UNL     1       6.714   5.056  18.358  0.00  0.00    +0.000 A 
ATOM      8  C   UNL     1       6.977   4.852  17.002  0.00  0.00    +0.000 A 
ATOM      9  C   UNL     1       6.023   4.251  16.182  0.00  0.00    +0.000 A 
ATOM     10  C   UNL     1       4.777   3.886  16.701  0.00  0.00    +0.000 A 
ATOM     11  C   UNL     1       4.478   4.148  18.046  0.00  0.00    +0.000 A 
ATOM     12  C   UNL     1       5.470   4.675  18.880  0.00  0.00    +0.000 A 
ENDBRANCH   1  11
BRANCH   5  13
ATOM     13  S   UNL     1       2.531   6.333  19.734  0.00  0.00    +0.000 S 
BRANCH  13  14
ATOM     14  C   UNL     1       2.509   7.158  18.115  0.00  0.00    +0.000 C 
BRANCH  14  15
ATOM     15  C   UNL     1       1.982   8.588  18.240  0.00  0.00    +0.000 C 
ATOM     16  O   UNL     1       2.074   9.442  17.361  0.00  0.00    +0.000 OA
ATOM     17  N   UNL     1       1.353   8.851  19.445  0.00  0.00    +0.000 N 
ATOM     18  H   UNL     1       1.493   8.231  20.233  0.00  0.00    +0.000 HD
BRANCH  17  19
ATOM     19  C   UNL     1       0.780  10.160  19.736  0.00  0.00    +0.000 C 
BRANCH  19  20
ATOM     20  C   UNL     1      -0.228  10.149  20.890  0.00  0.00    +0.000 C 
ATOM     21  C   UNL     1      -0.296  11.425  21.710  0.00  0.00    +0.000 C 
ATOM     22  C   UNL     1      -0.914  10.937  22.994  0.00  0.00    +0.000 C 
ATOM     23  C   UNL     1      -0.335   9.543  23.136  0.00  0.00    +0.000 C 
ATOM     24  O   UNL     1       0.075   9.100  21.831  0.00  0.00    +0.000 OA
ENDBRANCH  19  20
ENDBRANCH  17  19
ENDBRANCH  14  15
ENDBRANCH  13  14
ENDBRANCH   5  13
TORSDOF 6
ENDMDL
MODEL 9
REMARK VINA RESULT:      -7.0      2.943      7.344
REMARK  Name = 
REMARK  7 active torsions:
REMARK  status: ('A' for Active; 'I' for Inactive)
REMARK    1  A    between atoms: C_1  and  C_2
REMARK    2  A    between atoms: C_6  and  N_7
REMARK    3  A    between atoms: C_11  and  S_12
REMARK    4  A    between atoms: S_12  and  C_13
REMARK    5  A    between atoms: C_13  and  C_14
REMARK    6  A    between atoms: N_16  and  C_17
REMARK    7  A    between atoms: C_17  and  C_18
REMARK                            x       y       z     vdW  Elec       q    Type
REMARK                         _______ _______ _______ _____ _____    ______ ____
ROOT
ATOM      1  N   UNL     1       1.932   4.346  19.797  0.00  0.00    +0.000 N 
ATOM      2  N   UNL     1       1.179   3.852  20.815  0.00  0.00    +0.000 NA
ATOM      3  N   UNL     1       1.227   2.532  20.703  0.00  0.00    +0.000 NA
ATOM      4  N   UNL     1       2.067   2.152  19.691  0.00  0.00    +0.000 NA
ATOM      5  C   UNL     1       2.523   3.258  19.157  0.00  0.00    +0.000 A 
ENDROOT
BRANCH   1  11
ATOM      6  C   UNL     1       1.196   8.970  21.402  0.00  0.00    +0.000 C 
ATOM      7  C   UNL     1       1.655   8.033  20.324  0.00  0.00    +0.000 A 
ATOM      8  C   UNL     1       1.987   8.493  19.048  0.00  0.00    +0.000 A 
ATOM      9  C   UNL     1       2.390   7.597  18.058  0.00  0.00    +0.000 A 
ATOM     10  C   UNL     1       2.425   6.225  18.323  0.00  0.00    +0.000 A 
ATOM     11  C   UNL     1       2.030   5.746  19.581  0.00  0.00    +0.000 A 
ATOM     12  C   UNL     1       1.706   6.658  20.591  0.00  0.00    +0.000 A 
ENDBRANCH   1  11
BRANCH   5  13
ATOM     13  S   UNL     1       3.815   3.350  18.007  0.00  0.00    +0.000 S 
BRANCH  13  14
ATOM     14  C   UNL     1       5.214   3.914  19.020  0.00  0.00    +0.000 C 
BRANCH  14  15
ATOM     15  C   UNL     1       6.318   4.506  18.145  0.00  0.00    +0.000 C 
ATOM     16  O   UNL     1       7.490   4.634  18.494  0.00  0.00    +0.000 OA
ATOM     17  N   UNL     1       5.892   4.879  16.882  0.00  0.00    +0.000 N 
ATOM     18  H   UNL     1       4.903   4.992  16.694  0.00  0.00    +0.000 HD
BRANCH  17  19
ATOM     19  C   UNL     1       6.811   5.455  15.906  0.00  0.00    +0.000 C 
BRANCH  19  20
ATOM     20  C   UNL     1       6.431   5.159  14.451  0.00  0.00    +0.000 C 
ATOM     21  C   UNL     1       5.961   3.741  14.174  0.00  0.00    +0.000 C 
ATOM     22  C   UNL     1       6.184   3.624  12.690  0.00  0.00    +0.000 C 
ATOM     23  C   UNL     1       7.435   4.454  12.472  0.00  0.00    +0.000 C 
ATOM     24  O   UNL     1       7.551   5.375  13.570  0.00  0.00    +0.000 OA
ENDBRANCH  19  20
ENDBRANCH  17  19
ENDBRANCH  14  15
ENDBRANCH  13  14
ENDBRANCH   5  13
TORSDOF 6
ENDMDL
