MODEL 1
REMARK VINA RESULT:      -7.3      0.000      0.000
REMARK  Name = 
REMARK  3 active torsions:
REMARK  status: ('A' for Active; 'I' for Inactive)
REMARK    1  A    between atoms: N_3  and  C_4
REMARK    2  A    between atoms: C_4  and  C_5
REMARK    3  A    between atoms: C_5  and  O_6
REMARK                            x       y       z     vdW  Elec       q    Type
REMARK                         _______ _______ _______ _____ _____    ______ ____
ROOT
ATOM      1  O   UNL     1       8.190   4.398  16.962  0.00  0.00    +0.000 OA
ATOM      2  C   UNL     1       6.972   4.283  17.034  0.00  0.00    +0.000 C 
ATOM      3  N   UNL     1       6.149   4.129  15.945  0.00  0.00    +0.000 N 
ATOM      4  N   UNL     1       6.325   4.324  18.250  0.00  0.00    +0.000 N 
ATOM      5  C   UNL     1       5.023   4.082  18.602  0.00  0.00    +0.000 A 
ATOM      6  N   UNL     1       4.590   4.606  19.710  0.00  0.00    +0.000 NA
ATOM      7  C   UNL     1       3.262   4.412  19.881  0.00  0.00    +0.000 A 
ATOM      8  N   UNL     1       2.494   4.962  20.863  0.00  0.00    +0.000 N 
ATOM      9  C   UNL     1       1.198   4.585  20.618  0.00  0.00    +0.000 A 
ATOM     10  N   UNL     1       1.098   3.810  19.555  0.00  0.00    +0.000 NA
ATOM     11  C   UNL     1       2.383   3.709  19.090  0.00  0.00    +0.000 A 
ATOM     12  C   UNL     1       2.915   3.048  17.918  0.00  0.00    +0.000 A 
ATOM     13  O   UNL     1       2.292   2.324  17.149  0.00  0.00    +0.000 OA
ATOM     14  N   UNL     1       4.260   3.332  17.731  0.00  0.00    +0.000 N 
ATOM     15  H   UNL     1       5.257   4.597  16.065  0.00  0.00    +0.000 HD
ATOM     16  H   UNL     1       6.905   4.676  19.000  0.00  0.00    +0.000 HD
ATOM     17  H   UNL     1       2.820   5.566  21.601  0.00  0.00    +0.000 HD
ATOM     18  H   UNL     1       4.704   2.835  16.972  0.00  0.00    +0.000 HD
ENDROOT
BRANCH   3  19
ATOM     19  C   UNL     1       6.667   4.225  14.587  0.00  0.00    +0.000 C 
BRANCH  19  20
ATOM     20  C   UNL     1       5.676   3.782  13.510  0.00  0.00    +0.000 C 
BRANCH  20  21
ATOM     21  O   UNL     1       6.330   2.947  12.558  0.00  0.00    +0.000 OA
ATOM     22  H   UNL     1       6.903   2.353  13.074  0.00  0.00    +0.000 HD
ENDBRANCH  20  21
ENDBRANCH  19  20
ENDBRANCH   3  19
TORSDOF 3
ENDMDL
MODEL 2
REMARK VINA RESULT:      -7.1      2.536      3.505
REMARK  Name = 
REMARK  3 active torsions:
REMARK  status: ('A' for Active; 'I' for Inactive)
REMARK    1  A    between atoms: N_3  and  C_4
REMARK    2  A    between atoms: C_4  and  C_5
REMARK    3  A    between atoms: C_5  and  O_6
REMARK                            x       y       z     vdW  Elec       q    Type
REMARK                         _______ _______ _______ _____ _____    ______ ____
ROOT
ATOM      1  O   UNL     1       8.085   4.378  17.293  0.00  0.00    +0.000 OA
ATOM      2  C   UNL     1       7.110   4.722  17.950  0.00  0.00    +0.000 C 
ATOM      3  N   UNL     1       6.963   5.967  18.512  0.00  0.00    +0.000 N 
ATOM      4  N   UNL     1       6.074   3.849  18.196  0.00  0.00    +0.000 N 
ATOM      5  C   UNL     1       4.840   4.029  18.765  0.00  0.00    +0.000 A 
ATOM      6  N   UNL     1       4.247   2.985  19.265  0.00  0.00    +0.000 NA
ATOM      7  C   UNL     1       3.107   3.310  19.915  0.00  0.00    +0.000 A 
ATOM      8  N   UNL     1       2.344   2.463  20.663  0.00  0.00    +0.000 N 
ATOM      9  C   UNL     1       1.337   3.212  21.216  0.00  0.00    +0.000 A 
ATOM     10  N   UNL     1       1.398   4.477  20.848  0.00  0.00    +0.000 NA
ATOM     11  C   UNL     1       2.505   4.540  20.043  0.00  0.00    +0.000 A 
ATOM     12  C   UNL     1       3.133   5.666  19.386  0.00  0.00    +0.000 A 
ATOM     13  O   UNL     1       2.698   6.811  19.336  0.00  0.00    +0.000 OA
ATOM     14  N   UNL     1       4.339   5.314  18.797  0.00  0.00    +0.000 N 
ATOM     15  H   UNL     1       6.487   5.934  19.407  0.00  0.00    +0.000 HD
ATOM     16  H   UNL     1       6.305   2.885  17.991  0.00  0.00    +0.000 HD
ATOM     17  H   UNL     1       2.520   1.481  20.810  0.00  0.00    +0.000 HD
ATOM     18  H   UNL     1       4.785   6.042  18.258  0.00  0.00    +0.000 HD
ENDROOT
BRANCH   3  19
ATOM     19  C   UNL     1       8.041   6.946  18.474  0.00  0.00    +0.000 C 
BRANCH  19  20
ATOM     20  C   UNL     1       7.734   8.179  17.624  0.00  0.00    +0.000 C 
BRANCH  20  21
ATOM     21  O   UNL     1       8.427   9.312  18.139  0.00  0.00    +0.000 OA
ATOM     22  H   UNL     1       8.776   9.786  17.364  0.00  0.00    +0.000 HD
ENDBRANCH  20  21
ENDBRANCH  19  20
ENDBRANCH   3  19
TORSDOF 3
ENDMDL
MODEL 3
REMARK VINA RESULT:      -7.1      2.332      3.041
REMARK  Name = 
REMARK  3 active torsions:
REMARK  status: ('A' for Active; 'I' for Inactive)
REMARK    1  A    between atoms: N_3  and  C_4
REMARK    2  A    between atoms: C_4  and  C_5
REMARK    3  A    between atoms: C_5  and  O_6
REMARK                            x       y       z     vdW  Elec       q    Type
REMARK                         _______ _______ _______ _____ _____    ______ ____
ROOT
ATOM      1  O   UNL     1       8.130   4.441  17.312  0.00  0.00    +0.000 OA
ATOM      2  C   UNL     1       7.006   4.719  17.709  0.00  0.00    +0.000 C 
ATOM      3  N   UNL     1       6.410   5.945  17.533  0.00  0.00    +0.000 N 
ATOM      4  N   UNL     1       6.247   3.800  18.399  0.00  0.00    +0.000 N 
ATOM      5  C   UNL     1       4.940   3.816  18.812  0.00  0.00    +0.000 A 
ATOM      6  N   UNL     1       4.609   3.037  19.800  0.00  0.00    +0.000 NA
ATOM      7  C   UNL     1       3.335   3.241  20.204  0.00  0.00    +0.000 A 
ATOM      8  N   UNL     1       2.746   2.687  21.301  0.00  0.00    +0.000 N 
ATOM      9  C   UNL     1       1.488   3.225  21.396  0.00  0.00    +0.000 A 
ATOM     10  N   UNL     1       1.232   4.068  20.415  0.00  0.00    +0.000 NA
ATOM     11  C   UNL     1       2.385   4.085  19.676  0.00  0.00    +0.000 A 
ATOM     12  C   UNL     1       2.750   4.862  18.511  0.00  0.00    +0.000 A 
ATOM     13  O   UNL     1       2.011   5.604  17.874  0.00  0.00    +0.000 OA
ATOM     14  N   UNL     1       4.085   4.689  18.173  0.00  0.00    +0.000 N 
ATOM     15  H   UNL     1       5.828   6.209  18.319  0.00  0.00    +0.000 HD
ATOM     16  H   UNL     1       6.782   3.007  18.728  0.00  0.00    +0.000 HD
ATOM     17  H   UNL     1       3.178   2.038  21.940  0.00  0.00    +0.000 HD
ATOM     18  H   UNL     1       4.376   5.147  17.321  0.00  0.00    +0.000 HD
ENDROOT
BRANCH   3  19
ATOM     19  C   UNL     1       7.143   7.066  16.962  0.00  0.00    +0.000 C 
BRANCH  19  20
ATOM     20  C   UNL     1       7.804   7.973  18.000  0.00  0.00    +0.000 C 
BRANCH  20  21
ATOM     21  O   UNL     1       8.526   7.188  18.945  0.00  0.00    +0.000 OA
ATOM     22  H   UNL     1       8.485   7.677  19.786  0.00  0.00    +0.000 HD
ENDBRANCH  20  21
ENDBRANCH  19  20
ENDBRANCH   3  19
TORSDOF 3
ENDMDL
MODEL 4
REMARK VINA RESULT:      -7.1      2.291      3.504
REMARK  Name = 
REMARK  3 active torsions:
REMARK  status: ('A' for Active; 'I' for Inactive)
REMARK    1  A    between atoms: N_3  and  C_4
REMARK    2  A    between atoms: C_4  and  C_5
REMARK    3  A    between atoms: C_5  and  O_6
REMARK                            x       y       z     vdW  Elec       q    Type
REMARK                         _______ _______ _______ _____ _____    ______ ____
ROOT
ATOM      1  O   UNL     1       7.989   4.469  16.478  0.00  0.00    +0.000 OA
ATOM      2  C   UNL     1       6.925   4.631  17.062  0.00  0.00    +0.000 C 
ATOM      3  N   UNL     1       6.670   5.676  17.917  0.00  0.00    +0.000 N 
ATOM      4  N   UNL     1       5.888   3.737  16.913  0.00  0.00    +0.000 N 
ATOM      5  C   UNL     1       4.584   3.770  17.332  0.00  0.00    +0.000 A 
ATOM      6  N   UNL     1       3.956   2.636  17.440  0.00  0.00    +0.000 NA
ATOM      7  C   UNL     1       2.729   2.784  17.989  0.00  0.00    +0.000 A 
ATOM      8  N   UNL     1       1.894   1.775  18.363  0.00  0.00    +0.000 N 
ATOM      9  C   UNL     1       0.801   2.355  18.955  0.00  0.00    +0.000 A 
ATOM     10  N   UNL     1       0.879   3.671  18.960  0.00  0.00    +0.000 NA
ATOM     11  C   UNL     1       2.084   3.939  18.365  0.00  0.00    +0.000 A 
ATOM     12  C   UNL     1       2.765   5.195  18.135  0.00  0.00    +0.000 A 
ATOM     13  O   UNL     1       2.312   6.315  18.341  0.00  0.00    +0.000 OA
ATOM     14  N   UNL     1       4.050   5.002  17.646  0.00  0.00    +0.000 N 
ATOM     15  H   UNL     1       6.077   5.405  18.694  0.00  0.00    +0.000 HD
ATOM     16  H   UNL     1       6.171   2.865  16.486  0.00  0.00    +0.000 HD
ATOM     17  H   UNL     1       2.074   0.787  18.259  0.00  0.00    +0.000 HD
ATOM     18  H   UNL     1       4.546   5.845  17.393  0.00  0.00    +0.000 HD
ENDROOT
BRANCH   3  19
ATOM     19  C   UNL     1       7.717   6.614  18.299  0.00  0.00    +0.000 C 
BRANCH  19  20
ATOM     20  C   UNL     1       7.658   7.949  17.556  0.00  0.00    +0.000 C 
BRANCH  20  21
ATOM     21  O   UNL     1       8.406   8.935  18.264  0.00  0.00    +0.000 OA
ATOM     22  H   UNL     1       9.319   8.600  18.302  0.00  0.00    +0.000 HD
ENDBRANCH  20  21
ENDBRANCH  19  20
ENDBRANCH   3  19
TORSDOF 3
ENDMDL
MODEL 5
REMARK VINA RESULT:      -7.0      2.754      6.185
REMARK  Name = 
REMARK  3 active torsions:
REMARK  status: ('A' for Active; 'I' for Inactive)
REMARK    1  A    between atoms: N_3  and  C_4
REMARK    2  A    between atoms: C_4  and  C_5
REMARK    3  A    between atoms: C_5  and  O_6
REMARK                            x       y       z     vdW  Elec       q    Type
REMARK                         _______ _______ _______ _____ _____    ______ ____
ROOT
ATOM      1  O   UNL     1       3.270   1.915  18.054  0.00  0.00    +0.000 OA
ATOM      2  C   UNL     1       4.005   2.788  18.498  0.00  0.00    +0.000 C 
ATOM      3  N   UNL     1       4.151   3.062  19.836  0.00  0.00    +0.000 N 
ATOM      4  N   UNL     1       4.740   3.595  17.658  0.00  0.00    +0.000 N 
ATOM      5  C   UNL     1       5.718   4.523  17.904  0.00  0.00    +0.000 A 
ATOM      6  N   UNL     1       5.929   5.433  16.999  0.00  0.00    +0.000 NA
ATOM      7  C   UNL     1       6.816   6.366  17.412  0.00  0.00    +0.000 A 
ATOM      8  N   UNL     1       7.131   7.516  16.753  0.00  0.00    +0.000 N 
ATOM      9  C   UNL     1       7.996   8.215  17.555  0.00  0.00    +0.000 A 
ATOM     10  N   UNL     1       8.269   7.570  18.672  0.00  0.00    +0.000 NA
ATOM     11  C   UNL     1       7.528   6.421  18.588  0.00  0.00    +0.000 A 
ATOM     12  C   UNL     1       7.352   5.338  19.531  0.00  0.00    +0.000 A 
ATOM     13  O   UNL     1       7.956   5.191  20.587  0.00  0.00    +0.000 OA
ATOM     14  N   UNL     1       6.378   4.442  19.112  0.00  0.00    +0.000 N 
ATOM     15  H   UNL     1       4.281   4.051  20.018  0.00  0.00    +0.000 HD
ATOM     16  H   UNL     1       4.440   3.546  16.693  0.00  0.00    +0.000 HD
ATOM     17  H   UNL     1       6.759   7.810  15.862  0.00  0.00    +0.000 HD
ATOM     18  H   UNL     1       6.267   3.624  19.694  0.00  0.00    +0.000 HD
ENDROOT
BRANCH   3  19
ATOM     19  C   UNL     1       3.323   2.402  20.838  0.00  0.00    +0.000 C 
BRANCH  19  20
ATOM     20  C   UNL     1       2.110   3.220  21.281  0.00  0.00    +0.000 C 
BRANCH  20  21
ATOM     21  O   UNL     1       1.438   2.557  22.349  0.00  0.00    +0.000 OA
ATOM     22  H   UNL     1       1.767   2.970  23.168  0.00  0.00    +0.000 HD
ENDBRANCH  20  21
ENDBRANCH  19  20
ENDBRANCH   3  19
TORSDOF 3
ENDMDL
MODEL 6
REMARK VINA RESULT:      -7.0      1.037      1.037
REMARK  Name = 
REMARK  3 active torsions:
REMARK  status: ('A' for Active; 'I' for Inactive)
REMARK    1  A    between atoms: N_3  and  C_4
REMARK    2  A    between atoms: C_4  and  C_5
REMARK    3  A    between atoms: C_5  and  O_6
REMARK                            x       y       z     vdW  Elec       q    Type
REMARK                         _______ _______ _______ _____ _____    ______ ____
ROOT
ATOM      1  O   UNL     1       7.595   6.095  16.976  0.00  0.00    +0.000 OA
ATOM      2  C   UNL     1       6.630   5.363  17.160  0.00  0.00    +0.000 C 
ATOM      3  N   UNL     1       6.187   4.434  16.250  0.00  0.00    +0.000 N 
ATOM      4  N   UNL     1       5.888   5.440  18.318  0.00  0.00    +0.000 N 
ATOM      5  C   UNL     1       4.879   4.656  18.812  0.00  0.00    +0.000 A 
ATOM      6  N   UNL     1       4.075   5.186  19.686  0.00  0.00    +0.000 NA
ATOM      7  C   UNL     1       3.045   4.365  19.995  0.00  0.00    +0.000 A 
ATOM      8  N   UNL     1       1.967   4.690  20.761  0.00  0.00    +0.000 N 
ATOM      9  C   UNL     1       1.123   3.608  20.747  0.00  0.00    +0.000 A 
ATOM     10  N   UNL     1       1.610   2.608  20.038  0.00  0.00    +0.000 NA
ATOM     11  C   UNL     1       2.804   3.082  19.562  0.00  0.00    +0.000 A 
ATOM     12  C   UNL     1       3.772   2.479  18.673  0.00  0.00    +0.000 A 
ATOM     13  O   UNL     1       3.752   1.328  18.251  0.00  0.00    +0.000 OA
ATOM     14  N   UNL     1       4.771   3.374  18.314  0.00  0.00    +0.000 N 
ATOM     15  H   UNL     1       5.177   4.343  16.249  0.00  0.00    +0.000 HD
ATOM     16  H   UNL     1       6.073   6.276  18.856  0.00  0.00    +0.000 HD
ATOM     17  H   UNL     1       1.807   5.577  21.215  0.00  0.00    +0.000 HD
ATOM     18  H   UNL     1       5.518   2.985  17.756  0.00  0.00    +0.000 HD
ENDROOT
BRANCH   3  19
ATOM     19  C   UNL     1       6.770   4.343  14.917  0.00  0.00    +0.000 C 
BRANCH  19  20
ATOM     20  C   UNL     1       5.766   3.987  13.821  0.00  0.00    +0.000 C 
BRANCH  20  21
ATOM     21  O   UNL     1       6.368   3.108  12.874  0.00  0.00    +0.000 OA
ATOM     22  H   UNL     1       6.360   3.585  12.026  0.00  0.00    +0.000 HD
ENDBRANCH  20  21
ENDBRANCH  19  20
ENDBRANCH   3  19
TORSDOF 3
ENDMDL
MODEL 7
REMARK VINA RESULT:      -6.9      1.210      1.260
REMARK  Name = 
REMARK  3 active torsions:
REMARK  status: ('A' for Active; 'I' for Inactive)
REMARK    1  A    between atoms: N_3  and  C_4
REMARK    2  A    between atoms: C_4  and  C_5
REMARK    3  A    between atoms: C_5  and  O_6
REMARK                            x       y       z     vdW  Elec       q    Type
REMARK                         _______ _______ _______ _____ _____    ______ ____
ROOT
ATOM      1  O   UNL     1       7.839   4.642  17.264  0.00  0.00    +0.000 OA
ATOM      2  C   UNL     1       6.645   4.422  17.418  0.00  0.00    +0.000 C 
ATOM      3  N   UNL     1       5.682   4.722  16.485  0.00  0.00    +0.000 N 
ATOM      4  N   UNL     1       6.168   3.860  18.582  0.00  0.00    +0.000 N 
ATOM      5  C   UNL     1       4.928   3.393  18.933  0.00  0.00    +0.000 A 
ATOM      6  N   UNL     1       4.646   3.324  20.200  0.00  0.00    +0.000 NA
ATOM      7  C   UNL     1       3.355   2.982  20.417  0.00  0.00    +0.000 A 
ATOM      8  N   UNL     1       2.723   2.970  21.624  0.00  0.00    +0.000 N 
ATOM      9  C   UNL     1       1.410   2.655  21.386  0.00  0.00    +0.000 A 
ATOM     10  N   UNL     1       1.173   2.444  20.107  0.00  0.00    +0.000 NA
ATOM     11  C   UNL     1       2.383   2.655  19.500  0.00  0.00    +0.000 A 
ATOM     12  C   UNL     1       2.755   2.638  18.103  0.00  0.00    +0.000 A 
ATOM     13  O   UNL     1       2.040   2.302  17.165  0.00  0.00    +0.000 OA
ATOM     14  N   UNL     1       4.060   3.070  17.911  0.00  0.00    +0.000 N 
ATOM     15  H   UNL     1       4.811   5.021  16.909  0.00  0.00    +0.000 HD
ATOM     16  H   UNL     1       6.842   3.872  19.336  0.00  0.00    +0.000 HD
ATOM     17  H   UNL     1       3.142   3.193  22.514  0.00  0.00    +0.000 HD
ATOM     18  H   UNL     1       4.401   3.006  16.962  0.00  0.00    +0.000 HD
ENDROOT
BRANCH   3  19
ATOM     19  C   UNL     1       6.009   5.461  15.272  0.00  0.00    +0.000 C 
BRANCH  19  20
ATOM     20  C   UNL     1       6.840   4.667  14.264  0.00  0.00    +0.000 C 
BRANCH  20  21
ATOM     21  O   UNL     1       6.256   3.384  14.053  0.00  0.00    +0.000 OA
ATOM     22  H   UNL     1       6.242   3.254  13.088  0.00  0.00    +0.000 HD
ENDBRANCH  20  21
ENDBRANCH  19  20
ENDBRANCH   3  19
TORSDOF 3
ENDMDL
MODEL 8
REMARK VINA RESULT:      -6.8      1.973      2.076
REMARK  Name = 
REMARK  3 active torsions:
REMARK  status: ('A' for Active; 'I' for Inactive)
REMARK    1  A    between atoms: N_3  and  C_4
REMARK    2  A    between atoms: C_4  and  C_5
REMARK    3  A    between atoms: C_5  and  O_6
REMARK                            x       y       z     vdW  Elec       q    Type
REMARK                         _______ _______ _______ _____ _____    ______ ____
ROOT
ATOM      1  O   UNL     1       5.502   6.712  15.577  0.00  0.00    +0.000 OA
ATOM      2  C   UNL     1       5.177   5.785  16.308  0.00  0.00    +0.000 C 
ATOM      3  N   UNL     1       5.676   4.510  16.199  0.00  0.00    +0.000 N 
ATOM      4  N   UNL     1       4.245   5.960  17.307  0.00  0.00    +0.000 N 
ATOM      5  C   UNL     1       3.828   5.141  18.324  0.00  0.00    +0.000 A 
ATOM      6  N   UNL     1       2.658   5.369  18.842  0.00  0.00    +0.000 NA
ATOM      7  C   UNL     1       2.302   4.419  19.736  0.00  0.00    +0.000 A 
ATOM      8  N   UNL     1       1.084   4.300  20.334  0.00  0.00    +0.000 N 
ATOM      9  C   UNL     1       1.118   3.157  21.092  0.00  0.00    +0.000 A 
ATOM     10  N   UNL     1       2.290   2.556  21.031  0.00  0.00    +0.000 NA
ATOM     11  C   UNL     1       3.026   3.336  20.180  0.00  0.00    +0.000 A 
ATOM     12  C   UNL     1       4.367   3.168  19.664  0.00  0.00    +0.000 A 
ATOM     13  O   UNL     1       5.171   2.307  20.003  0.00  0.00    +0.000 OA
ATOM     14  N   UNL     1       4.669   4.112  18.693  0.00  0.00    +0.000 N 
ATOM     15  H   UNL     1       4.983   3.803  16.418  0.00  0.00    +0.000 HD
ATOM     16  H   UNL     1       3.719   6.819  17.217  0.00  0.00    +0.000 HD
ATOM     17  H   UNL     1       0.297   4.918  20.204  0.00  0.00    +0.000 HD
ATOM     18  H   UNL     1       5.620   4.091  18.352  0.00  0.00    +0.000 HD
ENDROOT
BRANCH   3  19
ATOM     19  C   UNL     1       6.549   4.132  15.096  0.00  0.00    +0.000 C 
BRANCH  19  20
ATOM     20  C   UNL     1       5.838   4.019  13.748  0.00  0.00    +0.000 C 
BRANCH  20  21
ATOM     21  O   UNL     1       6.415   2.968  12.977  0.00  0.00    +0.000 OA
ATOM     22  H   UNL     1       6.151   2.140  13.417  0.00  0.00    +0.000 HD
ENDBRANCH  20  21
ENDBRANCH  19  20
ENDBRANCH   3  19
TORSDOF 3
ENDMDL
MODEL 9
REMARK VINA RESULT:      -6.7      2.155      3.382
REMARK  Name = 
REMARK  3 active torsions:
REMARK  status: ('A' for Active; 'I' for Inactive)
REMARK    1  A    between atoms: N_3  and  C_4
REMARK    2  A    between atoms: C_4  and  C_5
REMARK    3  A    between atoms: C_5  and  O_6
REMARK                            x       y       z     vdW  Elec       q    Type
REMARK                         _______ _______ _______ _____ _____    ______ ____
ROOT
ATOM      1  O   UNL     1       7.715   4.645  15.655  0.00  0.00    +0.000 OA
ATOM      2  C   UNL     1       6.733   4.809  16.369  0.00  0.00    +0.000 C 
ATOM      3  N   UNL     1       6.528   5.921  17.150  0.00  0.00    +0.000 N 
ATOM      4  N   UNL     1       5.748   3.850  16.456  0.00  0.00    +0.000 N 
ATOM      5  C   UNL     1       4.515   3.856  17.054  0.00  0.00    +0.000 A 
ATOM      6  N   UNL     1       3.985   2.708  17.358  0.00  0.00    +0.000 NA
ATOM      7  C   UNL     1       2.839   2.846  18.062  0.00  0.00    +0.000 A 
ATOM      8  N   UNL     1       2.133   1.837  18.646  0.00  0.00    +0.000 N 
ATOM      9  C   UNL     1       1.097   2.416  19.332  0.00  0.00    +0.000 A 
ATOM     10  N   UNL     1       1.085   3.728  19.201  0.00  0.00    +0.000 NA
ATOM     11  C   UNL     1       2.176   3.998  18.416  0.00  0.00    +0.000 A 
ATOM     12  C   UNL     1       2.733   5.257  17.973  0.00  0.00    +0.000 A 
ATOM     13  O   UNL     1       2.238   6.367  18.136  0.00  0.00    +0.000 OA
ATOM     14  N   UNL     1       3.947   5.084  17.324  0.00  0.00    +0.000 N 
ATOM     15  H   UNL     1       6.068   5.700  18.026  0.00  0.00    +0.000 HD
ATOM     16  H   UNL     1       6.027   2.955  16.077  0.00  0.00    +0.000 HD
ATOM     17  H   UNL     1       2.363   0.856  18.610  0.00  0.00    +0.000 HD
ATOM     18  H   UNL     1       4.346   5.922  16.924  0.00  0.00    +0.000 HD
ENDROOT
BRANCH   3  19
ATOM     19  C   UNL     1       7.553   6.948  17.286  0.00  0.00    +0.000 C 
BRANCH  19  20
ATOM     20  C   UNL     1       8.070   7.127  18.713  0.00  0.00    +0.000 C 
BRANCH  20  21
ATOM     21  O   UNL     1       8.224   5.856  19.340  0.00  0.00    +0.000 OA
ATOM     22  H   UNL     1       9.183   5.707  19.408  0.00  0.00    +0.000 HD
ENDBRANCH  20  21
ENDBRANCH  19  20
ENDBRANCH   3  19
TORSDOF 3
ENDMDL
