MODEL 1
REMARK VINA RESULT:      -6.9      0.000      0.000
REMARK  Name = 
REMARK  4 active torsions:
REMARK  status: ('A' for Active; 'I' for Inactive)
REMARK    1  A    between atoms: C_1  and  O_2
REMARK    2  A    between atoms: O_2  and  C_3
REMARK    3  A    between atoms: C_6  and  C_7
REMARK    4  A    between atoms: C_21  and  C_22
REMARK                            x       y       z     vdW  Elec       q    Type
REMARK                         _______ _______ _______ _____ _____    ______ ____
ROOT
ATOM      1  C   UNL     1      -0.571  14.277  21.984  0.00  0.00    +0.000 C 
ATOM      2  O   UNL     1      -0.212  14.576  23.132  0.00  0.00    +0.000 OA
ATOM      3  N   UNL     1      -1.915  14.084  21.583  0.00  0.00    +0.000 N 
ATOM      4  C   UNL     1      -2.815  14.647  22.637  0.00  0.00    +0.000 C 
ATOM      5  C   UNL     1      -3.437  13.439  23.286  0.00  0.00    +0.000 C 
ATOM      6  N   UNL     1      -3.596  12.564  22.151  0.00  0.00    +0.000 N 
ATOM      7  C   UNL     1      -4.829  12.774  21.515  0.00  0.00    +0.000 C 
ATOM      8  O   UNL     1      -5.908  13.049  22.024  0.00  0.00    +0.000 OA
ATOM      9  C   UNL     1      -4.648  12.674  20.081  0.00  0.00    +0.000 A 
ATOM     10  C   UNL     1      -5.686  12.409  19.173  0.00  0.00    +0.000 A 
ATOM     11  C   UNL     1      -5.383  11.772  17.987  0.00  0.00    +0.000 A 
ATOM     12  C   UNL     1      -4.074  11.388  17.761  0.00  0.00    +0.000 A 
ATOM     13  C   UNL     1      -3.058  11.732  18.677  0.00  0.00    +0.000 A 
ATOM     14  C   UNL     1      -3.298  12.479  19.853  0.00  0.00    +0.000 A 
ATOM     15  C   UNL     1      -2.462  12.693  21.179  0.00  0.00    +0.000 C 
ENDROOT
BRANCH  15  16
ATOM     16  C   UNL     1      -1.342  11.632  21.276  0.00  0.00    +0.000 A 
ATOM     17  C   UNL     1      -0.685  11.198  20.097  0.00  0.00    +0.000 A 
ATOM     18  C   UNL     1       0.112  10.055  20.029  0.00  0.00    +0.000 A 
ATOM     19  C   UNL     1       0.452   9.452  21.220  0.00  0.00    +0.000 A 
ATOM     20 CL   UNL     1       1.373   7.999  21.195  0.00  0.00    +0.000 Cl
ATOM     21  C   UNL     1       0.056  10.018  22.437  0.00  0.00    +0.000 A 
ATOM     22  C   UNL     1      -0.854  11.092  22.468  0.00  0.00    +0.000 A 
ENDBRANCH  15  16
BRANCH   1  26
ATOM     23  C   UNL     1       2.544  14.133  19.065  0.00  0.00    +0.000 A 
ATOM     24  C   UNL     1       1.273  14.586  18.714  0.00  0.00    +0.000 A 
ATOM     25  C   UNL     1       0.244  14.590  19.655  0.00  0.00    +0.000 A 
ATOM     26  C   UNL     1       0.499  14.137  20.958  0.00  0.00    +0.000 A 
ATOM     27  C   UNL     1       1.736  13.588  21.283  0.00  0.00    +0.000 A 
ATOM     28  C   UNL     1       2.765  13.604  20.344  0.00  0.00    +0.000 A 
BRANCH  23  30
ATOM     29  C   UNL     1       3.682  15.534  17.543  0.00  0.00    +0.000 C 
ATOM     30  O   UNL     1       3.502  14.232  18.090  0.00  0.00    +0.000 OA
ENDBRANCH  23  30
ENDBRANCH   1  26
TORSDOF 3
ENDMDL
MODEL 2
REMARK VINA RESULT:      -6.9      1.175      1.690
REMARK  Name = 
REMARK  4 active torsions:
REMARK  status: ('A' for Active; 'I' for Inactive)
REMARK    1  A    between atoms: C_1  and  O_2
REMARK    2  A    between atoms: O_2  and  C_3
REMARK    3  A    between atoms: C_6  and  C_7
REMARK    4  A    between atoms: C_21  and  C_22
REMARK                            x       y       z     vdW  Elec       q    Type
REMARK                         _______ _______ _______ _____ _____    ______ ____
ROOT
ATOM      1  C   UNL     1      -1.222  14.667  22.871  0.00  0.00    +0.000 C 
ATOM      2  O   UNL     1      -0.675  14.854  23.967  0.00  0.00    +0.000 OA
ATOM      3  N   UNL     1      -2.606  14.436  22.688  0.00  0.00    +0.000 N 
ATOM      4  C   UNL     1      -3.325  14.815  23.945  0.00  0.00    +0.000 C 
ATOM      5  C   UNL     1      -3.768  13.502  24.536  0.00  0.00    +0.000 C 
ATOM      6  N   UNL     1      -4.091  12.755  23.345  0.00  0.00    +0.000 N 
ATOM      7  C   UNL     1      -5.426  12.957  22.964  0.00  0.00    +0.000 C 
ATOM      8  O   UNL     1      -6.407  13.102  23.683  0.00  0.00    +0.000 OA
ATOM      9  C   UNL     1      -5.502  13.035  21.519  0.00  0.00    +0.000 A 
ATOM     10  C   UNL     1      -6.674  12.810  20.779  0.00  0.00    +0.000 A 
ATOM     11  C   UNL     1      -6.563  12.335  19.489  0.00  0.00    +0.000 A 
ATOM     12  C   UNL     1      -5.301  12.064  18.993  0.00  0.00    +0.000 A 
ATOM     13  C   UNL     1      -4.152  12.365  19.755  0.00  0.00    +0.000 A 
ATOM     14  C   UNL     1      -4.208  12.954  21.038  0.00  0.00    +0.000 A 
ATOM     15  C   UNL     1      -3.157  13.068  22.215  0.00  0.00    +0.000 C 
ENDROOT
BRANCH  15  16
ATOM     16  C   UNL     1      -1.993  12.077  21.983  0.00  0.00    +0.000 A 
ATOM     17  C   UNL     1      -1.501  11.870  20.670  0.00  0.00    +0.000 A 
ATOM     18  C   UNL     1      -0.679  10.803  20.309  0.00  0.00    +0.000 A 
ATOM     19  C   UNL     1      -0.142  10.048  21.329  0.00  0.00    +0.000 A 
ATOM     20 CL   UNL     1       0.823   8.676  20.943  0.00  0.00    +0.000 Cl
ATOM     21  C   UNL     1      -0.376  10.396  22.664  0.00  0.00    +0.000 A 
ATOM     22  C   UNL     1      -1.313  11.393  22.993  0.00  0.00    +0.000 A 
ENDBRANCH  15  16
BRANCH   1  26
ATOM     23  C   UNL     1       1.234  14.554  19.378  0.00  0.00    +0.000 A 
ATOM     24  C   UNL     1       1.726  14.090  20.597  0.00  0.00    +0.000 A 
ATOM     25  C   UNL     1       0.941  14.168  21.746  0.00  0.00    +0.000 A 
ATOM     26  C   UNL     1      -0.349  14.716  21.666  0.00  0.00    +0.000 A 
ATOM     27  C   UNL     1      -0.803  15.275  20.474  0.00  0.00    +0.000 A 
ATOM     28  C   UNL     1      -0.020  15.176  19.325  0.00  0.00    +0.000 A 
BRANCH  23  30
ATOM     29  C   UNL     1       2.696  13.101  18.225  0.00  0.00    +0.000 C 
ATOM     30  O   UNL     1       2.055  14.370  18.296  0.00  0.00    +0.000 OA
ENDBRANCH  23  30
ENDBRANCH   1  26
TORSDOF 3
ENDMDL
MODEL 3
REMARK VINA RESULT:      -6.8      1.110      1.532
REMARK  Name = 
REMARK  4 active torsions:
REMARK  status: ('A' for Active; 'I' for Inactive)
REMARK    1  A    between atoms: C_1  and  O_2
REMARK    2  A    between atoms: O_2  and  C_3
REMARK    3  A    between atoms: C_6  and  C_7
REMARK    4  A    between atoms: C_21  and  C_22
REMARK                            x       y       z     vdW  Elec       q    Type
REMARK                         _______ _______ _______ _____ _____    ______ ____
ROOT
ATOM      1  C   UNL     1      -1.960  14.813  22.194  0.00  0.00    +0.000 C 
ATOM      2  O   UNL     1      -1.844  15.217  23.359  0.00  0.00    +0.000 OA
ATOM      3  N   UNL     1      -3.172  14.379  21.605  0.00  0.00    +0.000 N 
ATOM      4  C   UNL     1      -4.310  14.825  22.469  0.00  0.00    +0.000 C 
ATOM      5  C   UNL     1      -4.827  13.557  23.096  0.00  0.00    +0.000 C 
ATOM      6  N   UNL     1      -4.657  12.621  22.012  0.00  0.00    +0.000 N 
ATOM      7  C   UNL     1      -5.788  12.592  21.182  0.00  0.00    +0.000 C 
ATOM      8  O   UNL     1      -6.965  12.701  21.500  0.00  0.00    +0.000 OA
ATOM      9  C   UNL     1      -5.362  12.464  19.803  0.00  0.00    +0.000 A 
ATOM     10  C   UNL     1      -6.183  11.988  18.768  0.00  0.00    +0.000 A 
ATOM     11  C   UNL     1      -5.594  11.363  17.688  0.00  0.00    +0.000 A 
ATOM     12  C   UNL     1      -4.220  11.197  17.693  0.00  0.00    +0.000 A 
ATOM     13  C   UNL     1      -3.435  11.746  18.728  0.00  0.00    +0.000 A 
ATOM     14  C   UNL     1      -3.979  12.490  19.799  0.00  0.00    +0.000 A 
ATOM     15  C   UNL     1      -3.415  12.899  21.220  0.00  0.00    +0.000 C 
ENDROOT
BRANCH  15  16
ATOM     16  C   UNL     1      -2.170  12.048  21.559  0.00  0.00    +0.000 A 
ATOM     17  C   UNL     1      -1.257  11.702  20.532  0.00  0.00    +0.000 A 
ATOM     18  C   UNL     1      -0.284  10.712  20.659  0.00  0.00    +0.000 A 
ATOM     19  C   UNL     1      -0.061  10.207  21.922  0.00  0.00    +0.000 A 
ATOM     20 CL   UNL     1       1.077   8.932  22.131  0.00  0.00    +0.000 Cl
ATOM     21  C   UNL     1      -0.749  10.728  23.023  0.00  0.00    +0.000 A 
ATOM     22  C   UNL     1      -1.814  11.631  22.844  0.00  0.00    +0.000 A 
ENDBRANCH  15  16
BRANCH   1  26
ATOM     23  C   UNL     1       1.554  14.556  19.779  0.00  0.00    +0.000 A 
ATOM     24  C   UNL     1       1.623  14.300  21.147  0.00  0.00    +0.000 A 
ATOM     25  C   UNL     1       0.485  14.427  21.943  0.00  0.00    +0.000 A 
ATOM     26  C   UNL     1      -0.729  14.814  21.356  0.00  0.00    +0.000 A 
ATOM     27  C   UNL     1      -0.778  15.172  20.011  0.00  0.00    +0.000 A 
ATOM     28  C   UNL     1       0.358  15.024  19.217  0.00  0.00    +0.000 A 
BRANCH  23  30
ATOM     29  C   UNL     1       2.718  13.160  18.272  0.00  0.00    +0.000 C 
ATOM     30  O   UNL     1       2.708  14.337  19.073  0.00  0.00    +0.000 OA
ENDBRANCH  23  30
ENDBRANCH   1  26
TORSDOF 3
ENDMDL
MODEL 4
REMARK VINA RESULT:      -6.8      1.247      1.953
REMARK  Name = 
REMARK  4 active torsions:
REMARK  status: ('A' for Active; 'I' for Inactive)
REMARK    1  A    between atoms: C_1  and  O_2
REMARK    2  A    between atoms: O_2  and  C_3
REMARK    3  A    between atoms: C_6  and  C_7
REMARK    4  A    between atoms: C_21  and  C_22
REMARK                            x       y       z     vdW  Elec       q    Type
REMARK                         _______ _______ _______ _____ _____    ______ ____
ROOT
ATOM      1  C   UNL     1      -1.032  14.583  22.651  0.00  0.00    +0.000 C 
ATOM      2  O   UNL     1      -0.446  14.764  23.727  0.00  0.00    +0.000 OA
ATOM      3  N   UNL     1      -2.438  14.526  22.497  0.00  0.00    +0.000 N 
ATOM      4  C   UNL     1      -3.079  15.073  23.734  0.00  0.00    +0.000 C 
ATOM      5  C   UNL     1      -3.679  13.870  24.412  0.00  0.00    +0.000 C 
ATOM      6  N   UNL     1      -4.119  13.099  23.275  0.00  0.00    +0.000 N 
ATOM      7  C   UNL     1      -5.422  13.452  22.895  0.00  0.00    +0.000 C 
ATOM      8  O   UNL     1      -6.362  13.769  23.613  0.00  0.00    +0.000 OA
ATOM      9  C   UNL     1      -5.513  13.449  21.449  0.00  0.00    +0.000 A 
ATOM     10  C   UNL     1      -6.718  13.335  20.737  0.00  0.00    +0.000 A 
ATOM     11  C   UNL     1      -6.694  12.769  19.478  0.00  0.00    +0.000 A 
ATOM     12  C   UNL     1      -5.487  12.304  18.989  0.00  0.00    +0.000 A 
ATOM     13  C   UNL     1      -4.295  12.497  19.718  0.00  0.00    +0.000 A 
ATOM     14  C   UNL     1      -4.250  13.168  20.961  0.00  0.00    +0.000 A 
ATOM     15  C   UNL     1      -3.172  13.215  22.119  0.00  0.00    +0.000 C 
ENDROOT
BRANCH  15  16
ATOM     16  C   UNL     1      -2.152  12.067  21.939  0.00  0.00    +0.000 A 
ATOM     17  C   UNL     1      -1.711  11.338  23.071  0.00  0.00    +0.000 A 
ATOM     18  C   UNL     1      -0.595  10.503  23.069  0.00  0.00    +0.000 A 
ATOM     19  C   UNL     1      -0.034  10.203  21.847  0.00  0.00    +0.000 A 
ATOM     20 CL   UNL     1       1.387   9.234  21.787  0.00  0.00    +0.000 Cl
ATOM     21  C   UNL     1      -0.617  10.677  20.667  0.00  0.00    +0.000 A 
ATOM     22  C   UNL     1      -1.660  11.622  20.709  0.00  0.00    +0.000 A 
ENDBRANCH  15  16
BRANCH   1  26
ATOM     23  C   UNL     1       1.344  13.923  19.163  0.00  0.00    +0.000 A 
ATOM     24  C   UNL     1       1.836  13.584  20.422  0.00  0.00    +0.000 A 
ATOM     25  C   UNL     1       1.080  13.841  21.565  0.00  0.00    +0.000 A 
ATOM     26  C   UNL     1      -0.183  14.441  21.437  0.00  0.00    +0.000 A 
ATOM     27  C   UNL     1      -0.632  14.875  20.193  0.00  0.00    +0.000 A 
ATOM     28  C   UNL     1       0.121  14.598  19.053  0.00  0.00    +0.000 A 
BRANCH  23  30
ATOM     29  C   UNL     1       2.510  12.197  18.052  0.00  0.00    +0.000 C 
ATOM     30  O   UNL     1       2.133  13.569  18.100  0.00  0.00    +0.000 OA
ENDBRANCH  23  30
ENDBRANCH   1  26
TORSDOF 3
ENDMDL
MODEL 5
REMARK VINA RESULT:      -6.8      3.192      5.944
REMARK  Name = 
REMARK  4 active torsions:
REMARK  status: ('A' for Active; 'I' for Inactive)
REMARK    1  A    between atoms: C_1  and  O_2
REMARK    2  A    between atoms: O_2  and  C_3
REMARK    3  A    between atoms: C_6  and  C_7
REMARK    4  A    between atoms: C_21  and  C_22
REMARK                            x       y       z     vdW  Elec       q    Type
REMARK                         _______ _______ _______ _____ _____    ______ ____
ROOT
ATOM      1  C   UNL     1      -1.858  14.976  21.123  0.00  0.00    +0.000 C 
ATOM      2  O   UNL     1      -2.424  15.730  20.319  0.00  0.00    +0.000 OA
ATOM      3  N   UNL     1      -1.158  13.798  20.770  0.00  0.00    +0.000 N 
ATOM      4  C   UNL     1      -0.904  13.815  19.295  0.00  0.00    +0.000 C 
ATOM      5  C   UNL     1      -1.818  12.752  18.743  0.00  0.00    +0.000 C 
ATOM      6  N   UNL     1      -1.759  11.763  19.791  0.00  0.00    +0.000 N 
ATOM      7  C   UNL     1      -0.700  10.865  19.585  0.00  0.00    +0.000 C 
ATOM      8  O   UNL     1      -0.277  10.422  18.525  0.00  0.00    +0.000 OA
ATOM      9  C   UNL     1      -0.092  10.547  20.860  0.00  0.00    +0.000 A 
ATOM     10  C   UNL     1       0.685   9.402  21.098  0.00  0.00    +0.000 A 
ATOM     11  C   UNL     1       0.726   8.880  22.375  0.00  0.00    +0.000 A 
ATOM     12  C   UNL     1      -0.033   9.488  23.358  0.00  0.00    +0.000 A 
ATOM     13  C   UNL     1      -0.748  10.673  23.083  0.00  0.00    +0.000 A 
ATOM     14  C   UNL     1      -0.734  11.308  21.820  0.00  0.00    +0.000 A 
ATOM     15  C   UNL     1      -1.676  12.389  21.150  0.00  0.00    +0.000 C 
ENDROOT
BRANCH  15  16
ATOM     16  C   UNL     1      -2.998  12.503  21.944  0.00  0.00    +0.000 A 
ATOM     17  C   UNL     1      -4.215  12.720  21.250  0.00  0.00    +0.000 A 
ATOM     18  C   UNL     1      -5.396  13.130  21.866  0.00  0.00    +0.000 A 
ATOM     19  C   UNL     1      -5.431  13.103  23.244  0.00  0.00    +0.000 A 
ATOM     20 CL   UNL     1      -6.837  13.665  24.062  0.00  0.00    +0.000 Cl
ATOM     21  C   UNL     1      -4.337  12.619  23.969  0.00  0.00    +0.000 A 
ATOM     22  C   UNL     1      -3.116  12.339  23.326  0.00  0.00    +0.000 A 
ENDBRANCH  15  16
BRANCH   1  26
ATOM     23  C   UNL     1      -1.838  16.293  25.187  0.00  0.00    +0.000 A 
ATOM     24  C   UNL     1      -0.768  15.557  24.682  0.00  0.00    +0.000 A 
ATOM     25  C   UNL     1      -0.795  15.088  23.370  0.00  0.00    +0.000 A 
ATOM     26  C   UNL     1      -1.906  15.366  22.559  0.00  0.00    +0.000 A 
ATOM     27  C   UNL     1      -3.021  16.010  23.090  0.00  0.00    +0.000 A 
ATOM     28  C   UNL     1      -2.979  16.493  24.397  0.00  0.00    +0.000 A 
BRANCH  23  30
ATOM     29  C   UNL     1      -0.372  17.195  26.803  0.00  0.00    +0.000 C 
ATOM     30  O   UNL     1      -1.687  16.766  26.464  0.00  0.00    +0.000 OA
ENDBRANCH  23  30
ENDBRANCH   1  26
TORSDOF 3
ENDMDL
MODEL 6
REMARK VINA RESULT:      -6.7      3.131      5.827
REMARK  Name = 
REMARK  4 active torsions:
REMARK  status: ('A' for Active; 'I' for Inactive)
REMARK    1  A    between atoms: C_1  and  O_2
REMARK    2  A    between atoms: O_2  and  C_3
REMARK    3  A    between atoms: C_6  and  C_7
REMARK    4  A    between atoms: C_21  and  C_22
REMARK                            x       y       z     vdW  Elec       q    Type
REMARK                         _______ _______ _______ _____ _____    ______ ____
ROOT
ATOM      1  C   UNL     1      -1.167  14.986  20.482  0.00  0.00    +0.000 C 
ATOM      2  O   UNL     1      -1.580  15.739  19.589  0.00  0.00    +0.000 OA
ATOM      3  N   UNL     1      -0.544  13.734  20.260  0.00  0.00    +0.000 N 
ATOM      4  C   UNL     1      -0.146  13.646  18.820  0.00  0.00    +0.000 C 
ATOM      5  C   UNL     1      -1.093  12.635  18.228  0.00  0.00    +0.000 C 
ATOM      6  N   UNL     1      -1.227  11.705  19.323  0.00  0.00    +0.000 N 
ATOM      7  C   UNL     1      -0.238  10.711  19.270  0.00  0.00    +0.000 C 
ATOM      8  O   UNL     1       0.245  10.174  18.282  0.00  0.00    +0.000 OA
ATOM      9  C   UNL     1       0.211  10.416  20.615  0.00  0.00    +0.000 A 
ATOM     10  C   UNL     1       0.854   9.224  20.986  0.00  0.00    +0.000 A 
ATOM     11  C   UNL     1       0.722   8.774  22.283  0.00  0.00    +0.000 A 
ATOM     12  C   UNL     1      -0.071   9.499  23.153  0.00  0.00    +0.000 A 
ATOM     13  C   UNL     1      -0.646  10.722  22.750  0.00  0.00    +0.000 A 
ATOM     14  C   UNL     1      -0.451  11.281  21.466  0.00  0.00    +0.000 A 
ATOM     15  C   UNL     1      -1.221  12.398  20.652  0.00  0.00    +0.000 C 
ENDROOT
BRANCH  15  16
ATOM     16  C   UNL     1      -2.599  12.669  21.299  0.00  0.00    +0.000 A 
ATOM     17  C   UNL     1      -3.712  12.976  20.476  0.00  0.00    +0.000 A 
ATOM     18  C   UNL     1      -4.903  13.520  20.954  0.00  0.00    +0.000 A 
ATOM     19  C   UNL     1      -5.080  13.549  22.320  0.00  0.00    +0.000 A 
ATOM     20 CL   UNL     1      -6.499  14.274  22.970  0.00  0.00    +0.000 Cl
ATOM     21  C   UNL     1      -4.118  12.990  23.169  0.00  0.00    +0.000 A 
ATOM     22  C   UNL     1      -2.873  12.570  22.666  0.00  0.00    +0.000 A 
ENDBRANCH  15  16
BRANCH   1  26
ATOM     23  C   UNL     1      -1.786  16.158  24.543  0.00  0.00    +0.000 A 
ATOM     24  C   UNL     1      -2.677  16.565  23.551  0.00  0.00    +0.000 A 
ATOM     25  C   UNL     1      -2.451  16.221  22.219  0.00  0.00    +0.000 A 
ATOM     26  C   UNL     1      -1.320  15.459  21.886  0.00  0.00    +0.000 A 
ATOM     27  C   UNL     1      -0.374  15.141  22.856  0.00  0.00    +0.000 A 
ATOM     28  C   UNL     1      -0.617  15.472  24.189  0.00  0.00    +0.000 A 
BRANCH  23  30
ATOM     29  C   UNL     1      -1.074  16.999  26.631  0.00  0.00    +0.000 C 
ATOM     30  O   UNL     1      -2.132  16.488  25.827  0.00  0.00    +0.000 OA
ENDBRANCH  23  30
ENDBRANCH   1  26
TORSDOF 3
ENDMDL
MODEL 7
REMARK VINA RESULT:      -6.7      1.201      1.482
REMARK  Name = 
REMARK  4 active torsions:
REMARK  status: ('A' for Active; 'I' for Inactive)
REMARK    1  A    between atoms: C_1  and  O_2
REMARK    2  A    between atoms: O_2  and  C_3
REMARK    3  A    between atoms: C_6  and  C_7
REMARK    4  A    between atoms: C_21  and  C_22
REMARK                            x       y       z     vdW  Elec       q    Type
REMARK                         _______ _______ _______ _____ _____    ______ ____
ROOT
ATOM      1  C   UNL     1      -1.248  14.669  22.925  0.00  0.00    +0.000 C 
ATOM      2  O   UNL     1      -0.698  14.843  24.022  0.00  0.00    +0.000 OA
ATOM      3  N   UNL     1      -2.632  14.434  22.744  0.00  0.00    +0.000 N 
ATOM      4  C   UNL     1      -3.348  14.788  24.009  0.00  0.00    +0.000 C 
ATOM      5  C   UNL     1      -3.781  13.464  24.581  0.00  0.00    +0.000 C 
ATOM      6  N   UNL     1      -4.105  12.734  23.380  0.00  0.00    +0.000 N 
ATOM      7  C   UNL     1      -5.442  12.934  23.007  0.00  0.00    +0.000 C 
ATOM      8  O   UNL     1      -6.421  13.062  23.731  0.00  0.00    +0.000 OA
ATOM      9  C   UNL     1      -5.523  13.035  21.564  0.00  0.00    +0.000 A 
ATOM     10  C   UNL     1      -6.697  12.814  20.825  0.00  0.00    +0.000 A 
ATOM     11  C   UNL     1      -6.589  12.360  19.526  0.00  0.00    +0.000 A 
ATOM     12  C   UNL     1      -5.326  12.104  19.022  0.00  0.00    +0.000 A 
ATOM     13  C   UNL     1      -4.176  12.400  19.784  0.00  0.00    +0.000 A 
ATOM     14  C   UNL     1      -4.231  12.969  21.077  0.00  0.00    +0.000 A 
ATOM     15  C   UNL     1      -3.176  13.070  22.252  0.00  0.00    +0.000 C 
ENDROOT
BRANCH  15  16
ATOM     16  C   UNL     1      -2.008  12.090  21.999  0.00  0.00    +0.000 A 
ATOM     17  C   UNL     1      -1.522  11.903  20.681  0.00  0.00    +0.000 A 
ATOM     18  C   UNL     1      -0.695  10.847  20.301  0.00  0.00    +0.000 A 
ATOM     19  C   UNL     1      -0.148  10.081  21.308  0.00  0.00    +0.000 A 
ATOM     20 CL   UNL     1       0.824   8.721  20.898  0.00  0.00    +0.000 Cl
ATOM     21  C   UNL     1      -0.375  10.410  22.648  0.00  0.00    +0.000 A 
ATOM     22  C   UNL     1      -1.317  11.397  22.997  0.00  0.00    +0.000 A 
ENDBRANCH  15  16
BRANCH   1  26
ATOM     23  C   UNL     1       1.278  15.132  19.511  0.00  0.00    +0.000 A 
ATOM     24  C   UNL     1      -0.057  15.529  19.456  0.00  0.00    +0.000 A 
ATOM     25  C   UNL     1      -0.894  15.336  20.554  0.00  0.00    +0.000 A 
ATOM     26  C   UNL     1      -0.380  14.743  21.718  0.00  0.00    +0.000 A 
ATOM     27  C   UNL     1       0.922  14.251  21.741  0.00  0.00    +0.000 A 
ATOM     28  C   UNL     1       1.758  14.464  20.646  0.00  0.00    +0.000 A 
BRANCH  23  30
ATOM     29  C   UNL     1       2.488  16.772  18.320  0.00  0.00    +0.000 C 
ATOM     30  O   UNL     1       2.033  15.426  18.407  0.00  0.00    +0.000 OA
ENDBRANCH  23  30
ENDBRANCH   1  26
TORSDOF 3
ENDMDL
MODEL 8
REMARK VINA RESULT:      -6.6      1.117      1.409
REMARK  Name = 
REMARK  4 active torsions:
REMARK  status: ('A' for Active; 'I' for Inactive)
REMARK    1  A    between atoms: C_1  and  O_2
REMARK    2  A    between atoms: O_2  and  C_3
REMARK    3  A    between atoms: C_6  and  C_7
REMARK    4  A    between atoms: C_21  and  C_22
REMARK                            x       y       z     vdW  Elec       q    Type
REMARK                         _______ _______ _______ _____ _____    ______ ____
ROOT
ATOM      1  C   UNL     1      -0.837  14.237  20.953  0.00  0.00    +0.000 C 
ATOM      2  O   UNL     1      -0.858  14.704  22.101  0.00  0.00    +0.000 OA
ATOM      3  N   UNL     1      -1.983  13.861  20.213  0.00  0.00    +0.000 N 
ATOM      4  C   UNL     1      -3.192  14.446  20.872  0.00  0.00    +0.000 C 
ATOM      5  C   UNL     1      -3.900  13.263  21.478  0.00  0.00    +0.000 C 
ATOM      6  N   UNL     1      -3.655  12.250  20.482  0.00  0.00    +0.000 N 
ATOM      7  C   UNL     1      -4.651  12.255  19.494  0.00  0.00    +0.000 C 
ATOM      8  O   UNL     1      -5.849  12.473  19.626  0.00  0.00    +0.000 OA
ATOM      9  C   UNL     1      -4.042  12.008  18.203  0.00  0.00    +0.000 A 
ATOM     10  C   UNL     1      -4.741  11.533  17.081  0.00  0.00    +0.000 A 
ATOM     11  C   UNL     1      -4.056  10.797  16.136  0.00  0.00    +0.000 A 
ATOM     12  C   UNL     1      -2.717  10.527  16.355  0.00  0.00    +0.000 A 
ATOM     13  C   UNL     1      -2.047  11.079  17.466  0.00  0.00    +0.000 A 
ATOM     14  C   UNL     1      -2.676  11.929  18.404  0.00  0.00    +0.000 A 
ATOM     15  C   UNL     1      -2.292  12.383  19.871  0.00  0.00    +0.000 C 
ENDROOT
BRANCH  15  16
ATOM     16  C   UNL     1      -1.186  11.462  20.436  0.00  0.00    +0.000 A 
ATOM     17  C   UNL     1      -0.214  10.916  19.560  0.00  0.00    +0.000 A 
ATOM     18  C   UNL     1       0.629   9.859  19.900  0.00  0.00    +0.000 A 
ATOM     19  C   UNL     1       0.667   9.484  21.226  0.00  0.00    +0.000 A 
ATOM     20 CL   UNL     1       1.635   8.140  21.693  0.00  0.00    +0.000 Cl
ATOM     21  C   UNL     1      -0.071  10.191  22.181  0.00  0.00    +0.000 A 
ATOM     22  C   UNL     1      -1.010  11.164  21.789  0.00  0.00    +0.000 A 
ENDBRANCH  15  16
BRANCH   1  26
ATOM     23  C   UNL     1       3.011  14.080  19.103  0.00  0.00    +0.000 A 
ATOM     24  C   UNL     1       1.874  14.336  18.339  0.00  0.00    +0.000 A 
ATOM     25  C   UNL     1       0.614  14.343  18.934  0.00  0.00    +0.000 A 
ATOM     26  C   UNL     1       0.498  14.092  20.310  0.00  0.00    +0.000 A 
ATOM     27  C   UNL     1       1.618  13.733  21.056  0.00  0.00    +0.000 A 
ATOM     28  C   UNL     1       2.877  13.747  20.458  0.00  0.00    +0.000 A 
BRANCH  23  30
ATOM     29  C   UNL     1       4.519  15.445  17.905  0.00  0.00    +0.000 C 
ATOM     30  O   UNL     1       4.207  14.163  18.440  0.00  0.00    +0.000 OA
ENDBRANCH  23  30
ENDBRANCH   1  26
TORSDOF 3
ENDMDL
MODEL 9
REMARK VINA RESULT:      -6.5      1.471      2.311
REMARK  Name = 
REMARK  4 active torsions:
REMARK  status: ('A' for Active; 'I' for Inactive)
REMARK    1  A    between atoms: C_1  and  O_2
REMARK    2  A    between atoms: O_2  and  C_3
REMARK    3  A    between atoms: C_6  and  C_7
REMARK    4  A    between atoms: C_21  and  C_22
REMARK                            x       y       z     vdW  Elec       q    Type
REMARK                         _______ _______ _______ _____ _____    ______ ____
ROOT
ATOM      1  C   UNL     1      -1.503  14.643  23.284  0.00  0.00    +0.000 C 
ATOM      2  O   UNL     1      -0.892  14.653  24.362  0.00  0.00    +0.000 OA
ATOM      3  N   UNL     1      -2.904  14.483  23.152  0.00  0.00    +0.000 N 
ATOM      4  C   UNL     1      -3.539  14.698  24.489  0.00  0.00    +0.000 C 
ATOM      5  C   UNL     1      -4.000  13.327  24.912  0.00  0.00    +0.000 C 
ATOM      6  N   UNL     1      -4.415  12.771  23.647  0.00  0.00    +0.000 N 
ATOM      7  C   UNL     1      -5.759  13.066  23.378  0.00  0.00    +0.000 C 
ATOM      8  O   UNL     1      -6.694  13.135  24.166  0.00  0.00    +0.000 OA
ATOM      9  C   UNL     1      -5.909  13.355  21.966  0.00  0.00    +0.000 A 
ATOM     10  C   UNL     1      -7.127  13.275  21.271  0.00  0.00    +0.000 A 
ATOM     11  C   UNL     1      -7.104  12.989  19.921  0.00  0.00    +0.000 A 
ATOM     12  C   UNL     1      -5.880  12.754  19.320  0.00  0.00    +0.000 A 
ATOM     13  C   UNL     1      -4.682  12.906  20.047  0.00  0.00    +0.000 A 
ATOM     14  C   UNL     1      -4.647  13.305  21.403  0.00  0.00    +0.000 A 
ATOM     15  C   UNL     1      -3.530  13.216  22.521  0.00  0.00    +0.000 C 
ENDROOT
BRANCH  15  16
ATOM     16  C   UNL     1      -2.420  12.234  22.082  0.00  0.00    +0.000 A 
ATOM     17  C   UNL     1      -1.815  11.385  23.042  0.00  0.00    +0.000 A 
ATOM     18  C   UNL     1      -0.625  10.692  22.825  0.00  0.00    +0.000 A 
ATOM     19  C   UNL     1      -0.140  10.660  21.535  0.00  0.00    +0.000 A 
ATOM     20 CL   UNL     1       1.361   9.880  21.218  0.00  0.00    +0.000 Cl
ATOM     21  C   UNL     1      -0.864  11.251  20.494  0.00  0.00    +0.000 A 
ATOM     22  C   UNL     1      -1.989  12.053  20.765  0.00  0.00    +0.000 A 
ENDBRANCH  15  16
BRANCH   1  26
ATOM     23  C   UNL     1       0.768  14.959  19.680  0.00  0.00    +0.000 A 
ATOM     24  C   UNL     1       1.326  14.367  20.812  0.00  0.00    +0.000 A 
ATOM     25  C   UNL     1       0.602  14.304  22.002  0.00  0.00    +0.000 A 
ATOM     26  C   UNL     1      -0.695  14.840  22.050  0.00  0.00    +0.000 A 
ATOM     27  C   UNL     1      -1.215  15.524  20.954  0.00  0.00    +0.000 A 
ATOM     28  C   UNL     1      -0.493  15.566  19.762  0.00  0.00    +0.000 A 
BRANCH  23  30
ATOM     29  C   UNL     1       2.293  16.083  18.270  0.00  0.00    +0.000 C 
ATOM     30  O   UNL     1       1.532  14.910  18.544  0.00  0.00    +0.000 OA
ENDBRANCH  23  30
ENDBRANCH   1  26
TORSDOF 3
ENDMDL
