MODEL 1
REMARK VINA RESULT:      -7.4      0.000      0.000
REMARK  Name = 
REMARK  13 active torsions:
REMARK  status: ('A' for Active; 'I' for Inactive)
REMARK    1  A    between atoms: C_1  and  C_2
REMARK    2  A    between atoms: C_2  and  C_3
REMARK    3  A    between atoms: C_2  and  C_4
REMARK    4  A    between atoms: C_2  and  O_5
REMARK    5  A    between atoms: O_5  and  C_6
REMARK    6  A    between atoms: N_8  and  C_9
REMARK    7  A    between atoms: C_9  and  C_10
REMARK    8  A    between atoms: C_10  and  C_11
REMARK    9  A    between atoms: C_11  and  C_12
REMARK   10  A    between atoms: C_12  and  C_13
REMARK   11  A    between atoms: C_13  and  N_14
REMARK   12  A    between atoms: C_13  and  C_23
REMARK   13  A    between atoms: C_15  and  C_17
REMARK                            x       y       z     vdW  Elec       q    Type
REMARK                         _______ _______ _______ _____ _____    ______ ____
ROOT
ATOM      1  C   UNL     1       6.714   5.164  16.529  0.00  0.00    +0.000 C 
ENDROOT
BRANCH   1   2
ATOM      2  C   UNL     1       7.035   4.783  15.070  0.00  0.00    +0.000 C 
ATOM      3  N   UNL     1       6.420   3.670  14.583  0.00  0.00    +0.000 N 
ATOM      4  O   UNL     1       7.802   5.438  14.369  0.00  0.00    +0.000 OA
ATOM      5  H   UNL     1       6.027   2.997  15.245  0.00  0.00    +0.000 HD
ATOM      6  H   UNL     1       6.735   3.315  13.692  0.00  0.00    +0.000 HD
ENDBRANCH   1   2
BRANCH   1   7
ATOM      7  N   UNL     1       5.380   4.704  16.917  0.00  0.00    +0.000 N 
ATOM      8  C   UNL     1       5.094   4.129  18.136  0.00  0.00    +0.000 C 
ATOM      9  O   UNL     1       5.915   4.009  19.038  0.00  0.00    +0.000 OA
ATOM     10  H   UNL     1       4.708   4.607  16.169  0.00  0.00    +0.000 HD
BRANCH   8  11
ATOM     11  C   UNL     1       3.706   3.639  18.323  0.00  0.00    +0.000 A 
ATOM     12  C   UNL     1       2.656   4.399  17.795  0.00  0.00    +0.000 A 
ATOM     13  C   UNL     1       1.339   3.975  17.957  0.00  0.00    +0.000 A 
ATOM     14  C   UNL     1       1.068   2.787  18.637  0.00  0.00    +0.000 A 
ATOM     15  C   UNL     1       2.113   2.012  19.139  0.00  0.00    +0.000 A 
ATOM     16  C   UNL     1       3.433   2.431  18.976  0.00  0.00    +0.000 A 
ENDBRANCH   8  11
ENDBRANCH   1   7
BRANCH   1  17
ATOM     17  C   UNL     1       6.961   6.650  16.825  0.00  0.00    +0.000 C 
BRANCH  17  18
ATOM     18  C   UNL     1       7.377   6.927  18.277  0.00  0.00    +0.000 C 
BRANCH  18  19
ATOM     19  C   UNL     1       8.538   7.912  18.436  0.00  0.00    +0.000 C 
BRANCH  19  20
ATOM     20  C   UNL     1       8.182   9.306  17.922  0.00  0.00    +0.000 C 
BRANCH  20  23
ATOM     21  C   UNL     1       8.793  11.641  18.234  0.00  0.00    +0.000 C 
ATOM     22  O   UNL     1       8.113  12.020  17.293  0.00  0.00    +0.000 OA
ATOM     23  N   UNL     1       8.875  10.346  18.639  0.00  0.00    +0.000 N 
ATOM     24  H   UNL     1       9.465  10.138  19.431  0.00  0.00    +0.000 HD
BRANCH  21  25
ATOM     25  O   UNL     1       9.574  12.420  19.021  0.00  0.00    +0.000 OA
BRANCH  25  27
ATOM     26  C   UNL     1      10.951  13.211  17.154  0.00  0.00    +0.000 C 
ATOM     27  C   UNL     1      10.933  12.691  18.597  0.00  0.00    +0.000 C 
ATOM     28  C   UNL     1      11.830  11.460  18.794  0.00  0.00    +0.000 C 
ATOM     29  C   UNL     1      11.446  13.810  19.516  0.00  0.00    +0.000 C 
ENDBRANCH  25  27
ENDBRANCH  21  25
ENDBRANCH  20  23
ENDBRANCH  19  20
ENDBRANCH  18  19
ENDBRANCH  17  18
ENDBRANCH   1  17
TORSDOF 10
ENDMDL
MODEL 2
REMARK VINA RESULT:      -7.4      1.502      2.124
REMARK  Name = 
REMARK  13 active torsions:
REMARK  status: ('A' for Active; 'I' for Inactive)
REMARK    1  A    between atoms: C_1  and  C_2
REMARK    2  A    between atoms: C_2  and  C_3
REMARK    3  A    between atoms: C_2  and  C_4
REMARK    4  A    between atoms: C_2  and  O_5
REMARK    5  A    between atoms: O_5  and  C_6
REMARK    6  A    between atoms: N_8  and  C_9
REMARK    7  A    between atoms: C_9  and  C_10
REMARK    8  A    between atoms: C_10  and  C_11
REMARK    9  A    between atoms: C_11  and  C_12
REMARK   10  A    between atoms: C_12  and  C_13
REMARK   11  A    between atoms: C_13  and  N_14
REMARK   12  A    between atoms: C_13  and  C_23
REMARK   13  A    between atoms: C_15  and  C_17
REMARK                            x       y       z     vdW  Elec       q    Type
REMARK                         _______ _______ _______ _____ _____    ______ ____
ROOT
ATOM      1  C   UNL     1       6.579   6.134  17.714  0.00  0.00    +0.000 C 
ENDROOT
BRANCH   1   2
ATOM      2  C   UNL     1       7.061   5.330  16.491  0.00  0.00    +0.000 C 
ATOM      3  N   UNL     1       7.821   4.229  16.748  0.00  0.00    +0.000 N 
ATOM      4  O   UNL     1       6.785   5.650  15.338  0.00  0.00    +0.000 OA
ATOM      5  H   UNL     1       8.270   4.146  17.663  0.00  0.00    +0.000 HD
ATOM      6  H   UNL     1       8.277   3.783  15.965  0.00  0.00    +0.000 HD
ENDBRANCH   1   2
BRANCH   1   7
ATOM      7  N   UNL     1       5.231   5.733  18.117  0.00  0.00    +0.000 N 
ATOM      8  C   UNL     1       4.962   4.628  18.893  0.00  0.00    +0.000 C 
ATOM      9  O   UNL     1       5.831   3.912  19.379  0.00  0.00    +0.000 OA
ATOM     10  H   UNL     1       4.470   6.164  17.612  0.00  0.00    +0.000 HD
BRANCH   8  11
ATOM     11  C   UNL     1       3.529   4.321  19.128  0.00  0.00    +0.000 A 
ATOM     12  C   UNL     1       3.036   4.411  20.435  0.00  0.00    +0.000 A 
ATOM     13  C   UNL     1       1.698   4.123  20.696  0.00  0.00    +0.000 A 
ATOM     14  C   UNL     1       0.848   3.755  19.652  0.00  0.00    +0.000 A 
ATOM     15  C   UNL     1       1.329   3.693  18.344  0.00  0.00    +0.000 A 
ATOM     16  C   UNL     1       2.666   3.983  18.078  0.00  0.00    +0.000 A 
ENDBRANCH   8  11
ENDBRANCH   1   7
BRANCH   1  17
ATOM     17  C   UNL     1       6.739   7.650  17.531  0.00  0.00    +0.000 C 
BRANCH  17  18
ATOM     18  C   UNL     1       8.142   8.167  17.884  0.00  0.00    +0.000 C 
BRANCH  18  19
ATOM     19  C   UNL     1       8.238   9.681  18.083  0.00  0.00    +0.000 C 
BRANCH  19  20
ATOM     20  C   UNL     1       9.224  10.053  19.190  0.00  0.00    +0.000 C 
BRANCH  20  23
ATOM     21  C   UNL     1      10.727  11.962  19.326  0.00  0.00    +0.000 C 
ATOM     22  O   UNL     1      11.730  11.266  19.293  0.00  0.00    +0.000 OA
ATOM     23  N   UNL     1       9.461  11.473  19.256  0.00  0.00    +0.000 N 
ATOM     24  H   UNL     1       8.699  12.134  19.289  0.00  0.00    +0.000 HD
BRANCH  21  25
ATOM     25  O   UNL     1      10.694  13.312  19.443  0.00  0.00    +0.000 OA
BRANCH  25  27
ATOM     26  C   UNL     1      12.091  14.976  18.309  0.00  0.00    +0.000 C 
ATOM     27  C   UNL     1      10.825  14.114  18.243  0.00  0.00    +0.000 C 
ATOM     28  C   UNL     1       9.556  14.944  17.993  0.00  0.00    +0.000 C 
ATOM     29  C   UNL     1      10.982  13.118  17.084  0.00  0.00    +0.000 C 
ENDBRANCH  25  27
ENDBRANCH  21  25
ENDBRANCH  20  23
ENDBRANCH  19  20
ENDBRANCH  18  19
ENDBRANCH  17  18
ENDBRANCH   1  17
TORSDOF 10
ENDMDL
MODEL 3
REMARK VINA RESULT:      -7.3      3.387      6.225
REMARK  Name = 
REMARK  13 active torsions:
REMARK  status: ('A' for Active; 'I' for Inactive)
REMARK    1  A    between atoms: C_1  and  C_2
REMARK    2  A    between atoms: C_2  and  C_3
REMARK    3  A    between atoms: C_2  and  C_4
REMARK    4  A    between atoms: C_2  and  O_5
REMARK    5  A    between atoms: O_5  and  C_6
REMARK    6  A    between atoms: N_8  and  C_9
REMARK    7  A    between atoms: C_9  and  C_10
REMARK    8  A    between atoms: C_10  and  C_11
REMARK    9  A    between atoms: C_11  and  C_12
REMARK   10  A    between atoms: C_12  and  C_13
REMARK   11  A    between atoms: C_13  and  N_14
REMARK   12  A    between atoms: C_13  and  C_23
REMARK   13  A    between atoms: C_15  and  C_17
REMARK                            x       y       z     vdW  Elec       q    Type
REMARK                         _______ _______ _______ _____ _____    ______ ____
ROOT
ATOM      1  C   UNL     1       2.951   3.556  19.165  0.00  0.00    +0.000 C 
ENDROOT
BRANCH   1   2
ATOM      2  C   UNL     1       1.627   2.781  19.312  0.00  0.00    +0.000 C 
ATOM      3  N   UNL     1       1.209   2.525  20.584  0.00  0.00    +0.000 N 
ATOM      4  O   UNL     1       0.969   2.406  18.345  0.00  0.00    +0.000 OA
ATOM      5  H   UNL     1       1.890   2.585  21.344  0.00  0.00    +0.000 HD
ATOM      6  H   UNL     1       0.436   1.887  20.701  0.00  0.00    +0.000 HD
ENDBRANCH   1   2
BRANCH   1   7
ATOM      7  N   UNL     1       2.712   4.983  18.955  0.00  0.00    +0.000 N 
ATOM      8  C   UNL     1       2.286   5.842  19.943  0.00  0.00    +0.000 C 
ATOM      9  O   UNL     1       2.132   5.506  21.113  0.00  0.00    +0.000 OA
ATOM     10  H   UNL     1       2.645   5.285  17.993  0.00  0.00    +0.000 HD
BRANCH   8  11
ATOM     11  C   UNL     1       2.007   7.239  19.528  0.00  0.00    +0.000 A 
ATOM     12  C   UNL     1       2.303   7.612  18.212  0.00  0.00    +0.000 A 
ATOM     13  C   UNL     1       2.062   8.917  17.788  0.00  0.00    +0.000 A 
ATOM     14  C   UNL     1       1.515   9.848  18.672  0.00  0.00    +0.000 A 
ATOM     15  C   UNL     1       1.191   9.472  19.975  0.00  0.00    +0.000 A 
ATOM     16  C   UNL     1       1.428   8.166  20.404  0.00  0.00    +0.000 A 
ENDBRANCH   8  11
ENDBRANCH   1   7
BRANCH   1  17
ATOM     17  C   UNL     1       3.894   2.931  18.127  0.00  0.00    +0.000 C 
BRANCH  17  18
ATOM     18  C   UNL     1       4.646   3.967  17.279  0.00  0.00    +0.000 C 
BRANCH  18  19
ATOM     19  C   UNL     1       4.321   3.932  15.784  0.00  0.00    +0.000 C 
BRANCH  19  20
ATOM     20  C   UNL     1       5.543   4.251  14.923  0.00  0.00    +0.000 C 
BRANCH  20  23
ATOM     21  C   UNL     1       7.355   5.431  16.040  0.00  0.00    +0.000 C 
ATOM     22  O   UNL     1       7.940   4.400  16.335  0.00  0.00    +0.000 OA
ATOM     23  N   UNL     1       6.196   5.469  15.332  0.00  0.00    +0.000 N 
ATOM     24  H   UNL     1       5.794   6.374  15.137  0.00  0.00    +0.000 HD
BRANCH  21  25
ATOM     25  O   UNL     1       7.741   6.689  16.361  0.00  0.00    +0.000 OA
BRANCH  25  27
ATOM     26  C   UNL     1       7.884   6.359  18.785  0.00  0.00    +0.000 C 
ATOM     27  C   UNL     1       7.343   7.230  17.645  0.00  0.00    +0.000 C 
ATOM     28  C   UNL     1       5.820   7.420  17.717  0.00  0.00    +0.000 C 
ATOM     29  C   UNL     1       8.004   8.613  17.743  0.00  0.00    +0.000 C 
ENDBRANCH  25  27
ENDBRANCH  21  25
ENDBRANCH  20  23
ENDBRANCH  19  20
ENDBRANCH  18  19
ENDBRANCH  17  18
ENDBRANCH   1  17
TORSDOF 10
ENDMDL
MODEL 4
REMARK VINA RESULT:      -7.3      1.432      1.783
REMARK  Name = 
REMARK  13 active torsions:
REMARK  status: ('A' for Active; 'I' for Inactive)
REMARK    1  A    between atoms: C_1  and  C_2
REMARK    2  A    between atoms: C_2  and  C_3
REMARK    3  A    between atoms: C_2  and  C_4
REMARK    4  A    between atoms: C_2  and  O_5
REMARK    5  A    between atoms: O_5  and  C_6
REMARK    6  A    between atoms: N_8  and  C_9
REMARK    7  A    between atoms: C_9  and  C_10
REMARK    8  A    between atoms: C_10  and  C_11
REMARK    9  A    between atoms: C_11  and  C_12
REMARK   10  A    between atoms: C_12  and  C_13
REMARK   11  A    between atoms: C_13  and  N_14
REMARK   12  A    between atoms: C_13  and  C_23
REMARK   13  A    between atoms: C_15  and  C_17
REMARK                            x       y       z     vdW  Elec       q    Type
REMARK                         _______ _______ _______ _____ _____    ______ ____
ROOT
ATOM      1  C   UNL     1       6.417   4.907  16.978  0.00  0.00    +0.000 C 
ENDROOT
BRANCH   1   2
ATOM      2  C   UNL     1       6.386   5.458  15.539  0.00  0.00    +0.000 C 
ATOM      3  N   UNL     1       7.494   5.234  14.778  0.00  0.00    +0.000 N 
ATOM      4  O   UNL     1       5.422   6.070  15.085  0.00  0.00    +0.000 OA
ATOM      5  H   UNL     1       8.369   4.990  15.246  0.00  0.00    +0.000 HD
ATOM      6  H   UNL     1       7.559   5.720  13.895  0.00  0.00    +0.000 HD
ENDBRANCH   1   2
BRANCH   1   7
ATOM      7  N   UNL     1       5.065   4.725  17.506  0.00  0.00    +0.000 N 
ATOM      8  C   UNL     1       4.786   4.067  18.683  0.00  0.00    +0.000 C 
ATOM      9  O   UNL     1       5.649   3.629  19.436  0.00  0.00    +0.000 OA
ATOM     10  H   UNL     1       4.308   4.897  16.859  0.00  0.00    +0.000 HD
BRANCH   8  11
ATOM     11  C   UNL     1       3.350   3.897  19.019  0.00  0.00    +0.000 A 
ATOM     12  C   UNL     1       2.850   4.557  20.147  0.00  0.00    +0.000 A 
ATOM     13  C   UNL     1       1.508   4.416  20.498  0.00  0.00    +0.000 A 
ATOM     14  C   UNL     1       0.664   3.625  19.719  0.00  0.00    +0.000 A 
ATOM     15  C   UNL     1       1.152   2.990  18.577  0.00  0.00    +0.000 A 
ATOM     16  C   UNL     1       2.492   3.131  18.220  0.00  0.00    +0.000 A 
ENDBRANCH   8  11
ENDBRANCH   1   7
BRANCH   1  17
ATOM     17  C   UNL     1       7.335   5.715  17.906  0.00  0.00    +0.000 C 
BRANCH  17  18
ATOM     18  C   UNL     1       7.359   7.217  17.590  0.00  0.00    +0.000 C 
BRANCH  18  19
ATOM     19  C   UNL     1       8.357   8.032  18.418  0.00  0.00    +0.000 C 
BRANCH  19  20
ATOM     20  C   UNL     1       8.349   9.511  18.033  0.00  0.00    +0.000 C 
BRANCH  20  23
ATOM     21  C   UNL     1      10.014  11.138  18.743  0.00  0.00    +0.000 C 
ATOM     22  O   UNL     1      10.491  11.245  17.624  0.00  0.00    +0.000 OA
ATOM     23  N   UNL     1       8.954  10.341  19.043  0.00  0.00    +0.000 N 
ATOM     24  H   UNL     1       8.634  10.326  20.000  0.00  0.00    +0.000 HD
BRANCH  21  25
ATOM     25  O   UNL     1      10.446  11.770  19.860  0.00  0.00    +0.000 OA
BRANCH  25  27
ATOM     26  C   UNL     1      10.041  13.613  21.426  0.00  0.00    +0.000 C 
ATOM     27  C   UNL     1      10.255  13.203  19.963  0.00  0.00    +0.000 C 
ATOM     28  C   UNL     1       9.118  13.677  19.044  0.00  0.00    +0.000 C 
ATOM     29  C   UNL     1      11.564  13.840  19.473  0.00  0.00    +0.000 C 
ENDBRANCH  25  27
ENDBRANCH  21  25
ENDBRANCH  20  23
ENDBRANCH  19  20
ENDBRANCH  18  19
ENDBRANCH  17  18
ENDBRANCH   1  17
TORSDOF 10
ENDMDL
MODEL 5
REMARK VINA RESULT:      -7.2      0.984      1.344
REMARK  Name = 
REMARK  13 active torsions:
REMARK  status: ('A' for Active; 'I' for Inactive)
REMARK    1  A    between atoms: C_1  and  C_2
REMARK    2  A    between atoms: C_2  and  C_3
REMARK    3  A    between atoms: C_2  and  C_4
REMARK    4  A    between atoms: C_2  and  O_5
REMARK    5  A    between atoms: O_5  and  C_6
REMARK    6  A    between atoms: N_8  and  C_9
REMARK    7  A    between atoms: C_9  and  C_10
REMARK    8  A    between atoms: C_10  and  C_11
REMARK    9  A    between atoms: C_11  and  C_12
REMARK   10  A    between atoms: C_12  and  C_13
REMARK   11  A    between atoms: C_13  and  N_14
REMARK   12  A    between atoms: C_13  and  C_23
REMARK   13  A    between atoms: C_15  and  C_17
REMARK                            x       y       z     vdW  Elec       q    Type
REMARK                         _______ _______ _______ _____ _____    ______ ____
ROOT
ATOM      1  C   UNL     1       6.560   4.583  17.201  0.00  0.00    +0.000 C 
ENDROOT
BRANCH   1   2
ATOM      2  C   UNL     1       6.636   4.979  15.713  0.00  0.00    +0.000 C 
ATOM      3  N   UNL     1       5.472   5.378  15.129  0.00  0.00    +0.000 N 
ATOM      4  O   UNL     1       7.683   4.944  15.072  0.00  0.00    +0.000 OA
ATOM      5  H   UNL     1       4.588   5.132  15.580  0.00  0.00    +0.000 HD
ATOM      6  H   UNL     1       5.467   5.488  14.125  0.00  0.00    +0.000 HD
ENDBRANCH   1   2
BRANCH   1   7
ATOM      7  N   UNL     1       5.174   4.390  17.629  0.00  0.00    +0.000 N 
ATOM      8  C   UNL     1       4.817   3.809  18.825  0.00  0.00    +0.000 C 
ATOM      9  O   UNL     1       5.627   3.459  19.677  0.00  0.00    +0.000 OA
ATOM     10  H   UNL     1       4.470   4.488  16.911  0.00  0.00    +0.000 HD
BRANCH   8  11
ATOM     11  C   UNL     1       3.364   3.612  19.054  0.00  0.00    +0.000 A 
ATOM     12  C   UNL     1       2.946   3.148  20.307  0.00  0.00    +0.000 A 
ATOM     13  C   UNL     1       1.591   2.944  20.557  0.00  0.00    +0.000 A 
ATOM     14  C   UNL     1       0.651   3.211  19.562  0.00  0.00    +0.000 A 
ATOM     15  C   UNL     1       1.061   3.701  18.322  0.00  0.00    +0.000 A 
ATOM     16  C   UNL     1       2.416   3.911  18.068  0.00  0.00    +0.000 A 
ENDBRANCH   8  11
ENDBRANCH   1   7
BRANCH   1  17
ATOM     17  C   UNL     1       7.358   5.528  18.110  0.00  0.00    +0.000 C 
BRANCH  17  18
ATOM     18  C   UNL     1       7.283   7.001  17.683  0.00  0.00    +0.000 C 
BRANCH  18  19
ATOM     19  C   UNL     1       8.297   7.921  18.367  0.00  0.00    +0.000 C 
BRANCH  19  20
ATOM     20  C   UNL     1       8.197   9.361  17.863  0.00  0.00    +0.000 C 
BRANCH  20  23
ATOM     21  C   UNL     1       8.993  11.603  18.376  0.00  0.00    +0.000 C 
ATOM     22  O   UNL     1       8.350  12.115  17.474  0.00  0.00    +0.000 OA
ATOM     23  N   UNL     1       8.969  10.275  18.666  0.00  0.00    +0.000 N 
ATOM     24  H   UNL     1       9.537   9.952  19.436  0.00  0.00    +0.000 HD
BRANCH  21  25
ATOM     25  O   UNL     1       9.831  12.244  19.225  0.00  0.00    +0.000 OA
BRANCH  25  27
ATOM     26  C   UNL     1      10.756  14.346  18.367  0.00  0.00    +0.000 C 
ATOM     27  C   UNL     1      11.022  12.869  18.685  0.00  0.00    +0.000 C 
ATOM     28  C   UNL     1      11.553  12.089  17.472  0.00  0.00    +0.000 C 
ATOM     29  C   UNL     1      12.077  12.800  19.799  0.00  0.00    +0.000 C 
ENDBRANCH  25  27
ENDBRANCH  21  25
ENDBRANCH  20  23
ENDBRANCH  19  20
ENDBRANCH  18  19
ENDBRANCH  17  18
ENDBRANCH   1  17
TORSDOF 10
ENDMDL
MODEL 6
REMARK VINA RESULT:      -7.1      1.275      1.709
REMARK  Name = 
REMARK  13 active torsions:
REMARK  status: ('A' for Active; 'I' for Inactive)
REMARK    1  A    between atoms: C_1  and  C_2
REMARK    2  A    between atoms: C_2  and  C_3
REMARK    3  A    between atoms: C_2  and  C_4
REMARK    4  A    between atoms: C_2  and  O_5
REMARK    5  A    between atoms: O_5  and  C_6
REMARK    6  A    between atoms: N_8  and  C_9
REMARK    7  A    between atoms: C_9  and  C_10
REMARK    8  A    between atoms: C_10  and  C_11
REMARK    9  A    between atoms: C_11  and  C_12
REMARK   10  A    between atoms: C_12  and  C_13
REMARK   11  A    between atoms: C_13  and  N_14
REMARK   12  A    between atoms: C_13  and  C_23
REMARK   13  A    between atoms: C_15  and  C_17
REMARK                            x       y       z     vdW  Elec       q    Type
REMARK                         _______ _______ _______ _____ _____    ______ ____
ROOT
ATOM      1  C   UNL     1       6.514   5.838  17.465  0.00  0.00    +0.000 C 
ENDROOT
BRANCH   1   2
ATOM      2  C   UNL     1       7.104   5.138  16.225  0.00  0.00    +0.000 C 
ATOM      3  N   UNL     1       6.651   5.564  15.012  0.00  0.00    +0.000 N 
ATOM      4  O   UNL     1       7.939   4.241  16.306  0.00  0.00    +0.000 OA
ATOM      5  H   UNL     1       5.774   6.088  14.974  0.00  0.00    +0.000 HD
ATOM      6  H   UNL     1       6.901   5.017  14.202  0.00  0.00    +0.000 HD
ENDBRANCH   1   2
BRANCH   1   7
ATOM      7  N   UNL     1       5.178   5.330  17.777  0.00  0.00    +0.000 N 
ATOM      8  C   UNL     1       4.930   4.357  18.720  0.00  0.00    +0.000 C 
ATOM      9  O   UNL     1       5.799   3.872  19.437  0.00  0.00    +0.000 OA
ATOM     10  H   UNL     1       4.452   5.550  17.110  0.00  0.00    +0.000 HD
BRANCH   8  11
ATOM     11  C   UNL     1       3.524   3.899  18.841  0.00  0.00    +0.000 A 
ATOM     12  C   UNL     1       2.609   4.298  17.860  0.00  0.00    +0.000 A 
ATOM     13  C   UNL     1       1.278   3.893  17.942  0.00  0.00    +0.000 A 
ATOM     14  C   UNL     1       0.862   3.081  18.997  0.00  0.00    +0.000 A 
ATOM     15  C   UNL     1       1.777   2.657  19.961  0.00  0.00    +0.000 A 
ATOM     16  C   UNL     1       3.110   3.056  19.880  0.00  0.00    +0.000 A 
ENDBRANCH   8  11
ENDBRANCH   1   7
BRANCH   1  17
ATOM     17  C   UNL     1       6.583   7.369  17.373  0.00  0.00    +0.000 C 
BRANCH  17  18
ATOM     18  C   UNL     1       7.881   7.960  17.940  0.00  0.00    +0.000 C 
BRANCH  18  19
ATOM     19  C   UNL     1       8.024   9.475  17.775  0.00  0.00    +0.000 C 
BRANCH  19  20
ATOM     20  C   UNL     1       9.046  10.065  18.747  0.00  0.00    +0.000 C 
BRANCH  20  23
ATOM     21  C   UNL     1      10.555  11.964  18.548  0.00  0.00    +0.000 C 
ATOM     22  O   UNL     1      11.550  11.287  18.756  0.00  0.00    +0.000 OA
ATOM     23  N   UNL     1       9.293  11.463  18.497  0.00  0.00    +0.000 N 
ATOM     24  H   UNL     1       8.538  12.108  18.316  0.00  0.00    +0.000 HD
BRANCH  21  25
ATOM     25  O   UNL     1      10.527  13.303  18.344  0.00  0.00    +0.000 OA
BRANCH  25  27
ATOM     26  C   UNL     1       9.853  15.392  19.433  0.00  0.00    +0.000 C 
ATOM     27  C   UNL     1      10.793  14.181  19.465  0.00  0.00    +0.000 C 
ATOM     28  C   UNL     1      12.275  14.584  19.512  0.00  0.00    +0.000 C 
ATOM     29  C   UNL     1      10.479  13.363  20.726  0.00  0.00    +0.000 C 
ENDBRANCH  25  27
ENDBRANCH  21  25
ENDBRANCH  20  23
ENDBRANCH  19  20
ENDBRANCH  18  19
ENDBRANCH  17  18
ENDBRANCH   1  17
TORSDOF 10
ENDMDL
MODEL 7
REMARK VINA RESULT:      -7.1      1.418      1.858
REMARK  Name = 
REMARK  13 active torsions:
REMARK  status: ('A' for Active; 'I' for Inactive)
REMARK    1  A    between atoms: C_1  and  C_2
REMARK    2  A    between atoms: C_2  and  C_3
REMARK    3  A    between atoms: C_2  and  C_4
REMARK    4  A    between atoms: C_2  and  O_5
REMARK    5  A    between atoms: O_5  and  C_6
REMARK    6  A    between atoms: N_8  and  C_9
REMARK    7  A    between atoms: C_9  and  C_10
REMARK    8  A    between atoms: C_10  and  C_11
REMARK    9  A    between atoms: C_11  and  C_12
REMARK   10  A    between atoms: C_12  and  C_13
REMARK   11  A    between atoms: C_13  and  N_14
REMARK   12  A    between atoms: C_13  and  C_23
REMARK   13  A    between atoms: C_15  and  C_17
REMARK                            x       y       z     vdW  Elec       q    Type
REMARK                         _______ _______ _______ _____ _____    ______ ____
ROOT
ATOM      1  C   UNL     1       6.337   5.221  17.311  0.00  0.00    +0.000 C 
ENDROOT
BRANCH   1   2
ATOM      2  C   UNL     1       6.307   5.564  15.809  0.00  0.00    +0.000 C 
ATOM      3  N   UNL     1       7.415   5.234  15.087  0.00  0.00    +0.000 N 
ATOM      4  O   UNL     1       5.345   6.107  15.273  0.00  0.00    +0.000 OA
ATOM      5  H   UNL     1       8.289   5.056  15.586  0.00  0.00    +0.000 HD
ATOM      6  H   UNL     1       7.481   5.590  14.145  0.00  0.00    +0.000 HD
ENDBRANCH   1   2
BRANCH   1   7
ATOM      7  N   UNL     1       4.991   4.966  17.824  0.00  0.00    +0.000 N 
ATOM      8  C   UNL     1       4.721   4.120  18.877  0.00  0.00    +0.000 C 
ATOM      9  O   UNL     1       5.590   3.553  19.530  0.00  0.00    +0.000 OA
ATOM     10  H   UNL     1       4.226   5.253  17.229  0.00  0.00    +0.000 HD
BRANCH   8  11
ATOM     11  C   UNL     1       3.289   3.911  19.204  0.00  0.00    +0.000 A 
ATOM     12  C   UNL     1       2.725   4.669  20.237  0.00  0.00    +0.000 A 
ATOM     13  C   UNL     1       1.385   4.496  20.577  0.00  0.00    +0.000 A 
ATOM     14  C   UNL     1       0.604   3.573  19.882  0.00  0.00    +0.000 A 
ATOM     15  C   UNL     1       1.154   2.836  18.833  0.00  0.00    +0.000 A 
ATOM     16  C   UNL     1       2.494   3.009  18.486  0.00  0.00    +0.000 A 
ENDBRANCH   8  11
ENDBRANCH   1   7
BRANCH   1  17
ATOM     17  C   UNL     1       7.126   6.244  18.140  0.00  0.00    +0.000 C 
BRANCH  17  18
ATOM     18  C   UNL     1       6.912   7.696  17.691  0.00  0.00    +0.000 C 
BRANCH  18  19
ATOM     19  C   UNL     1       8.197   8.483  17.422  0.00  0.00    +0.000 C 
BRANCH  19  20
ATOM     20  C   UNL     1       8.534   9.439  18.566  0.00  0.00    +0.000 C 
BRANCH  20  23
ATOM     21  C   UNL     1      10.086  11.235  19.103  0.00  0.00    +0.000 C 
ATOM     22  O   UNL     1       9.904  11.129  20.306  0.00  0.00    +0.000 OA
ATOM     23  N   UNL     1       9.489  10.445  18.173  0.00  0.00    +0.000 N 
ATOM     24  H   UNL     1       9.710  10.613  17.202  0.00  0.00    +0.000 HD
BRANCH  21  25
ATOM     25  O   UNL     1      10.890  12.139  18.493  0.00  0.00    +0.000 OA
BRANCH  25  27
ATOM     26  C   UNL     1      10.970  14.311  19.625  0.00  0.00    +0.000 C 
ATOM     27  C   UNL     1      10.452  13.518  18.419  0.00  0.00    +0.000 C 
ATOM     28  C   UNL     1       8.925  13.606  18.266  0.00  0.00    +0.000 C 
ATOM     29  C   UNL     1      11.095  14.098  17.151  0.00  0.00    +0.000 C 
ENDBRANCH  25  27
ENDBRANCH  21  25
ENDBRANCH  20  23
ENDBRANCH  19  20
ENDBRANCH  18  19
ENDBRANCH  17  18
ENDBRANCH   1  17
TORSDOF 10
ENDMDL
MODEL 8
REMARK VINA RESULT:      -7.1      2.772      4.341
REMARK  Name = 
REMARK  13 active torsions:
REMARK  status: ('A' for Active; 'I' for Inactive)
REMARK    1  A    between atoms: C_1  and  C_2
REMARK    2  A    between atoms: C_2  and  C_3
REMARK    3  A    between atoms: C_2  and  C_4
REMARK    4  A    between atoms: C_2  and  O_5
REMARK    5  A    between atoms: O_5  and  C_6
REMARK    6  A    between atoms: N_8  and  C_9
REMARK    7  A    between atoms: C_9  and  C_10
REMARK    8  A    between atoms: C_10  and  C_11
REMARK    9  A    between atoms: C_11  and  C_12
REMARK   10  A    between atoms: C_12  and  C_13
REMARK   11  A    between atoms: C_13  and  N_14
REMARK   12  A    between atoms: C_13  and  C_23
REMARK   13  A    between atoms: C_15  and  C_17
REMARK                            x       y       z     vdW  Elec       q    Type
REMARK                         _______ _______ _______ _____ _____    ______ ____
ROOT
ATOM      1  C   UNL     1       6.536   6.769  17.632  0.00  0.00    +0.000 C 
ENDROOT
BRANCH   1   2
ATOM      2  C   UNL     1       6.143   5.780  18.747  0.00  0.00    +0.000 C 
ATOM      3  N   UNL     1       7.161   5.262  19.488  0.00  0.00    +0.000 N 
ATOM      4  O   UNL     1       4.977   5.464  18.969  0.00  0.00    +0.000 OA
ATOM      5  H   UNL     1       8.112   5.308  19.115  0.00  0.00    +0.000 HD
ATOM      6  H   UNL     1       6.944   4.498  20.112  0.00  0.00    +0.000 HD
ENDBRANCH   1   2
BRANCH   1   7
ATOM      7  N   UNL     1       6.384   6.167  16.308  0.00  0.00    +0.000 N 
ATOM      8  C   UNL     1       7.109   5.079  15.875  0.00  0.00    +0.000 C 
ATOM      9  O   UNL     1       7.904   4.469  16.582  0.00  0.00    +0.000 OA
ATOM     10  H   UNL     1       5.888   6.719  15.623  0.00  0.00    +0.000 HD
BRANCH   8  11
ATOM     11  C   UNL     1       6.889   4.658  14.469  0.00  0.00    +0.000 A 
ATOM     12  C   UNL     1       7.758   5.145  13.486  0.00  0.00    +0.000 A 
ATOM     13  C   UNL     1       7.579   4.777  12.154  0.00  0.00    +0.000 A 
ATOM     14  C   UNL     1       6.540   3.916  11.803  0.00  0.00    +0.000 A 
ATOM     15  C   UNL     1       5.689   3.405  12.783  0.00  0.00    +0.000 A 
ATOM     16  C   UNL     1       5.867   3.767  14.118  0.00  0.00    +0.000 A 
ENDBRANCH   8  11
ENDBRANCH   1   7
BRANCH   1  17
ATOM     17  C   UNL     1       7.913   7.408  17.862  0.00  0.00    +0.000 C 
BRANCH  17  18
ATOM     18  C   UNL     1       7.906   8.940  17.753  0.00  0.00    +0.000 C 
BRANCH  18  19
ATOM     19  C   UNL     1       8.817   9.660  18.750  0.00  0.00    +0.000 C 
BRANCH  19  20
ATOM     20  C   UNL     1       9.705  10.701  18.067  0.00  0.00    +0.000 C 
BRANCH  20  23
ATOM     21  C   UNL     1       8.815  12.954  18.297  0.00  0.00    +0.000 C 
ATOM     22  O   UNL     1       8.028  12.815  17.374  0.00  0.00    +0.000 OA
ATOM     23  N   UNL     1       9.656  11.979  18.731  0.00  0.00    +0.000 N 
ATOM     24  H   UNL     1      10.267  12.195  19.506  0.00  0.00    +0.000 HD
BRANCH  21  25
ATOM     25  O   UNL     1       8.993  14.077  19.034  0.00  0.00    +0.000 OA
BRANCH  25  27
ATOM     26  C   UNL     1       8.820  16.234  17.882  0.00  0.00    +0.000 C 
ATOM     27  C   UNL     1       9.757  15.167  18.462  0.00  0.00    +0.000 C 
ATOM     28  C   UNL     1      10.773  14.649  17.432  0.00  0.00    +0.000 C 
ATOM     29  C   UNL     1      10.535  15.795  19.628  0.00  0.00    +0.000 C 
ENDBRANCH  25  27
ENDBRANCH  21  25
ENDBRANCH  20  23
ENDBRANCH  19  20
ENDBRANCH  18  19
ENDBRANCH  17  18
ENDBRANCH   1  17
TORSDOF 10
ENDMDL
MODEL 9
REMARK VINA RESULT:      -7.0      1.683      2.181
REMARK  Name = 
REMARK  13 active torsions:
REMARK  status: ('A' for Active; 'I' for Inactive)
REMARK    1  A    between atoms: C_1  and  C_2
REMARK    2  A    between atoms: C_2  and  C_3
REMARK    3  A    between atoms: C_2  and  C_4
REMARK    4  A    between atoms: C_2  and  O_5
REMARK    5  A    between atoms: O_5  and  C_6
REMARK    6  A    between atoms: N_8  and  C_9
REMARK    7  A    between atoms: C_9  and  C_10
REMARK    8  A    between atoms: C_10  and  C_11
REMARK    9  A    between atoms: C_11  and  C_12
REMARK   10  A    between atoms: C_12  and  C_13
REMARK   11  A    between atoms: C_13  and  N_14
REMARK   12  A    between atoms: C_13  and  C_23
REMARK   13  A    between atoms: C_15  and  C_17
REMARK                            x       y       z     vdW  Elec       q    Type
REMARK                         _______ _______ _______ _____ _____    ______ ____
ROOT
ATOM      1  C   UNL     1       6.594   5.889  18.230  0.00  0.00    +0.000 C 
ENDROOT
BRANCH   1   2
ATOM      2  C   UNL     1       7.645   4.822  17.864  0.00  0.00    +0.000 C 
ATOM      3  N   UNL     1       7.613   4.350  16.587  0.00  0.00    +0.000 N 
ATOM      4  O   UNL     1       8.475   4.408  18.669  0.00  0.00    +0.000 OA
ATOM      5  H   UNL     1       6.763   4.485  16.035  0.00  0.00    +0.000 HD
ATOM      6  H   UNL     1       8.182   3.544  16.373  0.00  0.00    +0.000 HD
ENDBRANCH   1   2
BRANCH   1   7
ATOM      7  N   UNL     1       5.245   5.324  18.241  0.00  0.00    +0.000 N 
ATOM      8  C   UNL     1       4.821   4.371  19.139  0.00  0.00    +0.000 C 
ATOM      9  O   UNL     1       5.514   3.952  20.061  0.00  0.00    +0.000 OA
ATOM     10  H   UNL     1       4.689   5.487  17.413  0.00  0.00    +0.000 HD
BRANCH   8  11
ATOM     11  C   UNL     1       3.447   3.846  18.945  0.00  0.00    +0.000 A 
ATOM     12  C   UNL     1       3.035   2.758  19.724  0.00  0.00    +0.000 A 
ATOM     13  C   UNL     1       1.754   2.233  19.564  0.00  0.00    +0.000 A 
ATOM     14  C   UNL     1       0.880   2.799  18.636  0.00  0.00    +0.000 A 
ATOM     15  C   UNL     1       1.276   3.901  17.879  0.00  0.00    +0.000 A 
ATOM     16  C   UNL     1       2.556   4.432  18.037  0.00  0.00    +0.000 A 
ENDBRANCH   8  11
ENDBRANCH   1   7
BRANCH   1  17
ATOM     17  C   UNL     1       6.720   7.164  17.384  0.00  0.00    +0.000 C 
BRANCH  17  18
ATOM     18  C   UNL     1       8.050   7.904  17.583  0.00  0.00    +0.000 C 
BRANCH  18  19
ATOM     19  C   UNL     1       7.914   9.391  17.918  0.00  0.00    +0.000 C 
BRANCH  19  20
ATOM     20  C   UNL     1       9.039   9.879  18.830  0.00  0.00    +0.000 C 
BRANCH  20  23
ATOM     21  C   UNL     1      10.658  11.694  18.951  0.00  0.00    +0.000 C 
ATOM     22  O   UNL     1      10.801  11.581  20.159  0.00  0.00    +0.000 OA
ATOM     23  N   UNL     1       9.845  10.898  18.206  0.00  0.00    +0.000 N 
ATOM     24  H   UNL     1       9.800  11.072  17.213  0.00  0.00    +0.000 HD
BRANCH  21  25
ATOM     25  O   UNL     1      11.261  12.609  18.156  0.00  0.00    +0.000 OA
BRANCH  25  27
ATOM     26  C   UNL     1      11.246  14.786  17.030  0.00  0.00    +0.000 C 
ATOM     27  C   UNL     1      10.892  14.003  18.300  0.00  0.00    +0.000 C 
ATOM     28  C   UNL     1      11.517  14.612  19.565  0.00  0.00    +0.000 C 
ATOM     29  C   UNL     1       9.365  14.020  18.464  0.00  0.00    +0.000 C 
ENDBRANCH  25  27
ENDBRANCH  21  25
ENDBRANCH  20  23
ENDBRANCH  19  20
ENDBRANCH  18  19
ENDBRANCH  17  18
ENDBRANCH   1  17
TORSDOF 10
ENDMDL
