MODEL 1
REMARK VINA RESULT:      -9.9      0.000      0.000
REMARK  Name = 
REMARK  6 active torsions:
REMARK  status: ('A' for Active; 'I' for Inactive)
REMARK    1  A    between atoms: C_2  and  O_3
REMARK    2  A    between atoms: C_2  and  C_4
REMARK    3  A    between atoms: C_4  and  C_5
REMARK    4  A    between atoms: C_7  and  C_8
REMARK    5  A    between atoms: N_11  and  S_12
REMARK    6  A    between atoms: S_12  and  C_15
REMARK                            x       y       z     vdW  Elec       q    Type
REMARK                         _______ _______ _______ _____ _____    ______ ____
ROOT
ATOM      1  C   UNL     1       2.591   7.386  18.780  0.00  0.00    +0.000 C 
ATOM      2  C   UNL     1       1.656   8.034  17.764  0.00  0.00    +0.000 C 
ATOM      3  C   UNL     1       1.382   9.449  18.246  0.00  0.00    +0.000 C 
ATOM      4  N   UNL     1       0.814   9.495  19.633  0.00  0.00    +0.000 NA
ATOM      5  C   UNL     1       1.447   8.563  20.637  0.00  0.00    +0.000 C 
ATOM      6  C   UNL     1       1.756   7.181  20.053  0.00  0.00    +0.000 C 
ENDROOT
BRANCH   1   9
ATOM      7  C   UNL     1       5.678   5.744  17.272  0.00  0.00    +0.000 A 
ATOM      8  C   UNL     1       4.730   6.667  17.725  0.00  0.00    +0.000 A 
ATOM      9  C   UNL     1       3.441   6.275  18.181  0.00  0.00    +0.000 A 
ATOM     10  C   UNL     1       3.066   4.915  18.078  0.00  0.00    +0.000 A 
ATOM     11  C   UNL     1       1.784   4.429  18.397  0.00  0.00    +0.000 A 
ATOM     12  C   UNL     1       1.497   3.070  18.365  0.00  0.00    +0.000 A 
ATOM     13  F   UNL     1       0.275   2.652  18.719  0.00  0.00    +0.000 F 
ATOM     14  C   UNL     1       2.453   2.151  17.978  0.00  0.00    +0.000 A 
ATOM     15  C   UNL     1       3.713   2.604  17.592  0.00  0.00    +0.000 A 
ATOM     16  C   UNL     1       4.033   3.972  17.629  0.00  0.00    +0.000 A 
ATOM     17  C   UNL     1       5.314   4.397  17.234  0.00  0.00    +0.000 A 
BRANCH   7  18
ATOM     18  C   UNL     1       7.083   6.177  16.903  0.00  0.00    +0.000 C 
BRANCH  18  20
ATOM     19  O   UNL     1       7.812   8.428  17.306  0.00  0.00    +0.000 OA
ATOM     20  C   UNL     1       7.735   7.275  17.716  0.00  0.00    +0.000 C 
BRANCH  20  21
ATOM     21  O   UNL     1       8.255   6.930  18.910  0.00  0.00    +0.000 OA
ATOM     22  H   UNL     1       8.123   5.989  19.161  0.00  0.00    +0.000 HD
ENDBRANCH  20  21
ENDBRANCH  18  20
ENDBRANCH   7  18
ENDBRANCH   1   9
BRANCH   4  23
ATOM     23  S   UNL     1       0.780  11.115  20.258  0.00  0.00    +0.000 S 
ATOM     24  O   UNL     1       1.063  11.062  21.674  0.00  0.00    +0.000 OA
ATOM     25  O   UNL     1       1.571  11.939  19.365  0.00  0.00    +0.000 OA
BRANCH  23  26
ATOM     26  C   UNL     1      -0.921  11.585  20.089  0.00  0.00    +0.000 A 
ATOM     27  C   UNL     1      -1.542  12.235  21.156  0.00  0.00    +0.000 A 
ATOM     28  C   UNL     1      -2.865  12.647  21.019  0.00  0.00    +0.000 A 
ATOM     29 CL   UNL     1      -3.647  13.443  22.328  0.00  0.00    +0.000 Cl
ATOM     30  C   UNL     1      -3.561  12.426  19.831  0.00  0.00    +0.000 A 
ATOM     31  C   UNL     1      -2.922  11.782  18.772  0.00  0.00    +0.000 A 
ATOM     32 CL   UNL     1      -3.771  11.531  17.296  0.00  0.00    +0.000 Cl
ATOM     33  C   UNL     1      -1.603  11.350  18.891  0.00  0.00    +0.000 A 
ENDBRANCH  23  26
ENDBRANCH   4  23
TORSDOF 6
ENDMDL
MODEL 2
REMARK VINA RESULT:      -9.9      0.091      1.597
REMARK  Name = 
REMARK  6 active torsions:
REMARK  status: ('A' for Active; 'I' for Inactive)
REMARK    1  A    between atoms: C_2  and  O_3
REMARK    2  A    between atoms: C_2  and  C_4
REMARK    3  A    between atoms: C_4  and  C_5
REMARK    4  A    between atoms: C_7  and  C_8
REMARK    5  A    between atoms: N_11  and  S_12
REMARK    6  A    between atoms: S_12  and  C_15
REMARK                            x       y       z     vdW  Elec       q    Type
REMARK                         _______ _______ _______ _____ _____    ______ ____
ROOT
ATOM      1  C   UNL     1       2.601   7.415  18.775  0.00  0.00    +0.000 C 
ATOM      2  C   UNL     1       1.718   8.094  17.733  0.00  0.00    +0.000 C 
ATOM      3  C   UNL     1       1.457   9.509  18.224  0.00  0.00    +0.000 C 
ATOM      4  N   UNL     1       0.839   9.551  19.589  0.00  0.00    +0.000 NA
ATOM      5  C   UNL     1       1.415   8.593  20.604  0.00  0.00    +0.000 C 
ATOM      6  C   UNL     1       1.717   7.212  20.014  0.00  0.00    +0.000 C 
ENDROOT
BRANCH   1   9
ATOM      7  C   UNL     1       5.688   5.740  17.303  0.00  0.00    +0.000 A 
ATOM      8  C   UNL     1       4.743   6.673  17.739  0.00  0.00    +0.000 A 
ATOM      9  C   UNL     1       3.449   6.292  18.193  0.00  0.00    +0.000 A 
ATOM     10  C   UNL     1       3.068   4.934  18.103  0.00  0.00    +0.000 A 
ATOM     11  C   UNL     1       1.782   4.457  18.421  0.00  0.00    +0.000 A 
ATOM     12  C   UNL     1       1.488   3.099  18.403  0.00  0.00    +0.000 A 
ATOM     13  F   UNL     1       0.262   2.691  18.755  0.00  0.00    +0.000 F 
ATOM     14  C   UNL     1       2.442   2.171  18.031  0.00  0.00    +0.000 A 
ATOM     15  C   UNL     1       3.706   2.613  17.647  0.00  0.00    +0.000 A 
ATOM     16  C   UNL     1       4.032   3.981  17.670  0.00  0.00    +0.000 A 
ATOM     17  C   UNL     1       5.318   4.395  17.278  0.00  0.00    +0.000 A 
BRANCH   7  18
ATOM     18  C   UNL     1       7.098   6.162  16.936  0.00  0.00    +0.000 C 
BRANCH  18  20
ATOM     19  O   UNL     1       7.797   8.427  17.312  0.00  0.00    +0.000 OA
ATOM     20  C   UNL     1       7.745   7.276  17.731  0.00  0.00    +0.000 C 
BRANCH  20  21
ATOM     21  O   UNL     1       8.290   6.948  18.918  0.00  0.00    +0.000 OA
ATOM     22  H   UNL     1       9.101   7.450  19.153  0.00  0.00    +0.000 HD
ENDBRANCH  20  21
ENDBRANCH  18  20
ENDBRANCH   7  18
ENDBRANCH   1   9
BRANCH   4  23
ATOM     23  S   UNL     1       0.816  11.164  20.233  0.00  0.00    +0.000 S 
ATOM     24  O   UNL     1       1.062  11.089  21.655  0.00  0.00    +0.000 OA
ATOM     25  O   UNL     1       1.644  11.984  19.370  0.00  0.00    +0.000 OA
BRANCH  23  26
ATOM     26  C   UNL     1      -0.871  11.665  20.027  0.00  0.00    +0.000 A 
ATOM     27  C   UNL     1      -1.504  11.391  18.813  0.00  0.00    +0.000 A 
ATOM     28  C   UNL     1      -2.842  11.742  18.655  0.00  0.00    +0.000 A 
ATOM     29 CL   UNL     1      -3.633  11.420  17.162  0.00  0.00    +0.000 Cl
ATOM     30  C   UNL     1      -3.548  12.348  19.693  0.00  0.00    +0.000 A 
ATOM     31  C   UNL     1      -2.902  12.607  20.902  0.00  0.00    +0.000 A 
ATOM     32 CL   UNL     1      -3.779  13.331  22.193  0.00  0.00    +0.000 Cl
ATOM     33  C   UNL     1      -1.560  12.276  21.078  0.00  0.00    +0.000 A 
ENDBRANCH  23  26
ENDBRANCH   4  23
TORSDOF 6
ENDMDL
MODEL 3
REMARK VINA RESULT:      -9.7      2.407      3.010
REMARK  Name = 
REMARK  6 active torsions:
REMARK  status: ('A' for Active; 'I' for Inactive)
REMARK    1  A    between atoms: C_2  and  O_3
REMARK    2  A    between atoms: C_2  and  C_4
REMARK    3  A    between atoms: C_4  and  C_5
REMARK    4  A    between atoms: C_7  and  C_8
REMARK    5  A    between atoms: N_11  and  S_12
REMARK    6  A    between atoms: S_12  and  C_15
REMARK                            x       y       z     vdW  Elec       q    Type
REMARK                         _______ _______ _______ _____ _____    ______ ____
ROOT
ATOM      1  C   UNL     1       2.499   7.019  18.292  0.00  0.00    +0.000 C 
ATOM      2  C   UNL     1       2.743   7.252  19.779  0.00  0.00    +0.000 C 
ATOM      3  C   UNL     1       1.549   8.025  20.313  0.00  0.00    +0.000 C 
ATOM      4  N   UNL     1       1.310   9.312  19.581  0.00  0.00    +0.000 NA
ATOM      5  C   UNL     1       1.444   9.251  18.079  0.00  0.00    +0.000 C 
ATOM      6  C   UNL     1       2.628   8.394  17.621  0.00  0.00    +0.000 C 
ENDROOT
BRANCH   1   9
ATOM      7  C   UNL     1       5.277   5.007  16.639  0.00  0.00    +0.000 A 
ATOM      8  C   UNL     1       4.436   6.036  17.072  0.00  0.00    +0.000 A 
ATOM      9  C   UNL     1       3.215   5.787  17.758  0.00  0.00    +0.000 A 
ATOM     10  C   UNL     1       2.785   4.449  17.918  0.00  0.00    +0.000 A 
ATOM     11  C   UNL     1       1.547   4.086  18.483  0.00  0.00    +0.000 A 
ATOM     12  C   UNL     1       1.214   2.755  18.700  0.00  0.00    +0.000 A 
ATOM     13  F   UNL     1       0.043   2.461  19.280  0.00  0.00    +0.000 F 
ATOM     14  C   UNL     1       2.072   1.738  18.329  0.00  0.00    +0.000 A 
ATOM     15  C   UNL     1       3.277   2.059  17.707  0.00  0.00    +0.000 A 
ATOM     16  C   UNL     1       3.644   3.399  17.488  0.00  0.00    +0.000 A 
ATOM     17  C   UNL     1       4.867   3.690  16.859  0.00  0.00    +0.000 A 
BRANCH   7  18
ATOM     18  C   UNL     1       6.627   5.302  16.016  0.00  0.00    +0.000 C 
BRANCH  18  20
ATOM     19  O   UNL     1       6.198   4.016  14.036  0.00  0.00    +0.000 OA
ATOM     20  C   UNL     1       6.860   4.895  14.577  0.00  0.00    +0.000 C 
BRANCH  20  21
ATOM     21  O   UNL     1       7.849   5.523  13.912  0.00  0.00    +0.000 OA
ATOM     22  H   UNL     1       8.748   5.163  14.074  0.00  0.00    +0.000 HD
ENDBRANCH  20  21
ENDBRANCH  18  20
ENDBRANCH   7  18
ENDBRANCH   1   9
BRANCH   4  23
ATOM     23  S   UNL     1      -0.211  10.026  20.019  0.00  0.00    +0.000 S 
ATOM     24  O   UNL     1      -0.997  10.194  18.818  0.00  0.00    +0.000 OA
ATOM     25  O   UNL     1      -0.724   9.284  21.155  0.00  0.00    +0.000 OA
BRANCH  23  26
ATOM     26  C   UNL     1       0.241  11.649  20.572  0.00  0.00    +0.000 A 
ATOM     27  C   UNL     1      -0.497  12.231  21.603  0.00  0.00    +0.000 A 
ATOM     28  C   UNL     1      -0.125  13.487  22.075  0.00  0.00    +0.000 A 
ATOM     29 CL   UNL     1      -1.030  14.221  23.340  0.00  0.00    +0.000 Cl
ATOM     30  C   UNL     1       0.974  14.154  21.536  0.00  0.00    +0.000 A 
ATOM     31  C   UNL     1       1.705  13.554  20.511  0.00  0.00    +0.000 A 
ATOM     32 CL   UNL     1       3.077  14.364  19.862  0.00  0.00    +0.000 Cl
ATOM     33  C   UNL     1       1.343  12.303  20.015  0.00  0.00    +0.000 A 
ENDBRANCH  23  26
ENDBRANCH   4  23
TORSDOF 6
ENDMDL
MODEL 4
REMARK VINA RESULT:      -9.6      2.193      2.776
REMARK  Name = 
REMARK  6 active torsions:
REMARK  status: ('A' for Active; 'I' for Inactive)
REMARK    1  A    between atoms: C_2  and  O_3
REMARK    2  A    between atoms: C_2  and  C_4
REMARK    3  A    between atoms: C_4  and  C_5
REMARK    4  A    between atoms: C_7  and  C_8
REMARK    5  A    between atoms: N_11  and  S_12
REMARK    6  A    between atoms: S_12  and  C_15
REMARK                            x       y       z     vdW  Elec       q    Type
REMARK                         _______ _______ _______ _____ _____    ______ ____
ROOT
ATOM      1  C   UNL     1       2.262   7.059  18.430  0.00  0.00    +0.000 C 
ATOM      2  C   UNL     1       2.579   7.246  19.910  0.00  0.00    +0.000 C 
ATOM      3  C   UNL     1       1.443   8.056  20.512  0.00  0.00    +0.000 C 
ATOM      4  N   UNL     1       1.229   9.369  19.819  0.00  0.00    +0.000 NA
ATOM      5  C   UNL     1       1.296   9.338  18.311  0.00  0.00    +0.000 C 
ATOM      6  C   UNL     1       2.422   8.444  17.784  0.00  0.00    +0.000 C 
ENDROOT
BRANCH   1   9
ATOM      7  C   UNL     1       4.797   4.995  16.477  0.00  0.00    +0.000 A 
ATOM      8  C   UNL     1       4.021   6.038  16.990  0.00  0.00    +0.000 A 
ATOM      9  C   UNL     1       2.902   5.811  17.838  0.00  0.00    +0.000 A 
ATOM     10  C   UNL     1       2.497   4.480  18.091  0.00  0.00    +0.000 A 
ATOM     11  C   UNL     1       1.346   4.135  18.825  0.00  0.00    +0.000 A 
ATOM     12  C   UNL     1       1.045   2.812  19.120  0.00  0.00    +0.000 A 
ATOM     13  F   UNL     1      -0.037   2.537  19.859  0.00  0.00    +0.000 F 
ATOM     14  C   UNL     1       1.847   1.783  18.666  0.00  0.00    +0.000 A 
ATOM     15  C   UNL     1       2.958   2.083  17.880  0.00  0.00    +0.000 A 
ATOM     16  C   UNL     1       3.292   3.415  17.579  0.00  0.00    +0.000 A 
ATOM     17  C   UNL     1       4.420   3.686  16.785  0.00  0.00    +0.000 A 
BRANCH   7  18
ATOM     18  C   UNL     1       6.052   5.270  15.672  0.00  0.00    +0.000 C 
BRANCH  18  20
ATOM     19  O   UNL     1       7.750   6.710  16.568  0.00  0.00    +0.000 OA
ATOM     20  C   UNL     1       7.335   5.566  16.419  0.00  0.00    +0.000 C 
BRANCH  20  21
ATOM     21  O   UNL     1       8.025   4.513  16.899  0.00  0.00    +0.000 OA
ATOM     22  H   UNL     1       7.610   4.065  17.669  0.00  0.00    +0.000 HD
ENDBRANCH  20  21
ENDBRANCH  18  20
ENDBRANCH   7  18
ENDBRANCH   1   9
BRANCH   4  23
ATOM     23  S   UNL     1      -0.240  10.136  20.338  0.00  0.00    +0.000 S 
ATOM     24  O   UNL     1      -1.116  10.261  19.195  0.00  0.00    +0.000 OA
ATOM     25  O   UNL     1      -0.674   9.463  21.547  0.00  0.00    +0.000 OA
BRANCH  23  26
ATOM     26  C   UNL     1       0.282  11.774  20.770  0.00  0.00    +0.000 A 
ATOM     27  C   UNL     1      -0.439  12.468  21.742  0.00  0.00    +0.000 A 
ATOM     28  C   UNL     1      -0.014  13.739  22.120  0.00  0.00    +0.000 A 
ATOM     29 CL   UNL     1      -0.896  14.611  23.311  0.00  0.00    +0.000 Cl
ATOM     30  C   UNL     1       1.122  14.310  21.547  0.00  0.00    +0.000 A 
ATOM     31  C   UNL     1       1.835  13.599  20.582  0.00  0.00    +0.000 A 
ATOM     32 CL   UNL     1       3.251  14.292  19.893  0.00  0.00    +0.000 Cl
ATOM     33  C   UNL     1       1.420  12.331  20.180  0.00  0.00    +0.000 A 
ENDBRANCH  23  26
ENDBRANCH   4  23
TORSDOF 6
ENDMDL
MODEL 5
REMARK VINA RESULT:      -9.6      2.194      3.019
REMARK  Name = 
REMARK  6 active torsions:
REMARK  status: ('A' for Active; 'I' for Inactive)
REMARK    1  A    between atoms: C_2  and  O_3
REMARK    2  A    between atoms: C_2  and  C_4
REMARK    3  A    between atoms: C_4  and  C_5
REMARK    4  A    between atoms: C_7  and  C_8
REMARK    5  A    between atoms: N_11  and  S_12
REMARK    6  A    between atoms: S_12  and  C_15
REMARK                            x       y       z     vdW  Elec       q    Type
REMARK                         _______ _______ _______ _____ _____    ______ ____
ROOT
ATOM      1  C   UNL     1       2.263   7.073  18.446  0.00  0.00    +0.000 C 
ATOM      2  C   UNL     1       2.580   7.239  19.929  0.00  0.00    +0.000 C 
ATOM      3  C   UNL     1       1.438   8.031  20.544  0.00  0.00    +0.000 C 
ATOM      4  N   UNL     1       1.214   9.353  19.873  0.00  0.00    +0.000 NA
ATOM      5  C   UNL     1       1.279   9.346  18.364  0.00  0.00    +0.000 C 
ATOM      6  C   UNL     1       2.411   8.469  17.822  0.00  0.00    +0.000 C 
ENDROOT
BRANCH   1   9
ATOM      7  C   UNL     1       4.815   5.058  16.465  0.00  0.00    +0.000 A 
ATOM      8  C   UNL     1       4.032   6.088  16.994  0.00  0.00    +0.000 A 
ATOM      9  C   UNL     1       2.911   5.839  17.834  0.00  0.00    +0.000 A 
ATOM     10  C   UNL     1       2.513   4.501  18.061  0.00  0.00    +0.000 A 
ATOM     11  C   UNL     1       1.361   4.137  18.784  0.00  0.00    +0.000 A 
ATOM     12  C   UNL     1       1.066   2.807  19.054  0.00  0.00    +0.000 A 
ATOM     13  F   UNL     1      -0.017   2.513  19.784  0.00  0.00    +0.000 F 
ATOM     14  C   UNL     1       1.876   1.791  18.584  0.00  0.00    +0.000 A 
ATOM     15  C   UNL     1       2.988   2.112  17.808  0.00  0.00    +0.000 A 
ATOM     16  C   UNL     1       3.315   3.451  17.532  0.00  0.00    +0.000 A 
ATOM     17  C   UNL     1       4.445   3.742  16.748  0.00  0.00    +0.000 A 
BRANCH   7  18
ATOM     18  C   UNL     1       6.072   5.354  15.670  0.00  0.00    +0.000 C 
BRANCH  18  20
ATOM     19  O   UNL     1       7.778   6.764  16.597  0.00  0.00    +0.000 OA
ATOM     20  C   UNL     1       7.354   5.627  16.426  0.00  0.00    +0.000 C 
BRANCH  20  21
ATOM     21  O   UNL     1       8.034   4.560  16.889  0.00  0.00    +0.000 OA
ATOM     22  H   UNL     1       8.454   4.688  17.768  0.00  0.00    +0.000 HD
ENDBRANCH  20  21
ENDBRANCH  18  20
ENDBRANCH   7  18
ENDBRANCH   1   9
BRANCH   4  23
ATOM     23  S   UNL     1      -0.260  10.100  20.405  0.00  0.00    +0.000 S 
ATOM     24  O   UNL     1      -1.121  10.275  19.258  0.00  0.00    +0.000 OA
ATOM     25  O   UNL     1      -0.710   9.377  21.579  0.00  0.00    +0.000 OA
BRANCH  23  26
ATOM     26  C   UNL     1       0.259  11.717  20.913  0.00  0.00    +0.000 A 
ATOM     27  C   UNL     1       1.386  12.275  20.309  0.00  0.00    +0.000 A 
ATOM     28  C   UNL     1       1.779  13.562  20.669  0.00  0.00    +0.000 A 
ATOM     29 CL   UNL     1       3.171  14.260  19.940  0.00  0.00    +0.000 Cl
ATOM     30  C   UNL     1       1.053  14.291  21.610  0.00  0.00    +0.000 A 
ATOM     31  C   UNL     1      -0.076  13.721  22.197  0.00  0.00    +0.000 A 
ATOM     32 CL   UNL     1      -0.987  14.629  23.340  0.00  0.00    +0.000 Cl
ATOM     33  C   UNL     1      -0.479  12.430  21.862  0.00  0.00    +0.000 A 
ENDBRANCH  23  26
ENDBRANCH   4  23
TORSDOF 6
ENDMDL
MODEL 6
REMARK VINA RESULT:      -9.6      2.417      3.261
REMARK  Name = 
REMARK  6 active torsions:
REMARK  status: ('A' for Active; 'I' for Inactive)
REMARK    1  A    between atoms: C_2  and  O_3
REMARK    2  A    between atoms: C_2  and  C_4
REMARK    3  A    between atoms: C_4  and  C_5
REMARK    4  A    between atoms: C_7  and  C_8
REMARK    5  A    between atoms: N_11  and  S_12
REMARK    6  A    between atoms: S_12  and  C_15
REMARK                            x       y       z     vdW  Elec       q    Type
REMARK                         _______ _______ _______ _____ _____    ______ ____
ROOT
ATOM      1  C   UNL     1       2.550   7.006  18.262  0.00  0.00    +0.000 C 
ATOM      2  C   UNL     1       2.712   7.223  19.764  0.00  0.00    +0.000 C 
ATOM      3  C   UNL     1       1.516   8.038  20.229  0.00  0.00    +0.000 C 
ATOM      4  N   UNL     1       1.369   9.336  19.492  0.00  0.00    +0.000 NA
ATOM      5  C   UNL     1       1.592   9.276  18.000  0.00  0.00    +0.000 C 
ATOM      6  C   UNL     1       2.770   8.379  17.609  0.00  0.00    +0.000 C 
ENDROOT
BRANCH   1   9
ATOM      7  C   UNL     1       5.312   4.914  16.683  0.00  0.00    +0.000 A 
ATOM      8  C   UNL     1       4.483   5.966  17.083  0.00  0.00    +0.000 A 
ATOM      9  C   UNL     1       3.253   5.751  17.765  0.00  0.00    +0.000 A 
ATOM     10  C   UNL     1       2.803   4.424  17.956  0.00  0.00    +0.000 A 
ATOM     11  C   UNL     1       1.556   4.093  18.520  0.00  0.00    +0.000 A 
ATOM     12  C   UNL     1       1.202   2.773  18.768  0.00  0.00    +0.000 A 
ATOM     13  F   UNL     1       0.023   2.509  19.347  0.00  0.00    +0.000 F 
ATOM     14  C   UNL     1       2.049   1.735  18.429  0.00  0.00    +0.000 A 
ATOM     15  C   UNL     1       3.262   2.023  17.808  0.00  0.00    +0.000 A 
ATOM     16  C   UNL     1       3.650   3.351  17.559  0.00  0.00    +0.000 A 
ATOM     17  C   UNL     1       4.881   3.610  16.932  0.00  0.00    +0.000 A 
BRANCH   7  18
ATOM     18  C   UNL     1       6.671   5.175  16.062  0.00  0.00    +0.000 C 
BRANCH  18  20
ATOM     19  O   UNL     1       6.157   4.068  13.996  0.00  0.00    +0.000 OA
ATOM     20  C   UNL     1       6.857   4.881  14.590  0.00  0.00    +0.000 C 
BRANCH  20  21
ATOM     21  O   UNL     1       7.849   5.534  13.953  0.00  0.00    +0.000 OA
ATOM     22  H   UNL     1       8.059   5.192  13.056  0.00  0.00    +0.000 HD
ENDBRANCH  20  21
ENDBRANCH  18  20
ENDBRANCH   7  18
ENDBRANCH   1   9
BRANCH   4  23
ATOM     23  S   UNL     1      -0.149  10.103  19.841  0.00  0.00    +0.000 S 
ATOM     24  O   UNL     1      -0.820  10.373  18.590  0.00  0.00    +0.000 OA
ATOM     25  O   UNL     1      -0.792   9.330  20.887  0.00  0.00    +0.000 OA
BRANCH  23  26
ATOM     26  C   UNL     1       0.328  11.669  20.520  0.00  0.00    +0.000 A 
ATOM     27  C   UNL     1       1.422  12.332  19.962  0.00  0.00    +0.000 A 
ATOM     28  C   UNL     1       1.781  13.582  20.459  0.00  0.00    +0.000 A 
ATOM     29 CL   UNL     1       3.131  14.408  19.787  0.00  0.00    +0.000 Cl
ATOM     30  C   UNL     1       1.054  14.173  21.491  0.00  0.00    +0.000 A 
ATOM     31  C   UNL     1      -0.041  13.500  22.032  0.00  0.00    +0.000 A 
ATOM     32 CL   UNL     1      -0.954  14.240  23.290  0.00  0.00    +0.000 Cl
ATOM     33  C   UNL     1      -0.410  12.243  21.559  0.00  0.00    +0.000 A 
ENDBRANCH  23  26
ENDBRANCH   4  23
TORSDOF 6
ENDMDL
MODEL 7
REMARK VINA RESULT:      -9.4      2.575      3.214
REMARK  Name = 
REMARK  6 active torsions:
REMARK  status: ('A' for Active; 'I' for Inactive)
REMARK    1  A    between atoms: C_2  and  O_3
REMARK    2  A    between atoms: C_2  and  C_4
REMARK    3  A    between atoms: C_4  and  C_5
REMARK    4  A    between atoms: C_7  and  C_8
REMARK    5  A    between atoms: N_11  and  S_12
REMARK    6  A    between atoms: S_12  and  C_15
REMARK                            x       y       z     vdW  Elec       q    Type
REMARK                         _______ _______ _______ _____ _____    ______ ____
ROOT
ATOM      1  C   UNL     1       2.574   7.024  18.166  0.00  0.00    +0.000 C 
ATOM      2  C   UNL     1       2.656   7.276  19.668  0.00  0.00    +0.000 C 
ATOM      3  C   UNL     1       1.460   8.136  20.043  0.00  0.00    +0.000 C 
ATOM      4  N   UNL     1       1.394   9.418  19.266  0.00  0.00    +0.000 NA
ATOM      5  C   UNL     1       1.699   9.312  17.791  0.00  0.00    +0.000 C 
ATOM      6  C   UNL     1       2.871   8.372  17.492  0.00  0.00    +0.000 C 
ENDROOT
BRANCH   1   9
ATOM      7  C   UNL     1       5.330   4.820  16.735  0.00  0.00    +0.000 A 
ATOM      8  C   UNL     1       4.510   5.901  17.070  0.00  0.00    +0.000 A 
ATOM      9  C   UNL     1       3.266   5.736  17.741  0.00  0.00    +0.000 A 
ATOM     10  C   UNL     1       2.794   4.427  17.988  0.00  0.00    +0.000 A 
ATOM     11  C   UNL     1       1.534   4.140  18.547  0.00  0.00    +0.000 A 
ATOM     12  C   UNL     1       1.157   2.838  18.853  0.00  0.00    +0.000 A 
ATOM     13  F   UNL     1      -0.035   2.620  19.424  0.00  0.00    +0.000 F 
ATOM     14  C   UNL     1       1.994   1.774  18.579  0.00  0.00    +0.000 A 
ATOM     15  C   UNL     1       3.221   2.015  17.965  0.00  0.00    +0.000 A 
ATOM     16  C   UNL     1       3.631   3.324  17.658  0.00  0.00    +0.000 A 
ATOM     17  C   UNL     1       4.877   3.535  17.040  0.00  0.00    +0.000 A 
BRANCH   7  18
ATOM     18  C   UNL     1       6.702   5.032  16.126  0.00  0.00    +0.000 C 
BRANCH  18  20
ATOM     19  O   UNL     1       6.177   4.029  14.010  0.00  0.00    +0.000 OA
ATOM     20  C   UNL     1       6.866   4.826  14.635  0.00  0.00    +0.000 C 
BRANCH  20  21
ATOM     21  O   UNL     1       7.827   5.542  14.018  0.00  0.00    +0.000 OA
ATOM     22  H   UNL     1       7.968   6.443  14.382  0.00  0.00    +0.000 HD
ENDBRANCH  20  21
ENDBRANCH  18  20
ENDBRANCH   7  18
ENDBRANCH   1   9
BRANCH   4  23
ATOM     23  S   UNL     1      -0.118  10.236  19.508  0.00  0.00    +0.000 S 
ATOM     24  O   UNL     1      -0.957   9.989  18.358  0.00  0.00    +0.000 OA
ATOM     25  O   UNL     1      -0.570   9.920  20.849  0.00  0.00    +0.000 OA
BRANCH  23  26
ATOM     26  C   UNL     1       0.331  11.950  19.461  0.00  0.00    +0.000 A 
ATOM     27  C   UNL     1       1.600  12.294  18.995  0.00  0.00    +0.000 A 
ATOM     28  C   UNL     1       1.948  13.640  18.915  0.00  0.00    +0.000 A 
ATOM     29 CL   UNL     1       3.512  14.080  18.350  0.00  0.00    +0.000 Cl
ATOM     30  C   UNL     1       1.042  14.634  19.282  0.00  0.00    +0.000 A 
ATOM     31  C   UNL     1      -0.225  14.272  19.738  0.00  0.00    +0.000 A 
ATOM     32 CL   UNL     1      -1.353  15.499  20.167  0.00  0.00    +0.000 Cl
ATOM     33  C   UNL     1      -0.590  12.932  19.839  0.00  0.00    +0.000 A 
ENDBRANCH  23  26
ENDBRANCH   4  23
TORSDOF 6
ENDMDL
MODEL 8
REMARK VINA RESULT:      -9.4      1.111      1.181
REMARK  Name = 
REMARK  6 active torsions:
REMARK  status: ('A' for Active; 'I' for Inactive)
REMARK    1  A    between atoms: C_2  and  O_3
REMARK    2  A    between atoms: C_2  and  C_4
REMARK    3  A    between atoms: C_4  and  C_5
REMARK    4  A    between atoms: C_7  and  C_8
REMARK    5  A    between atoms: N_11  and  S_12
REMARK    6  A    between atoms: S_12  and  C_15
REMARK                            x       y       z     vdW  Elec       q    Type
REMARK                         _______ _______ _______ _____ _____    ______ ____
ROOT
ATOM      1  C   UNL     1       2.359   7.397  18.883  0.00  0.00    +0.000 C 
ATOM      2  C   UNL     1       1.446   8.093  17.879  0.00  0.00    +0.000 C 
ATOM      3  C   UNL     1       1.259   9.523  18.361  0.00  0.00    +0.000 C 
ATOM      4  N   UNL     1       0.715   9.604  19.757  0.00  0.00    +0.000 NA
ATOM      5  C   UNL     1       1.311   8.640  20.754  0.00  0.00    +0.000 C 
ATOM      6  C   UNL     1       1.535   7.242  20.170  0.00  0.00    +0.000 C 
ENDROOT
BRANCH   1   9
ATOM      7  C   UNL     1       5.261   5.626  17.168  0.00  0.00    +0.000 A 
ATOM      8  C   UNL     1       4.369   6.586  17.655  0.00  0.00    +0.000 A 
ATOM      9  C   UNL     1       3.137   6.239  18.275  0.00  0.00    +0.000 A 
ATOM     10  C   UNL     1       2.752   4.879  18.310  0.00  0.00    +0.000 A 
ATOM     11  C   UNL     1       1.511   4.428  18.801  0.00  0.00    +0.000 A 
ATOM     12  C   UNL     1       1.221   3.073  18.896  0.00  0.00    +0.000 A 
ATOM     13  F   UNL     1       0.045   2.691  19.410  0.00  0.00    +0.000 F 
ATOM     14  C   UNL     1       2.128   2.120  18.473  0.00  0.00    +0.000 A 
ATOM     15  C   UNL     1       3.339   2.533  17.921  0.00  0.00    +0.000 A 
ATOM     16  C   UNL     1       3.662   3.898  17.826  0.00  0.00    +0.000 A 
ATOM     17  C   UNL     1       4.893   4.283  17.265  0.00  0.00    +0.000 A 
BRANCH   7  18
ATOM     18  C   UNL     1       6.618   6.019  16.618  0.00  0.00    +0.000 C 
BRANCH  18  20
ATOM     19  O   UNL     1       7.620   4.767  14.833  0.00  0.00    +0.000 OA
ATOM     20  C   UNL     1       7.501   4.934  16.041  0.00  0.00    +0.000 C 
BRANCH  20  21
ATOM     21  O   UNL     1       8.141   4.132  16.915  0.00  0.00    +0.000 OA
ATOM     22  H   UNL     1       8.380   4.558  17.767  0.00  0.00    +0.000 HD
ENDBRANCH  20  21
ENDBRANCH  18  20
ENDBRANCH   7  18
ENDBRANCH   1   9
BRANCH   4  23
ATOM     23  S   UNL     1       0.780  11.224  20.377  0.00  0.00    +0.000 S 
ATOM     24  O   UNL     1       1.141  11.162  21.775  0.00  0.00    +0.000 OA
ATOM     25  O   UNL     1       1.551  12.015  19.436  0.00  0.00    +0.000 OA
BRANCH  23  26
ATOM     26  C   UNL     1      -0.907  11.761  20.303  0.00  0.00    +0.000 A 
ATOM     27  C   UNL     1      -1.412  12.520  21.359  0.00  0.00    +0.000 A 
ATOM     28  C   UNL     1      -2.724  12.983  21.292  0.00  0.00    +0.000 A 
ATOM     29 CL   UNL     1      -3.363  13.913  22.590  0.00  0.00    +0.000 Cl
ATOM     30  C   UNL     1      -3.522  12.705  20.184  0.00  0.00    +0.000 A 
ATOM     31  C   UNL     1      -2.999  11.951  19.134  0.00  0.00    +0.000 A 
ATOM     32 CL   UNL     1      -3.975  11.629  17.754  0.00  0.00    +0.000 Cl
ATOM     33  C   UNL     1      -1.693  11.467  19.185  0.00  0.00    +0.000 A 
ENDBRANCH  23  26
ENDBRANCH   4  23
TORSDOF 6
ENDMDL
MODEL 9
REMARK VINA RESULT:      -9.4      1.078      1.959
REMARK  Name = 
REMARK  6 active torsions:
REMARK  status: ('A' for Active; 'I' for Inactive)
REMARK    1  A    between atoms: C_2  and  O_3
REMARK    2  A    between atoms: C_2  and  C_4
REMARK    3  A    between atoms: C_4  and  C_5
REMARK    4  A    between atoms: C_7  and  C_8
REMARK    5  A    between atoms: N_11  and  S_12
REMARK    6  A    between atoms: S_12  and  C_15
REMARK                            x       y       z     vdW  Elec       q    Type
REMARK                         _______ _______ _______ _____ _____    ______ ____
ROOT
ATOM      1  C   UNL     1       2.351   7.439  18.888  0.00  0.00    +0.000 C 
ATOM      2  C   UNL     1       1.442   8.162  17.898  0.00  0.00    +0.000 C 
ATOM      3  C   UNL     1       1.236   9.572  18.428  0.00  0.00    +0.000 C 
ATOM      4  N   UNL     1       0.677   9.599  19.819  0.00  0.00    +0.000 NA
ATOM      5  C   UNL     1       1.272   8.607  20.789  0.00  0.00    +0.000 C 
ATOM      6  C   UNL     1       1.514   7.232  20.159  0.00  0.00    +0.000 C 
ENDROOT
BRANCH   1   9
ATOM      7  C   UNL     1       5.283   5.756  17.137  0.00  0.00    +0.000 A 
ATOM      8  C   UNL     1       4.378   6.690  17.648  0.00  0.00    +0.000 A 
ATOM      9  C   UNL     1       3.146   6.310  18.248  0.00  0.00    +0.000 A 
ATOM     10  C   UNL     1       2.775   4.945  18.236  0.00  0.00    +0.000 A 
ATOM     11  C   UNL     1       1.536   4.465  18.703  0.00  0.00    +0.000 A 
ATOM     12  C   UNL     1       1.260   3.105  18.753  0.00  0.00    +0.000 A 
ATOM     13  F   UNL     1       0.085   2.694  19.245  0.00  0.00    +0.000 F 
ATOM     14  C   UNL     1       2.180   2.176  18.306  0.00  0.00    +0.000 A 
ATOM     15  C   UNL     1       3.390   2.620  17.776  0.00  0.00    +0.000 A 
ATOM     16  C   UNL     1       3.699   3.990  17.727  0.00  0.00    +0.000 A 
ATOM     17  C   UNL     1       4.930   4.406  17.188  0.00  0.00    +0.000 A 
BRANCH   7  18
ATOM     18  C   UNL     1       6.640   6.181  16.610  0.00  0.00    +0.000 C 
BRANCH  18  20
ATOM     19  O   UNL     1       7.616   5.151  14.674  0.00  0.00    +0.000 OA
ATOM     20  C   UNL     1       7.487   5.152  15.894  0.00  0.00    +0.000 C 
BRANCH  20  21
ATOM     21  O   UNL     1       8.083   4.210  16.651  0.00  0.00    +0.000 OA
ATOM     22  H   UNL     1       8.741   3.656  16.178  0.00  0.00    +0.000 HD
ENDBRANCH  20  21
ENDBRANCH  18  20
ENDBRANCH   7  18
ENDBRANCH   1   9
BRANCH   4  23
ATOM     23  S   UNL     1       0.721  11.198  20.495  0.00  0.00    +0.000 S 
ATOM     24  O   UNL     1       0.985  11.085  21.912  0.00  0.00    +0.000 OA
ATOM     25  O   UNL     1       1.565  12.007  19.637  0.00  0.00    +0.000 OA
BRANCH  23  26
ATOM     26  C   UNL     1      -0.950  11.763  20.324  0.00  0.00    +0.000 A 
ATOM     27  C   UNL     1      -1.638  11.463  19.148  0.00  0.00    +0.000 A 
ATOM     28  C   UNL     1      -2.965  11.865  19.019  0.00  0.00    +0.000 A 
ATOM     29 CL   UNL     1      -3.823  11.510  17.572  0.00  0.00    +0.000 Cl
ATOM     30  C   UNL     1      -3.606  12.547  20.053  0.00  0.00    +0.000 A 
ATOM     31  C   UNL     1      -2.906  12.831  21.225  0.00  0.00    +0.000 A 
ATOM     32 CL   UNL     1      -3.704  13.650  22.511  0.00  0.00    +0.000 Cl
ATOM     33  C   UNL     1      -1.574  12.450  21.370  0.00  0.00    +0.000 A 
ENDBRANCH  23  26
ENDBRANCH   4  23
TORSDOF 6
ENDMDL
