MODEL 1
REMARK VINA RESULT:      -8.4      0.000      0.000
REMARK  Name = 
REMARK  9 active torsions:
REMARK  status: ('A' for Active; 'I' for Inactive)
REMARK    1  A    between atoms: C_1  and  O_2
REMARK    2  A    between atoms: O_2  and  C_3
REMARK    3  A    between atoms: C_6  and  C_7
REMARK    4  A    between atoms: C_10  and  O_11
REMARK    5  A    between atoms: C_12  and  C_13
REMARK    6  A    between atoms: N_15  and  C_16
REMARK    7  A    between atoms: C_19  and  C_20
REMARK    8  A    between atoms: C_20  and  N_21
REMARK    9  A    between atoms: N_24  and  C_25
REMARK                            x       y       z     vdW  Elec       q    Type
REMARK                         _______ _______ _______ _____ _____    ______ ____
ROOT
ATOM      1  C   UNL     1       1.953   6.291  20.155  0.00  0.00    +0.000 C 
ATOM      2  O   UNL     1       1.028   5.964  20.893  0.00  0.00    +0.000 OA
ATOM      3  N   UNL     1       2.196   7.567  19.688  0.00  0.00    +0.000 N 
ATOM      4  H   UNL     1       2.926   7.672  18.987  0.00  0.00    +0.000 HD
ENDROOT
BRANCH   1   9
ATOM      5  C   UNL     1       4.562   4.502  18.077  0.00  0.00    +0.000 A 
ATOM      6  C   UNL     1       4.553   3.278  18.753  0.00  0.00    +0.000 A 
ATOM      7  N   UNL     1       3.763   2.973  19.812  0.00  0.00    +0.000 NA
ATOM      8  C   UNL     1       2.944   3.949  20.238  0.00  0.00    +0.000 A 
ATOM      9  C   UNL     1       2.858   5.212  19.683  0.00  0.00    +0.000 A 
ATOM     10  C   UNL     1       3.685   5.474  18.579  0.00  0.00    +0.000 A 
BRANCH   5  14
ATOM     11  C   UNL     1       7.095   5.208  14.751  0.00  0.00    +0.000 A 
ATOM     12  C   UNL     1       5.972   4.426  14.548  0.00  0.00    +0.000 A 
ATOM     13  C   UNL     1       5.117   4.201  15.630  0.00  0.00    +0.000 A 
ATOM     14  C   UNL     1       5.401   4.746  16.892  0.00  0.00    +0.000 A 
ATOM     15  C   UNL     1       6.563   5.519  16.964  0.00  0.00    +0.000 A 
ATOM     16  N   UNL     1       7.403   5.770  15.936  0.00  0.00    +0.000 NA
BRANCH  11  18
ATOM     17  C   UNL     1       7.469   4.727  12.501  0.00  0.00    +0.000 C 
ATOM     18  O   UNL     1       7.933   5.393  13.672  0.00  0.00    +0.000 OA
ENDBRANCH  11  18
ENDBRANCH   5  14
BRANCH   8  19
ATOM     19  O   UNL     1       2.191   3.547  21.293  0.00  0.00    +0.000 OA
ATOM     20  H   UNL     1       1.419   3.190  20.811  0.00  0.00    +0.000 HD
ENDBRANCH   8  19
ENDBRANCH   1   9
BRANCH   3  21
ATOM     21  C   UNL     1       1.475   8.727  20.029  0.00  0.00    +0.000 A 
ATOM     22  C   UNL     1       1.131   9.052  21.342  0.00  0.00    +0.000 A 
ATOM     23  C   UNL     1       0.405  10.209  21.625  0.00  0.00    +0.000 A 
ATOM     24  C   UNL     1      -0.008  11.055  20.592  0.00  0.00    +0.000 A 
ATOM     25  C   UNL     1       0.345  10.734  19.273  0.00  0.00    +0.000 A 
ATOM     26  C   UNL     1       1.101   9.592  18.997  0.00  0.00    +0.000 A 
BRANCH  24  27
ATOM     27  C   UNL     1      -0.776  12.320  20.906  0.00  0.00    +0.000 C 
BRANCH  27  28
ATOM     28  N   UNL     1      -2.048  12.078  21.603  0.00  0.00    +0.000 NA
ATOM     29  C   UNL     1      -3.143  12.799  20.926  0.00  0.00    +0.000 C 
ATOM     30  C   UNL     1      -4.502  12.643  21.649  0.00  0.00    +0.000 C 
ATOM     31  N   UNL     1      -4.493  12.988  23.084  0.00  0.00    +0.000 NA
ATOM     32  C   UNL     1      -4.429  14.432  23.297  0.00  0.00    +0.000 C 
ATOM     33  C   UNL     1      -3.365  12.294  23.733  0.00  0.00    +0.000 C 
ATOM     34  C   UNL     1      -2.002  12.468  23.026  0.00  0.00    +0.000 C 
ENDBRANCH  27  28
ENDBRANCH  24  27
ENDBRANCH   3  21
TORSDOF 7
ENDMDL
MODEL 2
REMARK VINA RESULT:      -8.3      1.197      1.645
REMARK  Name = 
REMARK  9 active torsions:
REMARK  status: ('A' for Active; 'I' for Inactive)
REMARK    1  A    between atoms: C_1  and  O_2
REMARK    2  A    between atoms: O_2  and  C_3
REMARK    3  A    between atoms: C_6  and  C_7
REMARK    4  A    between atoms: C_10  and  O_11
REMARK    5  A    between atoms: C_12  and  C_13
REMARK    6  A    between atoms: N_15  and  C_16
REMARK    7  A    between atoms: C_19  and  C_20
REMARK    8  A    between atoms: C_20  and  N_21
REMARK    9  A    between atoms: N_24  and  C_25
REMARK                            x       y       z     vdW  Elec       q    Type
REMARK                         _______ _______ _______ _____ _____    ______ ____
ROOT
ATOM      1  C   UNL     1       2.152   7.745  19.529  0.00  0.00    +0.000 C 
ATOM      2  O   UNL     1       2.176   8.606  18.654  0.00  0.00    +0.000 OA
ATOM      3  N   UNL     1       1.559   7.875  20.768  0.00  0.00    +0.000 N 
ATOM      4  H   UNL     1       1.719   7.127  21.439  0.00  0.00    +0.000 HD
ENDROOT
BRANCH   1   9
ATOM      5  C   UNL     1       4.366   5.230  17.768  0.00  0.00    +0.000 A 
ATOM      6  C   UNL     1       4.213   4.167  18.662  0.00  0.00    +0.000 A 
ATOM      7  N   UNL     1       3.441   4.183  19.776  0.00  0.00    +0.000 NA
ATOM      8  C   UNL     1       2.795   5.334  20.029  0.00  0.00    +0.000 A 
ATOM      9  C   UNL     1       2.866   6.473  19.249  0.00  0.00    +0.000 A 
ATOM     10  C   UNL     1       3.666   6.400  18.097  0.00  0.00    +0.000 A 
BRANCH   5  14
ATOM     11  C   UNL     1       6.806   4.939  14.313  0.00  0.00    +0.000 A 
ATOM     12  C   UNL     1       5.633   4.207  14.334  0.00  0.00    +0.000 A 
ATOM     13  C   UNL     1       4.808   4.309  15.457  0.00  0.00    +0.000 A 
ATOM     14  C   UNL     1       5.173   5.123  16.540  0.00  0.00    +0.000 A 
ATOM     15  C   UNL     1       6.379   5.812  16.395  0.00  0.00    +0.000 A 
ATOM     16  N   UNL     1       7.193   5.750  15.317  0.00  0.00    +0.000 NA
BRANCH  11  18
ATOM     17  C   UNL     1       7.022   3.977  12.200  0.00  0.00    +0.000 C 
ATOM     18  O   UNL     1       7.612   4.801  13.202  0.00  0.00    +0.000 OA
ENDBRANCH  11  18
ENDBRANCH   5  14
BRANCH   8  19
ATOM     19  O   UNL     1       2.044   5.251  21.157  0.00  0.00    +0.000 OA
ATOM     20  H   UNL     1       1.211   5.639  20.822  0.00  0.00    +0.000 HD
ENDBRANCH   8  19
ENDBRANCH   1   9
BRANCH   3  21
ATOM     21  C   UNL     1       0.819   8.984  21.221  0.00  0.00    +0.000 A 
ATOM     22  C   UNL     1       0.368   9.998  20.374  0.00  0.00    +0.000 A 
ATOM     23  C   UNL     1      -0.353  11.080  20.876  0.00  0.00    +0.000 A 
ATOM     24  C   UNL     1      -0.619  11.179  22.244  0.00  0.00    +0.000 A 
ATOM     25  C   UNL     1      -0.175  10.157  23.095  0.00  0.00    +0.000 A 
ATOM     26  C   UNL     1       0.517   9.056  22.584  0.00  0.00    +0.000 A 
BRANCH  24  27
ATOM     27  C   UNL     1      -1.420  12.345  22.781  0.00  0.00    +0.000 C 
BRANCH  27  28
ATOM     28  N   UNL     1      -2.875  12.151  22.688  0.00  0.00    +0.000 NA
ATOM     29  C   UNL     1      -3.403  12.839  21.493  0.00  0.00    +0.000 C 
ATOM     30  C   UNL     1      -4.942  12.733  21.371  0.00  0.00    +0.000 C 
ATOM     31  N   UNL     1      -5.698  13.160  22.564  0.00  0.00    +0.000 NA
ATOM     32  C   UNL     1      -5.706  14.613  22.712  0.00  0.00    +0.000 C 
ATOM     33  C   UNL     1      -5.126  12.498  23.751  0.00  0.00    +0.000 C 
ATOM     34  C   UNL     1      -3.592  12.623  23.889  0.00  0.00    +0.000 C 
ENDBRANCH  27  28
ENDBRANCH  24  27
ENDBRANCH   3  21
TORSDOF 7
ENDMDL
MODEL 3
REMARK VINA RESULT:      -8.1      1.678      2.235
REMARK  Name = 
REMARK  9 active torsions:
REMARK  status: ('A' for Active; 'I' for Inactive)
REMARK    1  A    between atoms: C_1  and  O_2
REMARK    2  A    between atoms: O_2  and  C_3
REMARK    3  A    between atoms: C_6  and  C_7
REMARK    4  A    between atoms: C_10  and  O_11
REMARK    5  A    between atoms: C_12  and  C_13
REMARK    6  A    between atoms: N_15  and  C_16
REMARK    7  A    between atoms: C_19  and  C_20
REMARK    8  A    between atoms: C_20  and  N_21
REMARK    9  A    between atoms: N_24  and  C_25
REMARK                            x       y       z     vdW  Elec       q    Type
REMARK                         _______ _______ _______ _____ _____    ______ ____
ROOT
ATOM      1  C   UNL     1       2.189   7.524  19.477  0.00  0.00    +0.000 C 
ATOM      2  O   UNL     1       2.060   8.318  18.550  0.00  0.00    +0.000 OA
ATOM      3  N   UNL     1       1.684   7.688  20.751  0.00  0.00    +0.000 N 
ATOM      4  H   UNL     1       1.968   7.008  21.453  0.00  0.00    +0.000 HD
ENDROOT
BRANCH   1   9
ATOM      5  C   UNL     1       4.564   5.143  17.741  0.00  0.00    +0.000 A 
ATOM      6  C   UNL     1       4.523   4.102  18.674  0.00  0.00    +0.000 A 
ATOM      7  N   UNL     1       3.779   4.094  19.808  0.00  0.00    +0.000 NA
ATOM      8  C   UNL     1       3.045   5.195  20.039  0.00  0.00    +0.000 A 
ATOM      9  C   UNL     1       3.001   6.307  19.220  0.00  0.00    +0.000 A 
ATOM     10  C   UNL     1       3.776   6.261  18.050  0.00  0.00    +0.000 A 
BRANCH   5  14
ATOM     11  C   UNL     1       6.938   4.920  14.235  0.00  0.00    +0.000 A 
ATOM     12  C   UNL     1       5.765   4.187  14.265  0.00  0.00    +0.000 A 
ATOM     13  C   UNL     1       4.962   4.266  15.406  0.00  0.00    +0.000 A 
ATOM     14  C   UNL     1       5.347   5.060  16.497  0.00  0.00    +0.000 A 
ATOM     15  C   UNL     1       6.550   5.753  16.341  0.00  0.00    +0.000 A 
ATOM     16  N   UNL     1       7.342   5.712  15.247  0.00  0.00    +0.000 NA
BRANCH  11  18
ATOM     17  C   UNL     1       7.082   4.060  12.073  0.00  0.00    +0.000 C 
ATOM     18  O   UNL     1       7.722   4.804  13.107  0.00  0.00    +0.000 OA
ENDBRANCH  11  18
ENDBRANCH   5  14
BRANCH   8  19
ATOM     19  O   UNL     1       2.331   5.090  21.189  0.00  0.00    +0.000 OA
ATOM     20  H   UNL     1       2.545   4.165  21.425  0.00  0.00    +0.000 HD
ENDBRANCH   8  19
ENDBRANCH   1   9
BRANCH   3  21
ATOM     21  C   UNL     1       0.876   8.752  21.193  0.00  0.00    +0.000 A 
ATOM     22  C   UNL     1       0.320   9.697  20.328  0.00  0.00    +0.000 A 
ATOM     23  C   UNL     1      -0.466  10.740  20.819  0.00  0.00    +0.000 A 
ATOM     24  C   UNL     1      -0.693  10.868  22.192  0.00  0.00    +0.000 A 
ATOM     25  C   UNL     1      -0.143   9.914  23.060  0.00  0.00    +0.000 A 
ATOM     26  C   UNL     1       0.615   8.852  22.562  0.00  0.00    +0.000 A 
BRANCH  24  27
ATOM     27  C   UNL     1      -1.564  11.988  22.717  0.00  0.00    +0.000 C 
BRANCH  27  28
ATOM     28  N   UNL     1      -1.457  13.231  21.938  0.00  0.00    +0.000 NA
ATOM     29  C   UNL     1      -0.489  14.146  22.572  0.00  0.00    +0.000 C 
ATOM     30  C   UNL     1      -0.379  15.505  21.839  0.00  0.00    +0.000 C 
ATOM     31  N   UNL     1      -1.658  16.208  21.623  0.00  0.00    +0.000 NA
ATOM     32  C   UNL     1      -2.171  16.798  22.857  0.00  0.00    +0.000 C 
ATOM     33  C   UNL     1      -2.625  15.263  21.032  0.00  0.00    +0.000 C 
ATOM     34  C   UNL     1      -2.754  13.916  21.776  0.00  0.00    +0.000 C 
ENDBRANCH  27  28
ENDBRANCH  24  27
ENDBRANCH   3  21
TORSDOF 7
ENDMDL
MODEL 4
REMARK VINA RESULT:      -8.1      1.556      2.198
REMARK  Name = 
REMARK  9 active torsions:
REMARK  status: ('A' for Active; 'I' for Inactive)
REMARK    1  A    between atoms: C_1  and  O_2
REMARK    2  A    between atoms: O_2  and  C_3
REMARK    3  A    between atoms: C_6  and  C_7
REMARK    4  A    between atoms: C_10  and  O_11
REMARK    5  A    between atoms: C_12  and  C_13
REMARK    6  A    between atoms: N_15  and  C_16
REMARK    7  A    between atoms: C_19  and  C_20
REMARK    8  A    between atoms: C_20  and  N_21
REMARK    9  A    between atoms: N_24  and  C_25
REMARK                            x       y       z     vdW  Elec       q    Type
REMARK                         _______ _______ _______ _____ _____    ______ ____
ROOT
ATOM      1  C   UNL     1       1.895   5.922  20.357  0.00  0.00    +0.000 C 
ATOM      2  O   UNL     1       0.826   5.509  20.796  0.00  0.00    +0.000 OA
ATOM      3  N   UNL     1       2.244   7.249  20.210  0.00  0.00    +0.000 N 
ATOM      4  H   UNL     1       3.115   7.448  19.722  0.00  0.00    +0.000 HD
ENDROOT
BRANCH   1   9
ATOM      5  C   UNL     1       4.626   4.302  18.297  0.00  0.00    +0.000 A 
ATOM      6  C   UNL     1       4.713   3.093  18.995  0.00  0.00    +0.000 A 
ATOM      7  N   UNL     1       3.954   2.747  20.063  0.00  0.00    +0.000 NA
ATOM      8  C   UNL     1       3.064   3.665  20.476  0.00  0.00    +0.000 A 
ATOM      9  C   UNL     1       2.879   4.907  19.900  0.00  0.00    +0.000 A 
ATOM     10  C   UNL     1       3.678   5.213  18.786  0.00  0.00    +0.000 A 
BRANCH   5  14
ATOM     11  C   UNL     1       7.087   5.096  14.937  0.00  0.00    +0.000 A 
ATOM     12  C   UNL     1       5.829   4.570  14.702  0.00  0.00    +0.000 A 
ATOM     13  C   UNL     1       4.999   4.321  15.798  0.00  0.00    +0.000 A 
ATOM     14  C   UNL     1       5.440   4.588  17.104  0.00  0.00    +0.000 A 
ATOM     15  C   UNL     1       6.727   5.121  17.206  0.00  0.00    +0.000 A 
ATOM     16  N   UNL     1       7.550   5.388  16.168  0.00  0.00    +0.000 NA
BRANCH  11  18
ATOM     17  C   UNL     1       7.398   4.665  12.667  0.00  0.00    +0.000 C 
ATOM     18  O   UNL     1       7.893   5.308  13.839  0.00  0.00    +0.000 OA
ENDBRANCH  11  18
ENDBRANCH   5  14
BRANCH   8  19
ATOM     19  O   UNL     1       2.348   3.226  21.542  0.00  0.00    +0.000 OA
ATOM     20  H   UNL     1       2.954   2.529  21.864  0.00  0.00    +0.000 HD
ENDBRANCH   8  19
ENDBRANCH   1   9
BRANCH   3  21
ATOM     21  C   UNL     1       1.470   8.359  20.599  0.00  0.00    +0.000 A 
ATOM     22  C   UNL     1       1.165   8.646  21.931  0.00  0.00    +0.000 A 
ATOM     23  C   UNL     1       0.384   9.754  22.261  0.00  0.00    +0.000 A 
ATOM     24  C   UNL     1      -0.125  10.585  21.260  0.00  0.00    +0.000 A 
ATOM     25  C   UNL     1       0.188  10.302  19.922  0.00  0.00    +0.000 A 
ATOM     26  C   UNL     1       0.999   9.212  19.597  0.00  0.00    +0.000 A 
BRANCH  24  27
ATOM     27  C   UNL     1      -0.954  11.797  21.625  0.00  0.00    +0.000 C 
BRANCH  27  28
ATOM     28  N   UNL     1      -0.572  13.013  20.892  0.00  0.00    +0.000 NA
ATOM     29  C   UNL     1       0.642  13.605  21.489  0.00  0.00    +0.000 C 
ATOM     30  C   UNL     1       1.061  14.929  20.807  0.00  0.00    +0.000 C 
ATOM     31  N   UNL     1       0.002  15.953  20.717  0.00  0.00    +0.000 NA
ATOM     32  C   UNL     1      -0.259  16.581  22.010  0.00  0.00    +0.000 C 
ATOM     33  C   UNL     1      -1.215  15.330  20.162  0.00  0.00    +0.000 C 
ATOM     34  C   UNL     1      -1.649  14.020  20.858  0.00  0.00    +0.000 C 
ENDBRANCH  27  28
ENDBRANCH  24  27
ENDBRANCH   3  21
TORSDOF 7
ENDMDL
MODEL 5
REMARK VINA RESULT:      -8.1      1.549      2.230
REMARK  Name = 
REMARK  9 active torsions:
REMARK  status: ('A' for Active; 'I' for Inactive)
REMARK    1  A    between atoms: C_1  and  O_2
REMARK    2  A    between atoms: O_2  and  C_3
REMARK    3  A    between atoms: C_6  and  C_7
REMARK    4  A    between atoms: C_10  and  O_11
REMARK    5  A    between atoms: C_12  and  C_13
REMARK    6  A    between atoms: N_15  and  C_16
REMARK    7  A    between atoms: C_19  and  C_20
REMARK    8  A    between atoms: C_20  and  N_21
REMARK    9  A    between atoms: N_24  and  C_25
REMARK                            x       y       z     vdW  Elec       q    Type
REMARK                         _______ _______ _______ _____ _____    ______ ____
ROOT
ATOM      1  C   UNL     1       1.839   5.967  20.326  0.00  0.00    +0.000 C 
ATOM      2  O   UNL     1       0.747   5.545  20.694  0.00  0.00    +0.000 OA
ATOM      3  N   UNL     1       2.194   7.297  20.224  0.00  0.00    +0.000 N 
ATOM      4  H   UNL     1       3.091   7.505  19.791  0.00  0.00    +0.000 HD
ENDROOT
BRANCH   1   9
ATOM      5  C   UNL     1       4.638   4.357  18.351  0.00  0.00    +0.000 A 
ATOM      6  C   UNL     1       4.731   3.162  19.072  0.00  0.00    +0.000 A 
ATOM      7  N   UNL     1       3.956   2.822  20.130  0.00  0.00    +0.000 NA
ATOM      8  C   UNL     1       3.042   3.732  20.509  0.00  0.00    +0.000 A 
ATOM      9  C   UNL     1       2.849   4.961  19.906  0.00  0.00    +0.000 A 
ATOM     10  C   UNL     1       3.666   5.260  18.805  0.00  0.00    +0.000 A 
BRANCH   5  14
ATOM     11  C   UNL     1       7.147   5.197  15.038  0.00  0.00    +0.000 A 
ATOM     12  C   UNL     1       6.205   4.194  14.893  0.00  0.00    +0.000 A 
ATOM     13  C   UNL     1       5.358   3.919  15.969  0.00  0.00    +0.000 A 
ATOM     14  C   UNL     1       5.472   4.637  17.170  0.00  0.00    +0.000 A 
ATOM     15  C   UNL     1       6.459   5.625  17.188  0.00  0.00    +0.000 A 
ATOM     16  N   UNL     1       7.284   5.928  16.161  0.00  0.00    +0.000 NA
BRANCH  11  18
ATOM     17  C   UNL     1       7.458   4.927  12.743  0.00  0.00    +0.000 C 
ATOM     18  O   UNL     1       7.985   5.430  13.968  0.00  0.00    +0.000 OA
ENDBRANCH  11  18
ENDBRANCH   5  14
BRANCH   8  19
ATOM     19  O   UNL     1       2.311   3.299  21.567  0.00  0.00    +0.000 OA
ATOM     20  H   UNL     1       2.066   2.411  21.239  0.00  0.00    +0.000 HD
ENDBRANCH   8  19
ENDBRANCH   1   9
BRANCH   3  21
ATOM     21  C   UNL     1       1.398   8.399  20.589  0.00  0.00    +0.000 A 
ATOM     22  C   UNL     1       0.810   9.256  19.656  0.00  0.00    +0.000 A 
ATOM     23  C   UNL     1       0.037  10.340  20.071  0.00  0.00    +0.000 A 
ATOM     24  C   UNL     1      -0.145  10.600  21.433  0.00  0.00    +0.000 A 
ATOM     25  C   UNL     1       0.438   9.734  22.370  0.00  0.00    +0.000 A 
ATOM     26  C   UNL     1       1.183   8.629  21.950  0.00  0.00    +0.000 A 
BRANCH  24  27
ATOM     27  C   UNL     1      -1.001  11.765  21.877  0.00  0.00    +0.000 C 
BRANCH  27  28
ATOM     28  N   UNL     1      -0.342  13.070  21.726  0.00  0.00    +0.000 NA
ATOM     29  C   UNL     1      -0.709  13.957  22.847  0.00  0.00    +0.000 C 
ATOM     30  C   UNL     1      -0.103  15.375  22.715  0.00  0.00    +0.000 C 
ATOM     31  N   UNL     1      -0.374  16.057  21.435  0.00  0.00    +0.000 NA
ATOM     32  C   UNL     1      -1.754  16.526  21.349  0.00  0.00    +0.000 C 
ATOM     33  C   UNL     1      -0.045  15.138  20.328  0.00  0.00    +0.000 C 
ATOM     34  C   UNL     1      -0.668  13.729  20.446  0.00  0.00    +0.000 C 
ENDBRANCH  27  28
ENDBRANCH  24  27
ENDBRANCH   3  21
TORSDOF 7
ENDMDL
MODEL 6
REMARK VINA RESULT:      -8.1      0.851      1.319
REMARK  Name = 
REMARK  9 active torsions:
REMARK  status: ('A' for Active; 'I' for Inactive)
REMARK    1  A    between atoms: C_1  and  O_2
REMARK    2  A    between atoms: O_2  and  C_3
REMARK    3  A    between atoms: C_6  and  C_7
REMARK    4  A    between atoms: C_10  and  O_11
REMARK    5  A    between atoms: C_12  and  C_13
REMARK    6  A    between atoms: N_15  and  C_16
REMARK    7  A    between atoms: C_19  and  C_20
REMARK    8  A    between atoms: C_20  and  N_21
REMARK    9  A    between atoms: N_24  and  C_25
REMARK                            x       y       z     vdW  Elec       q    Type
REMARK                         _______ _______ _______ _____ _____    ______ ____
ROOT
ATOM      1  C   UNL     1       1.991   6.568  19.864  0.00  0.00    +0.000 C 
ATOM      2  O   UNL     1       1.096   6.263  20.647  0.00  0.00    +0.000 OA
ATOM      3  N   UNL     1       2.143   7.799  19.259  0.00  0.00    +0.000 N 
ATOM      4  H   UNL     1       2.859   7.877  18.540  0.00  0.00    +0.000 HD
ENDROOT
BRANCH   1   9
ATOM      5  C   UNL     1       4.670   4.723  17.930  0.00  0.00    +0.000 A 
ATOM      6  C   UNL     1       4.777   3.600  18.756  0.00  0.00    +0.000 A 
ATOM      7  N   UNL     1       4.045   3.377  19.875  0.00  0.00    +0.000 NA
ATOM      8  C   UNL     1       3.165   4.337  20.205  0.00  0.00    +0.000 A 
ATOM      9  C   UNL     1       2.964   5.507  19.498  0.00  0.00    +0.000 A 
ATOM     10  C   UNL     1       3.734   5.685  18.338  0.00  0.00    +0.000 A 
BRANCH   5  14
ATOM     11  C   UNL     1       7.044   5.158  14.444  0.00  0.00    +0.000 A 
ATOM     12  C   UNL     1       5.879   4.421  14.340  0.00  0.00    +0.000 A 
ATOM     13  C   UNL     1       5.076   4.285  15.475  0.00  0.00    +0.000 A 
ATOM     14  C   UNL     1       5.453   4.874  16.692  0.00  0.00    +0.000 A 
ATOM     15  C   UNL     1       6.650   5.595  16.665  0.00  0.00    +0.000 A 
ATOM     16  N   UNL     1       7.442   5.759  15.583  0.00  0.00    +0.000 NA
BRANCH  11  18
ATOM     17  C   UNL     1       7.316   4.490  12.227  0.00  0.00    +0.000 C 
ATOM     18  O   UNL     1       7.830   5.255  13.315  0.00  0.00    +0.000 OA
ENDBRANCH  11  18
ENDBRANCH   5  14
BRANCH   8  19
ATOM     19  O   UNL     1       2.476   4.020  21.331  0.00  0.00    +0.000 OA
ATOM     20  H   UNL     1       3.042   4.464  21.994  0.00  0.00    +0.000 HD
ENDBRANCH   8  19
ENDBRANCH   1   9
BRANCH   3  21
ATOM     21  C   UNL     1       1.347   8.939  19.484  0.00  0.00    +0.000 A 
ATOM     22  C   UNL     1       0.788   9.694  18.451  0.00  0.00    +0.000 A 
ATOM     23  C   UNL     1       0.015  10.821  18.728  0.00  0.00    +0.000 A 
ATOM     24  C   UNL     1      -0.196  11.227  20.049  0.00  0.00    +0.000 A 
ATOM     25  C   UNL     1       0.359  10.464  21.087  0.00  0.00    +0.000 A 
ATOM     26  C   UNL     1       1.104   9.316  20.807  0.00  0.00    +0.000 A 
BRANCH  24  27
ATOM     27  C   UNL     1      -1.052  12.438  20.345  0.00  0.00    +0.000 C 
BRANCH  27  28
ATOM     28  N   UNL     1      -1.309  12.641  21.778  0.00  0.00    +0.000 NA
ATOM     29  C   UNL     1      -2.745  12.461  22.068  0.00  0.00    +0.000 C 
ATOM     30  C   UNL     1      -3.097  12.728  23.550  0.00  0.00    +0.000 C 
ATOM     31  N   UNL     1      -2.643  14.029  24.080  0.00  0.00    +0.000 NA
ATOM     32  C   UNL     1      -3.456  15.135  23.580  0.00  0.00    +0.000 C 
ATOM     33  C   UNL     1      -1.218  14.209  23.740  0.00  0.00    +0.000 C 
ATOM     34  C   UNL     1      -0.869  13.967  22.255  0.00  0.00    +0.000 C 
ENDBRANCH  27  28
ENDBRANCH  24  27
ENDBRANCH   3  21
TORSDOF 7
ENDMDL
MODEL 7
REMARK VINA RESULT:      -8.0      1.738      2.179
REMARK  Name = 
REMARK  9 active torsions:
REMARK  status: ('A' for Active; 'I' for Inactive)
REMARK    1  A    between atoms: C_1  and  O_2
REMARK    2  A    between atoms: O_2  and  C_3
REMARK    3  A    between atoms: C_6  and  C_7
REMARK    4  A    between atoms: C_10  and  O_11
REMARK    5  A    between atoms: C_12  and  C_13
REMARK    6  A    between atoms: N_15  and  C_16
REMARK    7  A    between atoms: C_19  and  C_20
REMARK    8  A    between atoms: C_20  and  N_21
REMARK    9  A    between atoms: N_24  and  C_25
REMARK                            x       y       z     vdW  Elec       q    Type
REMARK                         _______ _______ _______ _____ _____    ______ ____
ROOT
ATOM      1  C   UNL     1       2.343   7.437  19.358  0.00  0.00    +0.000 C 
ATOM      2  O   UNL     1       2.207   8.231  18.432  0.00  0.00    +0.000 OA
ATOM      3  N   UNL     1       1.834   7.594  20.631  0.00  0.00    +0.000 N 
ATOM      4  H   UNL     1       2.125   6.916  21.333  0.00  0.00    +0.000 HD
ENDROOT
BRANCH   1   9
ATOM      5  C   UNL     1       4.702   5.059  17.596  0.00  0.00    +0.000 A 
ATOM      6  C   UNL     1       4.710   4.039  18.552  0.00  0.00    +0.000 A 
ATOM      7  N   UNL     1       4.004   4.043  19.709  0.00  0.00    +0.000 NA
ATOM      8  C   UNL     1       3.258   5.136  19.941  0.00  0.00    +0.000 A 
ATOM      9  C   UNL     1       3.168   6.229  19.100  0.00  0.00    +0.000 A 
ATOM     10  C   UNL     1       3.905   6.170  17.907  0.00  0.00    +0.000 A 
BRANCH   5  14
ATOM     11  C   UNL     1       6.965   4.784  14.021  0.00  0.00    +0.000 A 
ATOM     12  C   UNL     1       5.737   4.148  14.055  0.00  0.00    +0.000 A 
ATOM     13  C   UNL     1       4.971   4.247  15.219  0.00  0.00    +0.000 A 
ATOM     14  C   UNL     1       5.446   4.963  16.329  0.00  0.00    +0.000 A 
ATOM     15  C   UNL     1       6.698   5.561  16.167  0.00  0.00    +0.000 A 
ATOM     16  N   UNL     1       7.458   5.500  15.051  0.00  0.00    +0.000 NA
BRANCH  11  18
ATOM     17  C   UNL     1       7.087   3.794  11.914  0.00  0.00    +0.000 C 
ATOM     18  O   UNL     1       7.710   4.650  12.869  0.00  0.00    +0.000 OA
ENDBRANCH  11  18
ENDBRANCH   5  14
BRANCH   8  19
ATOM     19  O   UNL     1       2.584   5.043  21.116  0.00  0.00    +0.000 OA
ATOM     20  H   UNL     1       1.721   4.730  20.780  0.00  0.00    +0.000 HD
ENDBRANCH   8  19
ENDBRANCH   1   9
BRANCH   3  21
ATOM     21  C   UNL     1       1.015   8.650  21.073  0.00  0.00    +0.000 A 
ATOM     22  C   UNL     1       0.791   8.927  22.424  0.00  0.00    +0.000 A 
ATOM     23  C   UNL     1      -0.039   9.979  22.808  0.00  0.00    +0.000 A 
ATOM     24  C   UNL     1      -0.680  10.764  21.845  0.00  0.00    +0.000 A 
ATOM     25  C   UNL     1      -0.449  10.491  20.489  0.00  0.00    +0.000 A 
ATOM     26  C   UNL     1       0.411   9.458  20.107  0.00  0.00    +0.000 A 
BRANCH  24  27
ATOM     27  C   UNL     1      -1.562  11.918  22.268  0.00  0.00    +0.000 C 
BRANCH  27  28
ATOM     28  N   UNL     1      -0.868  13.214  22.282  0.00  0.00    +0.000 NA
ATOM     29  C   UNL     1      -1.297  14.006  23.451  0.00  0.00    +0.000 C 
ATOM     30  C   UNL     1      -0.655  15.413  23.491  0.00  0.00    +0.000 C 
ATOM     31  N   UNL     1      -0.819  16.214  22.262  0.00  0.00    +0.000 NA
ATOM     32  C   UNL     1      -2.180  16.726  22.122  0.00  0.00    +0.000 C 
ATOM     33  C   UNL     1      -0.429  15.389  21.103  0.00  0.00    +0.000 C 
ATOM     34  C   UNL     1      -1.088  13.993  21.048  0.00  0.00    +0.000 C 
ENDBRANCH  27  28
ENDBRANCH  24  27
ENDBRANCH   3  21
TORSDOF 7
ENDMDL
MODEL 8
REMARK VINA RESULT:      -8.0      1.313      1.913
REMARK  Name = 
REMARK  9 active torsions:
REMARK  status: ('A' for Active; 'I' for Inactive)
REMARK    1  A    between atoms: C_1  and  O_2
REMARK    2  A    between atoms: O_2  and  C_3
REMARK    3  A    between atoms: C_6  and  C_7
REMARK    4  A    between atoms: C_10  and  O_11
REMARK    5  A    between atoms: C_12  and  C_13
REMARK    6  A    between atoms: N_15  and  C_16
REMARK    7  A    between atoms: C_19  and  C_20
REMARK    8  A    between atoms: C_20  and  N_21
REMARK    9  A    between atoms: N_24  and  C_25
REMARK                            x       y       z     vdW  Elec       q    Type
REMARK                         _______ _______ _______ _____ _____    ______ ____
ROOT
ATOM      1  C   UNL     1       1.933   7.883  19.669  0.00  0.00    +0.000 C 
ATOM      2  O   UNL     1       1.844   8.675  18.735  0.00  0.00    +0.000 OA
ATOM      3  N   UNL     1       1.507   8.113  20.961  0.00  0.00    +0.000 N 
ATOM      4  H   UNL     1       1.752   7.417  21.661  0.00  0.00    +0.000 HD
ENDROOT
BRANCH   1   9
ATOM      5  C   UNL     1       4.242   5.347  18.067  0.00  0.00    +0.000 A 
ATOM      6  C   UNL     1       3.879   4.234  18.832  0.00  0.00    +0.000 A 
ATOM      7  N   UNL     1       2.939   4.226  19.809  0.00  0.00    +0.000 NA
ATOM      8  C   UNL     1       2.334   5.401  20.055  0.00  0.00    +0.000 A 
ATOM      9  C   UNL     1       2.602   6.585  19.396  0.00  0.00    +0.000 A 
ATOM     10  C   UNL     1       3.572   6.539  18.382  0.00  0.00    +0.000 A 
BRANCH   5  14
ATOM     11  C   UNL     1       7.185   5.162  15.022  0.00  0.00    +0.000 A 
ATOM     12  C   UNL     1       6.104   4.305  14.923  0.00  0.00    +0.000 A 
ATOM     13  C   UNL     1       5.116   4.368  15.909  0.00  0.00    +0.000 A 
ATOM     14  C   UNL     1       5.228   5.271  16.977  0.00  0.00    +0.000 A 
ATOM     15  C   UNL     1       6.365   6.084  16.960  0.00  0.00    +0.000 A 
ATOM     16  N   UNL     1       7.331   6.060  16.015  0.00  0.00    +0.000 NA
BRANCH  11  18
ATOM     17  C   UNL     1       7.631   5.225  12.734  0.00  0.00    +0.000 C 
ATOM     18  O   UNL     1       8.157   5.061  14.049  0.00  0.00    +0.000 OA
ENDBRANCH  11  18
ENDBRANCH   5  14
BRANCH   8  19
ATOM     19  O   UNL     1       1.406   5.291  21.040  0.00  0.00    +0.000 OA
ATOM     20  H   UNL     1       1.215   6.239  21.185  0.00  0.00    +0.000 HD
ENDBRANCH   8  19
ENDBRANCH   1   9
BRANCH   3  21
ATOM     21  C   UNL     1       0.834   9.262  21.421  0.00  0.00    +0.000 A 
ATOM     22  C   UNL     1       0.950  10.510  20.806  0.00  0.00    +0.000 A 
ATOM     23  C   UNL     1       0.270  11.619  21.309  0.00  0.00    +0.000 A 
ATOM     24  C   UNL     1      -0.525  11.503  22.452  0.00  0.00    +0.000 A 
ATOM     25  C   UNL     1      -0.649  10.248  23.065  0.00  0.00    +0.000 A 
ATOM     26  C   UNL     1       0.006   9.131  22.539  0.00  0.00    +0.000 A 
BRANCH  24  27
ATOM     27  C   UNL     1      -1.278  12.704  22.981  0.00  0.00    +0.000 C 
BRANCH  27  28
ATOM     28  N   UNL     1      -2.206  13.293  22.004  0.00  0.00    +0.000 NA
ATOM     29  C   UNL     1      -2.892  14.458  22.594  0.00  0.00    +0.000 C 
ATOM     30  C   UNL     1      -3.937  15.087  21.641  0.00  0.00    +0.000 C 
ATOM     31  N   UNL     1      -4.935  14.147  21.096  0.00  0.00    +0.000 NA
ATOM     32  C   UNL     1      -5.927  13.764  22.097  0.00  0.00    +0.000 C 
ATOM     33  C   UNL     1      -4.232  12.969  20.553  0.00  0.00    +0.000 C 
ATOM     34  C   UNL     1      -3.206  12.325  21.512  0.00  0.00    +0.000 C 
ENDBRANCH  27  28
ENDBRANCH  24  27
ENDBRANCH   3  21
TORSDOF 7
ENDMDL
MODEL 9
REMARK VINA RESULT:      -7.9      1.305      1.918
REMARK  Name = 
REMARK  9 active torsions:
REMARK  status: ('A' for Active; 'I' for Inactive)
REMARK    1  A    between atoms: C_1  and  O_2
REMARK    2  A    between atoms: O_2  and  C_3
REMARK    3  A    between atoms: C_6  and  C_7
REMARK    4  A    between atoms: C_10  and  O_11
REMARK    5  A    between atoms: C_12  and  C_13
REMARK    6  A    between atoms: N_15  and  C_16
REMARK    7  A    between atoms: C_19  and  C_20
REMARK    8  A    between atoms: C_20  and  N_21
REMARK    9  A    between atoms: N_24  and  C_25
REMARK                            x       y       z     vdW  Elec       q    Type
REMARK                         _______ _______ _______ _____ _____    ______ ____
ROOT
ATOM      1  C   UNL     1       1.830   7.774  19.802  0.00  0.00    +0.000 C 
ATOM      2  O   UNL     1       1.689   8.540  18.852  0.00  0.00    +0.000 OA
ATOM      3  N   UNL     1       1.423   8.019  21.098  0.00  0.00    +0.000 N 
ATOM      4  H   UNL     1       1.710   7.348  21.808  0.00  0.00    +0.000 HD
ENDROOT
BRANCH   1   9
ATOM      5  C   UNL     1       4.251   5.310  18.256  0.00  0.00    +0.000 A 
ATOM      6  C   UNL     1       3.899   4.185  19.007  0.00  0.00    +0.000 A 
ATOM      7  N   UNL     1       2.934   4.146  19.958  0.00  0.00    +0.000 NA
ATOM      8  C   UNL     1       2.289   5.302  20.191  0.00  0.00    +0.000 A 
ATOM      9  C   UNL     1       2.542   6.497  19.543  0.00  0.00    +0.000 A 
ATOM     10  C   UNL     1       3.540   6.481  18.556  0.00  0.00    +0.000 A 
BRANCH   5  14
ATOM     11  C   UNL     1       7.081   5.142  15.104  0.00  0.00    +0.000 A 
ATOM     12  C   UNL     1       7.265   6.103  16.081  0.00  0.00    +0.000 A 
ATOM     13  C   UNL     1       6.352   6.158  17.137  0.00  0.00    +0.000 A 
ATOM     14  C   UNL     1       5.269   5.267  17.193  0.00  0.00    +0.000 A 
ATOM     15  C   UNL     1       5.198   4.342  16.148  0.00  0.00    +0.000 A 
ATOM     16  N   UNL     1       6.071   4.250  15.121  0.00  0.00    +0.000 NA
BRANCH  11  18
ATOM     17  C   UNL     1       7.361   4.868  12.805  0.00  0.00    +0.000 C 
ATOM     18  O   UNL     1       7.984   5.126  14.061  0.00  0.00    +0.000 OA
ENDBRANCH  11  18
ENDBRANCH   5  14
BRANCH   8  19
ATOM     19  O   UNL     1       1.339   5.162  21.150  0.00  0.00    +0.000 OA
ATOM     20  H   UNL     1       1.896   5.282  21.944  0.00  0.00    +0.000 HD
ENDBRANCH   8  19
ENDBRANCH   1   9
BRANCH   3  21
ATOM     21  C   UNL     1       0.717   9.151  21.547  0.00  0.00    +0.000 A 
ATOM     22  C   UNL     1       0.843  10.411  20.958  0.00  0.00    +0.000 A 
ATOM     23  C   UNL     1       0.128  11.503  21.448  0.00  0.00    +0.000 A 
ATOM     24  C   UNL     1      -0.713  11.358  22.555  0.00  0.00    +0.000 A 
ATOM     25  C   UNL     1      -0.847  10.091  23.142  0.00  0.00    +0.000 A 
ATOM     26  C   UNL     1      -0.156   8.992  22.627  0.00  0.00    +0.000 A 
BRANCH  24  27
ATOM     27  C   UNL     1      -1.503  12.541  23.070  0.00  0.00    +0.000 C 
BRANCH  27  28
ATOM     28  N   UNL     1      -2.958  12.333  23.044  0.00  0.00    +0.000 NA
ATOM     29  C   UNL     1      -3.531  12.908  21.811  0.00  0.00    +0.000 C 
ATOM     30  C   UNL     1      -5.072  12.784  21.751  0.00  0.00    +0.000 C 
ATOM     31  N   UNL     1      -5.792  13.313  22.926  0.00  0.00    +0.000 NA
ATOM     32  C   UNL     1      -5.807  14.773  22.944  0.00  0.00    +0.000 C 
ATOM     33  C   UNL     1      -5.175  12.763  24.148  0.00  0.00    +0.000 C 
ATOM     34  C   UNL     1      -3.638  12.907  24.221  0.00  0.00    +0.000 C 
ENDBRANCH  27  28
ENDBRANCH  24  27
ENDBRANCH   3  21
TORSDOF 7
ENDMDL
