MODEL 1
REMARK VINA RESULT:      -8.1      0.000      0.000
REMARK  Name = 
REMARK  10 active torsions:
REMARK  status: ('A' for Active; 'I' for Inactive)
REMARK    1  A    between atoms: C_1  and  N_2
REMARK    2  A    between atoms: N_2  and  C_3
REMARK    3  A    between atoms: N_2  and  C_4
REMARK    4  A    between atoms: C_4  and  C_5
REMARK    5  A    between atoms: C_5  and  C_6
REMARK    6  A    between atoms: C_5  and  C_7
REMARK    7  A    between atoms: C_5  and  C_8
REMARK    8  A    between atoms: C_8  and  N_9
REMARK    9  A    between atoms: C_10  and  C_12
REMARK   10  A    between atoms: C_30  and  C_31
REMARK                            x       y       z     vdW  Elec       q    Type
REMARK                         _______ _______ _______ _____ _____    ______ ____
ROOT
ATOM      1  C   UNL     1       0.780   9.554  20.704  0.00  0.00    +0.000 A 
ATOM      2  C   UNL     1       1.020   9.471  22.090  0.00  0.00    +0.000 A 
ATOM      3  N   UNL     1       0.333  10.362  22.798  0.00  0.00    +0.000 NA
ATOM      4  N   UNL     1      -0.458  11.000  21.873  0.00  0.00    +0.000 N 
ATOM      5  C   UNL     1      -1.439  11.967  22.301  0.00  0.00    +0.000 A 
ATOM      6  N   UNL     1      -1.188  12.656  23.435  0.00  0.00    +0.000 NA
ATOM      7  C   UNL     1      -2.106  13.564  23.801  0.00  0.00    +0.000 A 
ATOM      8  C   UNL     1      -3.292  13.773  23.130  0.00  0.00    +0.000 A 
ATOM      9  C   UNL     1      -3.497  12.991  22.008  0.00  0.00    +0.000 A 
ATOM     10  N   UNL     1      -2.573  12.103  21.577  0.00  0.00    +0.000 NA
ATOM     11  C   UNL     1      -4.766  13.059  21.261  0.00  0.00    +0.000 A 
ATOM     12  C   UNL     1      -5.019  12.237  20.146  0.00  0.00    +0.000 A 
ATOM     13  C   UNL     1      -6.244  12.271  19.473  0.00  0.00    +0.000 A 
ATOM     14  C   UNL     1      -7.243  13.139  19.897  0.00  0.00    +0.000 A 
ATOM     15  C   UNL     1      -7.015  13.972  20.988  0.00  0.00    +0.000 A 
ATOM     16  C   UNL     1      -5.787  13.938  21.674  0.00  0.00    +0.000 A 
ATOM     17  C   UNL     1      -5.607  14.863  22.850  0.00  0.00    +0.000 C 
ATOM     18  C   UNL     1      -4.288  14.768  23.624  0.00  0.00    +0.000 C 
ATOM     19  C   UNL     1      -0.208  10.532  20.587  0.00  0.00    +0.000 A 
ENDROOT
BRANCH  19  20
ATOM     20  C   UNL     1      -0.810  11.051  19.401  0.00  0.00    +0.000 A 
ATOM     21  C   UNL     1      -1.755  10.461  18.575  0.00  0.00    +0.000 A 
ATOM     22  C   UNL     1      -1.986  11.345  17.495  0.00  0.00    +0.000 A 
ATOM     23  C   UNL     1      -1.185  12.432  17.724  0.00  0.00    +0.000 A 
ATOM     24  O   UNL     1      -0.461  12.262  18.859  0.00  0.00    +0.000 OA
ENDBRANCH  19  20
BRANCH   1  26
ATOM     25  N   UNL     1       1.931   7.614  19.935  0.00  0.00    +0.000 N 
ATOM     26  C   UNL     1       1.438   8.852  19.615  0.00  0.00    +0.000 C 
ATOM     27  O   UNL     1       1.529   9.316  18.483  0.00  0.00    +0.000 OA
ATOM     28  H   UNL     1       1.928   7.316  20.899  0.00  0.00    +0.000 HD
BRANCH  25  29
ATOM     29  C   UNL     1       2.643   6.809  18.956  0.00  0.00    +0.000 C 
BRANCH  29  30
ATOM     30  C   UNL     1       2.575   5.293  19.246  0.00  0.00    +0.000 C 
ATOM     31  C   UNL     1       1.720   4.596  18.170  0.00  0.00    +0.000 C 
ATOM     32  C   UNL     1       1.821   5.077  20.584  0.00  0.00    +0.000 C 
BRANCH  30  33
ATOM     33  C   UNL     1       4.009   4.671  19.356  0.00  0.00    +0.000 C 
BRANCH  33  35
ATOM     34  C   UNL     1       6.325   5.361  19.285  0.00  0.00    +0.000 C 
ATOM     35  N   UNL     1       5.093   5.206  18.500  0.00  0.00    +0.000 NA
ATOM     36  C   UNL     1       5.392   4.379  17.331  0.00  0.00    +0.000 C 
ENDBRANCH  33  35
ENDBRANCH  30  33
ENDBRANCH  29  30
ENDBRANCH  25  29
ENDBRANCH   1  26
TORSDOF 6
ENDMDL
MODEL 2
REMARK VINA RESULT:      -8.0      1.019      1.342
REMARK  Name = 
REMARK  10 active torsions:
REMARK  status: ('A' for Active; 'I' for Inactive)
REMARK    1  A    between atoms: C_1  and  N_2
REMARK    2  A    between atoms: N_2  and  C_3
REMARK    3  A    between atoms: N_2  and  C_4
REMARK    4  A    between atoms: C_4  and  C_5
REMARK    5  A    between atoms: C_5  and  C_6
REMARK    6  A    between atoms: C_5  and  C_7
REMARK    7  A    between atoms: C_5  and  C_8
REMARK    8  A    between atoms: C_8  and  N_9
REMARK    9  A    between atoms: C_10  and  C_12
REMARK   10  A    between atoms: C_30  and  C_31
REMARK                            x       y       z     vdW  Elec       q    Type
REMARK                         _______ _______ _______ _____ _____    ______ ____
ROOT
ATOM      1  C   UNL     1       0.838   9.326  20.803  0.00  0.00    +0.000 A 
ATOM      2  C   UNL     1       1.018   9.246  22.199  0.00  0.00    +0.000 A 
ATOM      3  N   UNL     1       0.335  10.168  22.872  0.00  0.00    +0.000 NA
ATOM      4  N   UNL     1      -0.392  10.827  21.909  0.00  0.00    +0.000 N 
ATOM      5  C   UNL     1      -1.353  11.834  22.290  0.00  0.00    +0.000 A 
ATOM      6  N   UNL     1      -1.125  12.522  23.429  0.00  0.00    +0.000 NA
ATOM      7  C   UNL     1      -2.022  13.467  23.750  0.00  0.00    +0.000 A 
ATOM      8  C   UNL     1      -3.171  13.714  23.028  0.00  0.00    +0.000 A 
ATOM      9  C   UNL     1      -3.358  12.930  21.904  0.00  0.00    +0.000 A 
ATOM     10  N   UNL     1      -2.450  12.006  21.518  0.00  0.00    +0.000 NA
ATOM     11  C   UNL     1      -4.591  13.040  21.103  0.00  0.00    +0.000 A 
ATOM     12  C   UNL     1      -4.828  12.218  19.985  0.00  0.00    +0.000 A 
ATOM     13  C   UNL     1      -6.022  12.292  19.261  0.00  0.00    +0.000 A 
ATOM     14  C   UNL     1      -7.005  13.199  19.637  0.00  0.00    +0.000 A 
ATOM     15  C   UNL     1      -6.791  14.032  20.731  0.00  0.00    +0.000 A 
ATOM     16  C   UNL     1      -5.594  13.959  21.468  0.00  0.00    +0.000 A 
ATOM     17  C   UNL     1      -5.430  14.887  22.644  0.00  0.00    +0.000 C 
ATOM     18  C   UNL     1      -4.148  14.749  23.474  0.00  0.00    +0.000 C 
ATOM     19  C   UNL     1      -0.107  10.339  20.639  0.00  0.00    +0.000 A 
ENDROOT
BRANCH  19  20
ATOM     20  C   UNL     1      -0.638  10.871  19.424  0.00  0.00    +0.000 A 
ATOM     21  C   UNL     1      -0.334  12.067  18.792  0.00  0.00    +0.000 A 
ATOM     22  C   UNL     1      -1.171  12.170  17.655  0.00  0.00    +0.000 A 
ATOM     23  C   UNL     1      -1.928  11.028  17.643  0.00  0.00    +0.000 A 
ATOM     24  O   UNL     1      -1.629  10.246  18.710  0.00  0.00    +0.000 OA
ENDBRANCH  19  20
BRANCH   1  26
ATOM     25  N   UNL     1       2.114   7.425  20.143  0.00  0.00    +0.000 N 
ATOM     26  C   UNL     1       1.514   8.592  19.748  0.00  0.00    +0.000 C 
ATOM     27  O   UNL     1       1.532   8.969  18.580  0.00  0.00    +0.000 OA
ATOM     28  H   UNL     1       2.166   7.206  21.127  0.00  0.00    +0.000 HD
BRANCH  25  29
ATOM     29  C   UNL     1       2.855   6.601  19.203  0.00  0.00    +0.000 C 
BRANCH  29  30
ATOM     30  C   UNL     1       2.406   5.123  19.200  0.00  0.00    +0.000 C 
ATOM     31  C   UNL     1       1.483   4.863  17.993  0.00  0.00    +0.000 C 
ATOM     32  C   UNL     1       1.533   4.866  20.457  0.00  0.00    +0.000 C 
BRANCH  30  33
ATOM     33  C   UNL     1       3.638   4.154  19.221  0.00  0.00    +0.000 C 
BRANCH  33  35
ATOM     34  C   UNL     1       3.469   1.937  18.274  0.00  0.00    +0.000 C 
ATOM     35  N   UNL     1       3.420   2.720  19.516  0.00  0.00    +0.000 NA
ATOM     36  C   UNL     1       4.385   2.152  20.458  0.00  0.00    +0.000 C 
ENDBRANCH  33  35
ENDBRANCH  30  33
ENDBRANCH  29  30
ENDBRANCH  25  29
ENDBRANCH   1  26
TORSDOF 6
ENDMDL
MODEL 3
REMARK VINA RESULT:      -8.0      0.917      1.555
REMARK  Name = 
REMARK  10 active torsions:
REMARK  status: ('A' for Active; 'I' for Inactive)
REMARK    1  A    between atoms: C_1  and  N_2
REMARK    2  A    between atoms: N_2  and  C_3
REMARK    3  A    between atoms: N_2  and  C_4
REMARK    4  A    between atoms: C_4  and  C_5
REMARK    5  A    between atoms: C_5  and  C_6
REMARK    6  A    between atoms: C_5  and  C_7
REMARK    7  A    between atoms: C_5  and  C_8
REMARK    8  A    between atoms: C_8  and  N_9
REMARK    9  A    between atoms: C_10  and  C_12
REMARK   10  A    between atoms: C_30  and  C_31
REMARK                            x       y       z     vdW  Elec       q    Type
REMARK                         _______ _______ _______ _____ _____    ______ ____
ROOT
ATOM      1  C   UNL     1       0.739   9.550  20.701  0.00  0.00    +0.000 A 
ATOM      2  C   UNL     1       0.996   9.472  22.084  0.00  0.00    +0.000 A 
ATOM      3  N   UNL     1       0.334  10.379  22.796  0.00  0.00    +0.000 NA
ATOM      4  N   UNL     1      -0.457  11.025  21.876  0.00  0.00    +0.000 N 
ATOM      5  C   UNL     1      -1.415  12.013  22.310  0.00  0.00    +0.000 A 
ATOM      6  N   UNL     1      -1.138  12.704  23.437  0.00  0.00    +0.000 NA
ATOM      7  C   UNL     1      -2.034  13.631  23.809  0.00  0.00    +0.000 A 
ATOM      8  C   UNL     1      -3.225  13.857  23.151  0.00  0.00    +0.000 A 
ATOM      9  C   UNL     1      -3.459  13.072  22.037  0.00  0.00    +0.000 A 
ATOM     10  N   UNL     1      -2.555  12.165  21.600  0.00  0.00    +0.000 NA
ATOM     11  C   UNL     1      -4.735  13.158  21.305  0.00  0.00    +0.000 A 
ATOM     12  C   UNL     1      -5.017  12.333  20.199  0.00  0.00    +0.000 A 
ATOM     13  C   UNL     1      -6.250  12.386  19.541  0.00  0.00    +0.000 A 
ATOM     14  C   UNL     1      -7.228  13.274  19.972  0.00  0.00    +0.000 A 
ATOM     15  C   UNL     1      -6.971  14.109  21.055  0.00  0.00    +0.000 A 
ATOM     16  C   UNL     1      -5.735  14.058  21.726  0.00  0.00    +0.000 A 
ATOM     17  C   UNL     1      -5.524  14.987  22.893  0.00  0.00    +0.000 C 
ATOM     18  C   UNL     1      -4.196  14.872  23.652  0.00  0.00    +0.000 C 
ATOM     19  C   UNL     1      -0.232  10.545  20.590  0.00  0.00    +0.000 A 
ENDROOT
BRANCH  19  20
ATOM     20  C   UNL     1      -0.839  11.068  19.408  0.00  0.00    +0.000 A 
ATOM     21  C   UNL     1      -1.809  10.492  18.602  0.00  0.00    +0.000 A 
ATOM     22  C   UNL     1      -2.037  11.372  17.517  0.00  0.00    +0.000 A 
ATOM     23  C   UNL     1      -1.209  12.443  17.725  0.00  0.00    +0.000 A 
ATOM     24  O   UNL     1      -0.472  12.266  18.851  0.00  0.00    +0.000 OA
ENDBRANCH  19  20
BRANCH   1  26
ATOM     25  N   UNL     1       1.921   7.622  19.949  0.00  0.00    +0.000 N 
ATOM     26  C   UNL     1       1.371   8.830  19.608  0.00  0.00    +0.000 C 
ATOM     27  O   UNL     1       1.394   9.254  18.457  0.00  0.00    +0.000 OA
ATOM     28  H   UNL     1       1.973   7.361  20.922  0.00  0.00    +0.000 HD
BRANCH  25  29
ATOM     29  C   UNL     1       2.615   6.805  18.967  0.00  0.00    +0.000 C 
BRANCH  29  30
ATOM     30  C   UNL     1       2.833   5.347  19.431  0.00  0.00    +0.000 C 
ATOM     31  C   UNL     1       2.268   5.164  20.853  0.00  0.00    +0.000 C 
ATOM     32  C   UNL     1       4.358   5.088  19.551  0.00  0.00    +0.000 C 
BRANCH  30  33
ATOM     33  C   UNL     1       2.215   4.329  18.413  0.00  0.00    +0.000 C 
BRANCH  33  35
ATOM     34  C   UNL     1       0.813   2.387  18.736  0.00  0.00    +0.000 C 
ATOM     35  N   UNL     1       2.194   2.889  18.758  0.00  0.00    +0.000 NA
ATOM     36  C   UNL     1       3.004   2.051  17.874  0.00  0.00    +0.000 C 
ENDBRANCH  33  35
ENDBRANCH  30  33
ENDBRANCH  29  30
ENDBRANCH  25  29
ENDBRANCH   1  26
TORSDOF 6
ENDMDL
MODEL 4
REMARK VINA RESULT:      -7.8      1.048      1.756
REMARK  Name = 
REMARK  10 active torsions:
REMARK  status: ('A' for Active; 'I' for Inactive)
REMARK    1  A    between atoms: C_1  and  N_2
REMARK    2  A    between atoms: N_2  and  C_3
REMARK    3  A    between atoms: N_2  and  C_4
REMARK    4  A    between atoms: C_4  and  C_5
REMARK    5  A    between atoms: C_5  and  C_6
REMARK    6  A    between atoms: C_5  and  C_7
REMARK    7  A    between atoms: C_5  and  C_8
REMARK    8  A    between atoms: C_8  and  N_9
REMARK    9  A    between atoms: C_10  and  C_12
REMARK   10  A    between atoms: C_30  and  C_31
REMARK                            x       y       z     vdW  Elec       q    Type
REMARK                         _______ _______ _______ _____ _____    ______ ____
ROOT
ATOM      1  C   UNL     1       0.953   9.391  20.216  0.00  0.00    +0.000 A 
ATOM      2  C   UNL     1       1.336   9.297  21.569  0.00  0.00    +0.000 A 
ATOM      3  N   UNL     1       0.730  10.184  22.352  0.00  0.00    +0.000 NA
ATOM      4  N   UNL     1      -0.151  10.831  21.517  0.00  0.00    +0.000 N 
ATOM      5  C   UNL     1      -1.078  11.799  22.052  0.00  0.00    +0.000 A 
ATOM      6  N   UNL     1      -0.709  12.478  23.160  0.00  0.00    +0.000 NA
ATOM      7  C   UNL     1      -1.581  13.386  23.625  0.00  0.00    +0.000 A 
ATOM      8  C   UNL     1      -2.829  13.603  23.082  0.00  0.00    +0.000 A 
ATOM      9  C   UNL     1      -3.152  12.831  21.982  0.00  0.00    +0.000 A 
ATOM     10  N   UNL     1      -2.281  11.944  21.451  0.00  0.00    +0.000 NA
ATOM     11  C   UNL     1      -4.491  12.909  21.370  0.00  0.00    +0.000 A 
ATOM     12  C   UNL     1      -4.862  12.095  20.282  0.00  0.00    +0.000 A 
ATOM     13  C   UNL     1      -6.150  12.139  19.740  0.00  0.00    +0.000 A 
ATOM     14  C   UNL     1      -7.097  13.006  20.271  0.00  0.00    +0.000 A 
ATOM     15  C   UNL     1      -6.753  13.830  21.340  0.00  0.00    +0.000 A 
ATOM     16  C   UNL     1      -5.460  13.787  21.894  0.00  0.00    +0.000 A 
ATOM     17  C   UNL     1      -5.157  14.703  23.051  0.00  0.00    +0.000 C 
ATOM     18  C   UNL     1      -3.764  14.598  23.685  0.00  0.00    +0.000 C 
ATOM     19  C   UNL     1      -0.038  10.373  20.210  0.00  0.00    +0.000 A 
ENDROOT
BRANCH  19  20
ATOM     20  C   UNL     1      -0.757  10.903  19.096  0.00  0.00    +0.000 A 
ATOM     21  C   UNL     1      -1.781  10.320  18.365  0.00  0.00    +0.000 A 
ATOM     22  C   UNL     1      -2.121  11.215  17.323  0.00  0.00    +0.000 A 
ATOM     23  C   UNL     1      -1.301  12.300  17.479  0.00  0.00    +0.000 A 
ATOM     24  O   UNL     1      -0.465  12.119  18.533  0.00  0.00    +0.000 OA
ENDBRANCH  19  20
BRANCH   1  26
ATOM     25  N   UNL     1       2.190   7.551  19.343  0.00  0.00    +0.000 N 
ATOM     26  C   UNL     1       1.492   8.696  19.060  0.00  0.00    +0.000 C 
ATOM     27  O   UNL     1       1.320   9.086  17.909  0.00  0.00    +0.000 OA
ATOM     28  H   UNL     1       2.397   7.324  20.304  0.00  0.00    +0.000 HD
BRANCH  25  29
ATOM     29  C   UNL     1       2.815   6.768  18.289  0.00  0.00    +0.000 C 
BRANCH  29  30
ATOM     30  C   UNL     1       3.085   5.302  18.697  0.00  0.00    +0.000 C 
ATOM     31  C   UNL     1       4.362   5.229  19.557  0.00  0.00    +0.000 C 
ATOM     32  C   UNL     1       3.395   4.480  17.417  0.00  0.00    +0.000 C 
BRANCH  30  33
ATOM     33  C   UNL     1       1.846   4.677  19.424  0.00  0.00    +0.000 C 
BRANCH  33  35
ATOM     34  C   UNL     1       1.686   3.046  21.201  0.00  0.00    +0.000 C 
ATOM     35  N   UNL     1       1.859   3.233  19.754  0.00  0.00    +0.000 NA
ATOM     36  C   UNL     1       0.832   2.454  19.063  0.00  0.00    +0.000 C 
ENDBRANCH  33  35
ENDBRANCH  30  33
ENDBRANCH  29  30
ENDBRANCH  25  29
ENDBRANCH   1  26
TORSDOF 6
ENDMDL
MODEL 5
REMARK VINA RESULT:      -7.7      1.469      1.961
REMARK  Name = 
REMARK  10 active torsions:
REMARK  status: ('A' for Active; 'I' for Inactive)
REMARK    1  A    between atoms: C_1  and  N_2
REMARK    2  A    between atoms: N_2  and  C_3
REMARK    3  A    between atoms: N_2  and  C_4
REMARK    4  A    between atoms: C_4  and  C_5
REMARK    5  A    between atoms: C_5  and  C_6
REMARK    6  A    between atoms: C_5  and  C_7
REMARK    7  A    between atoms: C_5  and  C_8
REMARK    8  A    between atoms: C_8  and  N_9
REMARK    9  A    between atoms: C_10  and  C_12
REMARK   10  A    between atoms: C_30  and  C_31
REMARK                            x       y       z     vdW  Elec       q    Type
REMARK                         _______ _______ _______ _____ _____    ______ ____
ROOT
ATOM      1  C   UNL     1       0.812  10.251  19.677  0.00  0.00    +0.000 A 
ATOM      2  C   UNL     1       1.338  10.731  20.892  0.00  0.00    +0.000 A 
ATOM      3  N   UNL     1       0.609  11.701  21.436  0.00  0.00    +0.000 NA
ATOM      4  N   UNL     1      -0.484  11.812  20.609  0.00  0.00    +0.000 N 
ATOM      5  C   UNL     1      -1.567  12.701  20.955  0.00  0.00    +0.000 A 
ATOM      6  N   UNL     1      -1.273  13.794  21.692  0.00  0.00    +0.000 NA
ATOM      7  C   UNL     1      -2.293  14.615  21.983  0.00  0.00    +0.000 A 
ATOM      8  C   UNL     1      -3.604  14.366  21.634  0.00  0.00    +0.000 A 
ATOM      9  C   UNL     1      -3.830  13.199  20.926  0.00  0.00    +0.000 A 
ATOM     10  N   UNL     1      -2.821  12.374  20.568  0.00  0.00    +0.000 NA
ATOM     11  C   UNL     1      -5.199  12.781  20.576  0.00  0.00    +0.000 A 
ATOM     12  C   UNL     1      -5.460  11.573  19.902  0.00  0.00    +0.000 A 
ATOM     13  C   UNL     1      -6.764  11.158  19.618  0.00  0.00    +0.000 A 
ATOM     14  C   UNL     1      -7.841  11.950  19.997  0.00  0.00    +0.000 A 
ATOM     15  C   UNL     1      -7.612  13.156  20.655  0.00  0.00    +0.000 A 
ATOM     16  C   UNL     1      -6.301  13.577  20.948  0.00  0.00    +0.000 A 
ATOM     17  C   UNL     1      -6.125  14.890  21.666  0.00  0.00    +0.000 C 
ATOM     18  C   UNL     1      -4.694  15.302  22.035  0.00  0.00    +0.000 C 
ATOM     19  C   UNL     1      -0.389  10.944  19.527  0.00  0.00    +0.000 A 
ENDROOT
BRANCH  19  20
ATOM     20  C   UNL     1      -1.325  10.880  18.451  0.00  0.00    +0.000 A 
ATOM     21  C   UNL     1      -2.152   9.831  18.080  0.00  0.00    +0.000 A 
ATOM     22  C   UNL     1      -2.846  10.230  16.912  0.00  0.00    +0.000 A 
ATOM     23  C   UNL     1      -2.420  11.503  16.642  0.00  0.00    +0.000 A 
ATOM     24  O   UNL     1      -1.494  11.900  17.550  0.00  0.00    +0.000 OA
ENDBRANCH  19  20
BRANCH   1  26
ATOM     25  N   UNL     1       1.820   8.128  19.284  0.00  0.00    +0.000 N 
ATOM     26  C   UNL     1       1.391   9.308  18.735  0.00  0.00    +0.000 C 
ATOM     27  O   UNL     1       1.472   9.533  17.532  0.00  0.00    +0.000 OA
ATOM     28  H   UNL     1       1.832   8.026  20.289  0.00  0.00    +0.000 HD
BRANCH  25  29
ATOM     29  C   UNL     1       2.451   7.101  18.470  0.00  0.00    +0.000 C 
BRANCH  29  30
ATOM     30  C   UNL     1       2.530   5.728  19.173  0.00  0.00    +0.000 C 
ATOM     31  C   UNL     1       1.781   5.788  20.518  0.00  0.00    +0.000 C 
ATOM     32  C   UNL     1       4.012   5.439  19.533  0.00  0.00    +0.000 C 
BRANCH  30  33
ATOM     33  C   UNL     1       1.992   4.584  18.247  0.00  0.00    +0.000 C 
BRANCH  33  35
ATOM     34  C   UNL     1       0.768   2.587  18.845  0.00  0.00    +0.000 C 
ATOM     35  N   UNL     1       2.105   3.179  18.700  0.00  0.00    +0.000 NA
ATOM     36  C   UNL     1       2.892   2.326  17.809  0.00  0.00    +0.000 C 
ENDBRANCH  33  35
ENDBRANCH  30  33
ENDBRANCH  29  30
ENDBRANCH  25  29
ENDBRANCH   1  26
TORSDOF 6
ENDMDL
MODEL 6
REMARK VINA RESULT:      -7.7      1.014      1.383
REMARK  Name = 
REMARK  10 active torsions:
REMARK  status: ('A' for Active; 'I' for Inactive)
REMARK    1  A    between atoms: C_1  and  N_2
REMARK    2  A    between atoms: N_2  and  C_3
REMARK    3  A    between atoms: N_2  and  C_4
REMARK    4  A    between atoms: C_4  and  C_5
REMARK    5  A    between atoms: C_5  and  C_6
REMARK    6  A    between atoms: C_5  and  C_7
REMARK    7  A    between atoms: C_5  and  C_8
REMARK    8  A    between atoms: C_8  and  N_9
REMARK    9  A    between atoms: C_10  and  C_12
REMARK   10  A    between atoms: C_30  and  C_31
REMARK                            x       y       z     vdW  Elec       q    Type
REMARK                         _______ _______ _______ _____ _____    ______ ____
ROOT
ATOM      1  C   UNL     1       0.606   9.420  21.144  0.00  0.00    +0.000 A 
ATOM      2  C   UNL     1       0.687   9.333  22.549  0.00  0.00    +0.000 A 
ATOM      3  N   UNL     1      -0.031  10.259  23.177  0.00  0.00    +0.000 NA
ATOM      4  N   UNL     1      -0.682  10.929  22.169  0.00  0.00    +0.000 N 
ATOM      5  C   UNL     1      -1.658  11.945  22.485  0.00  0.00    +0.000 A 
ATOM      6  N   UNL     1      -1.502  12.627  23.641  0.00  0.00    +0.000 NA
ATOM      7  C   UNL     1      -2.410  13.579  23.903  0.00  0.00    +0.000 A 
ATOM      8  C   UNL     1      -3.503  13.841  23.103  0.00  0.00    +0.000 A 
ATOM      9  C   UNL     1      -3.619  13.064  21.965  0.00  0.00    +0.000 A 
ATOM     10  N   UNL     1      -2.696  12.131  21.639  0.00  0.00    +0.000 NA
ATOM     11  C   UNL     1      -4.791  13.190  21.081  0.00  0.00    +0.000 A 
ATOM     12  C   UNL     1      -4.958  12.375  19.945  0.00  0.00    +0.000 A 
ATOM     13  C   UNL     1      -6.097  12.465  19.139  0.00  0.00    +0.000 A 
ATOM     14  C   UNL     1      -7.095  13.381  19.449  0.00  0.00    +0.000 A 
ATOM     15  C   UNL     1      -6.950  14.207  20.560  0.00  0.00    +0.000 A 
ATOM     16  C   UNL     1      -5.809  14.118  21.379  0.00  0.00    +0.000 A 
ATOM     17  C   UNL     1      -5.718  15.039  22.567  0.00  0.00    +0.000 C 
ATOM     18  C   UNL     1      -4.498  14.885  23.484  0.00  0.00    +0.000 C 
ATOM     19  C   UNL     1      -0.314  10.444  20.919  0.00  0.00    +0.000 A 
ENDROOT
BRANCH  19  20
ATOM     20  C   UNL     1      -0.754  10.986  19.673  0.00  0.00    +0.000 A 
ATOM     21  C   UNL     1      -0.402  12.186  19.074  0.00  0.00    +0.000 A 
ATOM     22  C   UNL     1      -1.152  12.299  17.879  0.00  0.00    +0.000 A 
ATOM     23  C   UNL     1      -1.908  11.159  17.802  0.00  0.00    +0.000 A 
ATOM     24  O   UNL     1      -1.689  10.368  18.882  0.00  0.00    +0.000 OA
ENDBRANCH  19  20
BRANCH   1  26
ATOM     25  N   UNL     1       1.834   7.469  20.543  0.00  0.00    +0.000 N 
ATOM     26  C   UNL     1       1.347   8.683  20.135  0.00  0.00    +0.000 C 
ATOM     27  O   UNL     1       1.510   9.099  18.992  0.00  0.00    +0.000 OA
ATOM     28  H   UNL     1       1.769   7.213  21.517  0.00  0.00    +0.000 HD
BRANCH  25  29
ATOM     29  C   UNL     1       2.623   6.634  19.652  0.00  0.00    +0.000 C 
BRANCH  29  30
ATOM     30  C   UNL     1       2.218   5.143  19.693  0.00  0.00    +0.000 C 
ATOM     31  C   UNL     1       0.833   4.999  20.354  0.00  0.00    +0.000 C 
ATOM     32  C   UNL     1       3.204   4.386  20.621  0.00  0.00    +0.000 C 
BRANCH  30  33
ATOM     33  C   UNL     1       2.260   4.503  18.264  0.00  0.00    +0.000 C 
BRANCH  33  35
ATOM     34  C   UNL     1       2.552   2.184  17.648  0.00  0.00    +0.000 C 
ATOM     35  N   UNL     1       3.246   3.435  17.982  0.00  0.00    +0.000 NA
ATOM     36  C   UNL     1       4.175   3.751  16.897  0.00  0.00    +0.000 C 
ENDBRANCH  33  35
ENDBRANCH  30  33
ENDBRANCH  29  30
ENDBRANCH  25  29
ENDBRANCH   1  26
TORSDOF 6
ENDMDL
MODEL 7
REMARK VINA RESULT:      -7.6      1.313      1.451
REMARK  Name = 
REMARK  10 active torsions:
REMARK  status: ('A' for Active; 'I' for Inactive)
REMARK    1  A    between atoms: C_1  and  N_2
REMARK    2  A    between atoms: N_2  and  C_3
REMARK    3  A    between atoms: N_2  and  C_4
REMARK    4  A    between atoms: C_4  and  C_5
REMARK    5  A    between atoms: C_5  and  C_6
REMARK    6  A    between atoms: C_5  and  C_7
REMARK    7  A    between atoms: C_5  and  C_8
REMARK    8  A    between atoms: C_8  and  N_9
REMARK    9  A    between atoms: C_10  and  C_12
REMARK   10  A    between atoms: C_30  and  C_31
REMARK                            x       y       z     vdW  Elec       q    Type
REMARK                         _______ _______ _______ _____ _____    ______ ____
ROOT
ATOM      1  C   UNL     1       0.850  10.376  19.623  0.00  0.00    +0.000 A 
ATOM      2  C   UNL     1       1.377  10.901  20.820  0.00  0.00    +0.000 A 
ATOM      3  N   UNL     1       0.630  11.866  21.347  0.00  0.00    +0.000 NA
ATOM      4  N   UNL     1      -0.474  11.929  20.531  0.00  0.00    +0.000 N 
ATOM      5  C   UNL     1      -1.575  12.800  20.867  0.00  0.00    +0.000 A 
ATOM      6  N   UNL     1      -1.299  13.918  21.572  0.00  0.00    +0.000 NA
ATOM      7  C   UNL     1      -2.337  14.721  21.854  0.00  0.00    +0.000 A 
ATOM      8  C   UNL     1      -3.645  14.432  21.527  0.00  0.00    +0.000 A 
ATOM      9  C   UNL     1      -3.850  13.242  20.852  0.00  0.00    +0.000 A 
ATOM     10  N   UNL     1      -2.824  12.433  20.502  0.00  0.00    +0.000 NA
ATOM     11  C   UNL     1      -5.212  12.782  20.528  0.00  0.00    +0.000 A 
ATOM     12  C   UNL     1      -5.450  11.550  19.888  0.00  0.00    +0.000 A 
ATOM     13  C   UNL     1      -6.747  11.097  19.630  0.00  0.00    +0.000 A 
ATOM     14  C   UNL     1      -7.839  11.872  20.002  0.00  0.00    +0.000 A 
ATOM     15  C   UNL     1      -7.632  13.099  20.626  0.00  0.00    +0.000 A 
ATOM     16  C   UNL     1      -6.329  13.560  20.893  0.00  0.00    +0.000 A 
ATOM     17  C   UNL     1      -6.177  14.895  21.575  0.00  0.00    +0.000 C 
ATOM     18  C   UNL     1      -4.753  15.351  21.917  0.00  0.00    +0.000 C 
ATOM     19  C   UNL     1      -0.370  11.036  19.470  0.00  0.00    +0.000 A 
ENDROOT
BRANCH  19  20
ATOM     20  C   UNL     1      -1.316  10.921  18.407  0.00  0.00    +0.000 A 
ATOM     21  C   UNL     1      -2.138   9.852  18.087  0.00  0.00    +0.000 A 
ATOM     22  C   UNL     1      -2.847  10.199  16.912  0.00  0.00    +0.000 A 
ATOM     23  C   UNL     1      -2.434  11.463  16.585  0.00  0.00    +0.000 A 
ATOM     24  O   UNL     1      -1.502  11.903  17.468  0.00  0.00    +0.000 OA
ENDBRANCH  19  20
BRANCH   1  26
ATOM     25  N   UNL     1       1.840   8.239  19.262  0.00  0.00    +0.000 N 
ATOM     26  C   UNL     1       1.441   9.424  18.700  0.00  0.00    +0.000 C 
ATOM     27  O   UNL     1       1.558   9.645  17.499  0.00  0.00    +0.000 OA
ATOM     28  H   UNL     1       1.823   8.140  20.266  0.00  0.00    +0.000 HD
BRANCH  25  29
ATOM     29  C   UNL     1       2.478   7.203  18.467  0.00  0.00    +0.000 C 
BRANCH  29  30
ATOM     30  C   UNL     1       2.504   5.826  19.166  0.00  0.00    +0.000 C 
ATOM     31  C   UNL     1       1.749   4.792  18.307  0.00  0.00    +0.000 C 
ATOM     32  C   UNL     1       1.707   5.927  20.494  0.00  0.00    +0.000 C 
BRANCH  30  33
ATOM     33  C   UNL     1       3.972   5.375  19.479  0.00  0.00    +0.000 C 
BRANCH  33  35
ATOM     34  C   UNL     1       5.898   4.488  18.319  0.00  0.00    +0.000 C 
ATOM     35  N   UNL     1       4.530   4.200  18.772  0.00  0.00    +0.000 NA
ATOM     36  C   UNL     1       4.558   2.977  19.574  0.00  0.00    +0.000 C 
ENDBRANCH  33  35
ENDBRANCH  30  33
ENDBRANCH  29  30
ENDBRANCH  25  29
ENDBRANCH   1  26
TORSDOF 6
ENDMDL
MODEL 8
REMARK VINA RESULT:      -7.1      1.083      1.937
REMARK  Name = 
REMARK  10 active torsions:
REMARK  status: ('A' for Active; 'I' for Inactive)
REMARK    1  A    between atoms: C_1  and  N_2
REMARK    2  A    between atoms: N_2  and  C_3
REMARK    3  A    between atoms: N_2  and  C_4
REMARK    4  A    between atoms: C_4  and  C_5
REMARK    5  A    between atoms: C_5  and  C_6
REMARK    6  A    between atoms: C_5  and  C_7
REMARK    7  A    between atoms: C_5  and  C_8
REMARK    8  A    between atoms: C_8  and  N_9
REMARK    9  A    between atoms: C_10  and  C_12
REMARK   10  A    between atoms: C_30  and  C_31
REMARK                            x       y       z     vdW  Elec       q    Type
REMARK                         _______ _______ _______ _____ _____    ______ ____
ROOT
ATOM      1  C   UNL     1       0.792   9.395  20.852  0.00  0.00    +0.000 A 
ATOM      2  C   UNL     1       0.967   9.319  22.248  0.00  0.00    +0.000 A 
ATOM      3  N   UNL     1       0.283  10.243  22.916  0.00  0.00    +0.000 NA
ATOM      4  N   UNL     1      -0.440  10.900  21.949  0.00  0.00    +0.000 N 
ATOM      5  C   UNL     1      -1.402  11.909  22.323  0.00  0.00    +0.000 A 
ATOM      6  N   UNL     1      -1.177  12.600  23.461  0.00  0.00    +0.000 NA
ATOM      7  C   UNL     1      -2.075  13.547  23.776  0.00  0.00    +0.000 A 
ATOM      8  C   UNL     1      -3.221  13.792  23.049  0.00  0.00    +0.000 A 
ATOM      9  C   UNL     1      -3.405  13.006  21.926  0.00  0.00    +0.000 A 
ATOM     10  N   UNL     1      -2.496  12.079  21.547  0.00  0.00    +0.000 NA
ATOM     11  C   UNL     1      -4.634  13.114  21.121  0.00  0.00    +0.000 A 
ATOM     12  C   UNL     1      -4.868  12.289  20.004  0.00  0.00    +0.000 A 
ATOM     13  C   UNL     1      -6.059  12.363  19.275  0.00  0.00    +0.000 A 
ATOM     14  C   UNL     1      -7.042  13.272  19.644  0.00  0.00    +0.000 A 
ATOM     15  C   UNL     1      -6.832  14.108  20.737  0.00  0.00    +0.000 A 
ATOM     16  C   UNL     1      -5.638  14.036  21.479  0.00  0.00    +0.000 A 
ATOM     17  C   UNL     1      -5.478  14.966  22.653  0.00  0.00    +0.000 C 
ATOM     18  C   UNL     1      -4.199  14.830  23.488  0.00  0.00    +0.000 C 
ATOM     19  C   UNL     1      -0.151  10.409  20.681  0.00  0.00    +0.000 A 
ENDROOT
BRANCH  19  20
ATOM     20  C   UNL     1      -0.677  10.937  19.463  0.00  0.00    +0.000 A 
ATOM     21  C   UNL     1      -0.371  12.132  18.830  0.00  0.00    +0.000 A 
ATOM     22  C   UNL     1      -1.203  12.232  17.689  0.00  0.00    +0.000 A 
ATOM     23  C   UNL     1      -1.958  11.090  17.676  0.00  0.00    +0.000 A 
ATOM     24  O   UNL     1      -1.664  10.310  18.746  0.00  0.00    +0.000 OA
ENDBRANCH  19  20
BRANCH   1  26
ATOM     25  N   UNL     1       2.095   7.507  20.208  0.00  0.00    +0.000 N 
ATOM     26  C   UNL     1       1.472   8.657  19.801  0.00  0.00    +0.000 C 
ATOM     27  O   UNL     1       1.473   9.018  18.629  0.00  0.00    +0.000 OA
ATOM     28  H   UNL     1       2.159   7.303  21.195  0.00  0.00    +0.000 HD
BRANCH  25  29
ATOM     29  C   UNL     1       2.843   6.682  19.274  0.00  0.00    +0.000 C 
BRANCH  29  30
ATOM     30  C   UNL     1       2.448   5.189  19.326  0.00  0.00    +0.000 C 
ATOM     31  C   UNL     1       3.714   4.322  19.471  0.00  0.00    +0.000 C 
ATOM     32  C   UNL     1       1.823   4.792  17.962  0.00  0.00    +0.000 C 
BRANCH  30  33
ATOM     33  C   UNL     1       1.411   4.915  20.468  0.00  0.00    +0.000 C 
BRANCH  33  35
ATOM     34  C   UNL     1       0.918   2.791  19.425  0.00  0.00    +0.000 C 
ATOM     35  N   UNL     1       0.939   3.530  20.695  0.00  0.00    +0.000 NA
ATOM     36  C   UNL     1       1.745   2.775  21.654  0.00  0.00    +0.000 C 
ENDBRANCH  33  35
ENDBRANCH  30  33
ENDBRANCH  29  30
ENDBRANCH  25  29
ENDBRANCH   1  26
TORSDOF 6
ENDMDL
MODEL 9
REMARK VINA RESULT:      -7.0      2.857      3.405
REMARK  Name = 
REMARK  10 active torsions:
REMARK  status: ('A' for Active; 'I' for Inactive)
REMARK    1  A    between atoms: C_1  and  N_2
REMARK    2  A    between atoms: N_2  and  C_3
REMARK    3  A    between atoms: N_2  and  C_4
REMARK    4  A    between atoms: C_4  and  C_5
REMARK    5  A    between atoms: C_5  and  C_6
REMARK    6  A    between atoms: C_5  and  C_7
REMARK    7  A    between atoms: C_5  and  C_8
REMARK    8  A    between atoms: C_8  and  N_9
REMARK    9  A    between atoms: C_10  and  C_12
REMARK   10  A    between atoms: C_30  and  C_31
REMARK                            x       y       z     vdW  Elec       q    Type
REMARK                         _______ _______ _______ _____ _____    ______ ____
ROOT
ATOM      1  C   UNL     1       0.538   9.972  20.182  0.00  0.00    +0.000 A 
ATOM      2  C   UNL     1      -0.354   9.496  21.164  0.00  0.00    +0.000 A 
ATOM      3  N   UNL     1      -0.811  10.451  21.969  0.00  0.00    +0.000 NA
ATOM      4  N   UNL     1      -0.281  11.612  21.458  0.00  0.00    +0.000 N 
ATOM      5  C   UNL     1      -0.660  12.889  22.015  0.00  0.00    +0.000 A 
ATOM      6  N   UNL     1      -1.013  12.926  23.318  0.00  0.00    +0.000 NA
ATOM      7  C   UNL     1      -1.341  14.128  23.817  0.00  0.00    +0.000 A 
ATOM      8  C   UNL     1      -1.401  15.282  23.065  0.00  0.00    +0.000 A 
ATOM      9  C   UNL     1      -1.076  15.150  21.728  0.00  0.00    +0.000 A 
ATOM     10  N   UNL     1      -0.688  13.967  21.200  0.00  0.00    +0.000 NA
ATOM     11  C   UNL     1      -1.191  16.295  20.806  0.00  0.00    +0.000 A 
ATOM     12  C   UNL     1      -0.916  16.173  19.430  0.00  0.00    +0.000 A 
ATOM     13  C   UNL     1      -1.075  17.250  18.553  0.00  0.00    +0.000 A 
ATOM     14  C   UNL     1      -1.507  18.480  19.036  0.00  0.00    +0.000 A 
ATOM     15  C   UNL     1      -1.774  18.630  20.394  0.00  0.00    +0.000 A 
ATOM     16  C   UNL     1      -1.621  17.549  21.282  0.00  0.00    +0.000 A 
ATOM     17  C   UNL     1      -1.932  17.780  22.738  0.00  0.00    +0.000 C 
ATOM     18  C   UNL     1      -1.822  16.575  23.680  0.00  0.00    +0.000 C 
ATOM     19  C   UNL     1       0.547  11.354  20.371  0.00  0.00    +0.000 A 
ENDROOT
BRANCH  19  20
ATOM     20  C   UNL     1       1.307  12.342  19.674  0.00  0.00    +0.000 A 
ATOM     21  C   UNL     1       1.101  12.862  18.405  0.00  0.00    +0.000 A 
ATOM     22  C   UNL     1       2.159  13.765  18.141  0.00  0.00    +0.000 A 
ATOM     23  C   UNL     1       2.944  13.761  19.263  0.00  0.00    +0.000 A 
ATOM     24  O   UNL     1       2.451  12.898  20.187  0.00  0.00    +0.000 OA
ENDBRANCH  19  20
BRANCH   1  26
ATOM     25  N   UNL     1       1.869   8.054  19.706  0.00  0.00    +0.000 N 
ATOM     26  C   UNL     1       1.336   9.223  19.228  0.00  0.00    +0.000 C 
ATOM     27  O   UNL     1       1.506   9.589  18.069  0.00  0.00    +0.000 OA
ATOM     28  H   UNL     1       1.793   7.844  20.690  0.00  0.00    +0.000 HD
BRANCH  25  29
ATOM     29  C   UNL     1       2.717   7.215  18.875  0.00  0.00    +0.000 C 
BRANCH  29  30
ATOM     30  C   UNL     1       2.624   5.714  19.228  0.00  0.00    +0.000 C 
ATOM     31  C   UNL     1       1.926   4.953  18.083  0.00  0.00    +0.000 C 
ATOM     32  C   UNL     1       1.701   5.550  20.463  0.00  0.00    +0.000 C 
BRANCH  30  33
ATOM     33  C   UNL     1       4.036   5.120  19.556  0.00  0.00    +0.000 C 
BRANCH  33  35
ATOM     34  C   UNL     1       5.864   4.235  18.245  0.00  0.00    +0.000 C 
ATOM     35  N   UNL     1       4.525   3.956  18.782  0.00  0.00    +0.000 NA
ATOM     36  C   UNL     1       4.587   2.712  19.550  0.00  0.00    +0.000 C 
ENDBRANCH  33  35
ENDBRANCH  30  33
ENDBRANCH  29  30
ENDBRANCH  25  29
ENDBRANCH   1  26
TORSDOF 6
ENDMDL
