MODEL 1
REMARK VINA RESULT:      -7.0      0.000      0.000
REMARK  Name = 
REMARK  6 active torsions:
REMARK  status: ('A' for Active; 'I' for Inactive)
REMARK    1  A    between atoms: C_1  and  C_2
REMARK    2  A    between atoms: N_4  and  C_5
REMARK    3  A    between atoms: C_13  and  C_14
REMARK    4  A    between atoms: N_19  and  C_20
REMARK    5  A    between atoms: C_20  and  C_21
REMARK    6  A    between atoms: C_21  and  O_23
REMARK                            x       y       z     vdW  Elec       q    Type
REMARK                         _______ _______ _______ _____ _____    ______ ____
ROOT
ATOM      1  C   UNL     1       7.563   6.082  19.117  0.00  0.00    +0.000 C 
ATOM      2  C   UNL     1       6.767   5.574  17.969  0.00  0.00    +0.000 A 
ATOM      3  N   UNL     1       7.362   5.237  16.815  0.00  0.00    +0.000 NA
ATOM      4  N   UNL     1       6.340   4.885  15.974  0.00  0.00    +0.000 N 
ATOM      5  C   UNL     1       5.136   4.884  16.662  0.00  0.00    +0.000 A 
ATOM      6 CL   UNL     1       3.686   4.220  16.035  0.00  0.00    +0.000 Cl
ATOM      7  C   UNL     1       5.377   5.345  17.931  0.00  0.00    +0.000 A 
ENDROOT
BRANCH   7   8
ATOM      8  C   UNL     1       4.411   5.467  18.975  0.00  0.00    +0.000 C 
ATOM      9  C   UNL     1       3.469   6.415  19.050  0.00  0.00    +0.000 C 
ATOM     10  S   UNL     1       3.186   7.682  17.915  0.00  0.00    +0.000 S 
ATOM     11  C   UNL     1       1.938   8.430  18.905  0.00  0.00    +0.000 C 
ATOM     12  S   UNL     1       1.185   9.844  18.450  0.00  0.00    +0.000 S 
ATOM     13  N   UNL     1       1.740   7.684  20.047  0.00  0.00    +0.000 N 
ATOM     14  C   UNL     1       2.506   6.542  20.176  0.00  0.00    +0.000 C 
ATOM     15  O   UNL     1       2.361   5.716  21.069  0.00  0.00    +0.000 OA
BRANCH  13  16
ATOM     16  C   UNL     1       0.808   8.040  21.122  0.00  0.00    +0.000 C 
BRANCH  16  17
ATOM     17  C   UNL     1       1.258   9.257  21.923  0.00  0.00    +0.000 C 
ATOM     18  O   UNL     1       0.784  10.375  21.776  0.00  0.00    +0.000 OA
BRANCH  17  19
ATOM     19  O   UNL     1       2.301   9.019  22.754  0.00  0.00    +0.000 OA
ATOM     20  H   UNL     1       2.802   9.819  23.032  0.00  0.00    +0.000 HD
ENDBRANCH  17  19
ENDBRANCH  16  17
ENDBRANCH  13  16
ENDBRANCH   7   8
BRANCH   4  21
ATOM     21  C   UNL     1       6.610   4.589  14.603  0.00  0.00    +0.000 A 
ATOM     22  C   UNL     1       5.875   3.594  13.939  0.00  0.00    +0.000 A 
ATOM     23  C   UNL     1       6.073   3.373  12.571  0.00  0.00    +0.000 A 
ATOM     24  C   UNL     1       7.027   4.110  11.869  0.00  0.00    +0.000 A 
ATOM     25  C   UNL     1       7.805   5.049  12.538  0.00  0.00    +0.000 A 
ATOM     26  C   UNL     1       7.605   5.282  13.900  0.00  0.00    +0.000 A 
ENDBRANCH   4  21
TORSDOF 5
ENDMDL
MODEL 2
REMARK VINA RESULT:      -6.7      3.871      5.924
REMARK  Name = 
REMARK  6 active torsions:
REMARK  status: ('A' for Active; 'I' for Inactive)
REMARK    1  A    between atoms: C_1  and  C_2
REMARK    2  A    between atoms: N_4  and  C_5
REMARK    3  A    between atoms: C_13  and  C_14
REMARK    4  A    between atoms: N_19  and  C_20
REMARK    5  A    between atoms: C_20  and  C_21
REMARK    6  A    between atoms: C_21  and  O_23
REMARK                            x       y       z     vdW  Elec       q    Type
REMARK                         _______ _______ _______ _____ _____    ______ ____
ROOT
ATOM      1  C   UNL     1       2.165  10.828  17.788  0.00  0.00    +0.000 C 
ATOM      2  C   UNL     1       2.129   9.467  18.386  0.00  0.00    +0.000 A 
ATOM      3  N   UNL     1       2.714   8.429  17.771  0.00  0.00    +0.000 NA
ATOM      4  N   UNL     1       2.429   7.341  18.553  0.00  0.00    +0.000 N 
ATOM      5  C   UNL     1       1.782   7.744  19.711  0.00  0.00    +0.000 A 
ATOM      6 CL   UNL     1       1.526   6.719  21.060  0.00  0.00    +0.000 Cl
ATOM      7  C   UNL     1       1.555   9.093  19.618  0.00  0.00    +0.000 A 
ENDROOT
BRANCH   7   8
ATOM      8  C   UNL     1       0.943   9.910  20.616  0.00  0.00    +0.000 C 
ATOM      9  C   UNL     1      -0.227  10.546  20.485  0.00  0.00    +0.000 C 
ATOM     10  S   UNL     1      -1.270  10.517  19.112  0.00  0.00    +0.000 S 
ATOM     11  C   UNL     1      -2.383  11.692  19.802  0.00  0.00    +0.000 C 
ATOM     12  S   UNL     1      -3.709  12.247  18.962  0.00  0.00    +0.000 S 
ATOM     13  N   UNL     1      -1.960  12.047  21.066  0.00  0.00    +0.000 N 
ATOM     14  C   UNL     1      -0.816  11.427  21.528  0.00  0.00    +0.000 C 
ATOM     15  O   UNL     1      -0.385  11.545  22.669  0.00  0.00    +0.000 OA
BRANCH  13  16
ATOM     16  C   UNL     1      -2.623  13.042  21.915  0.00  0.00    +0.000 C 
BRANCH  16  17
ATOM     17  C   UNL     1      -3.756  12.455  22.749  0.00  0.00    +0.000 C 
ATOM     18  O   UNL     1      -4.939  12.573  22.460  0.00  0.00    +0.000 OA
BRANCH  17  19
ATOM     19  O   UNL     1      -3.350  11.865  23.899  0.00  0.00    +0.000 OA
ATOM     20  H   UNL     1      -3.118  10.912  23.819  0.00  0.00    +0.000 HD
ENDBRANCH  17  19
ENDBRANCH  16  17
ENDBRANCH  13  16
ENDBRANCH   7   8
BRANCH   4  21
ATOM     21  C   UNL     1       2.796   6.031  18.119  0.00  0.00    +0.000 A 
ATOM     22  C   UNL     1       1.827   5.020  18.031  0.00  0.00    +0.000 A 
ATOM     23  C   UNL     1       2.168   3.765  17.514  0.00  0.00    +0.000 A 
ATOM     24  C   UNL     1       3.480   3.499  17.120  0.00  0.00    +0.000 A 
ATOM     25  C   UNL     1       4.459   4.476  17.268  0.00  0.00    +0.000 A 
ATOM     26  C   UNL     1       4.122   5.733  17.774  0.00  0.00    +0.000 A 
ENDBRANCH   4  21
TORSDOF 5
ENDMDL
MODEL 3
REMARK VINA RESULT:      -6.7      3.816      5.810
REMARK  Name = 
REMARK  6 active torsions:
REMARK  status: ('A' for Active; 'I' for Inactive)
REMARK    1  A    between atoms: C_1  and  C_2
REMARK    2  A    between atoms: N_4  and  C_5
REMARK    3  A    between atoms: C_13  and  C_14
REMARK    4  A    between atoms: N_19  and  C_20
REMARK    5  A    between atoms: C_20  and  C_21
REMARK    6  A    between atoms: C_21  and  O_23
REMARK                            x       y       z     vdW  Elec       q    Type
REMARK                         _______ _______ _______ _____ _____    ______ ____
ROOT
ATOM      1  C   UNL     1       2.280  10.391  17.736  0.00  0.00    +0.000 C 
ATOM      2  C   UNL     1       2.213   9.035  18.339  0.00  0.00    +0.000 A 
ATOM      3  N   UNL     1       2.752   7.976  17.717  0.00  0.00    +0.000 NA
ATOM      4  N   UNL     1       2.449   6.900  18.509  0.00  0.00    +0.000 N 
ATOM      5  C   UNL     1       1.838   7.327  19.678  0.00  0.00    +0.000 A 
ATOM      6 CL   UNL     1       1.577   6.315  21.036  0.00  0.00    +0.000 Cl
ATOM      7  C   UNL     1       1.653   8.683  19.585  0.00  0.00    +0.000 A 
ENDROOT
BRANCH   7   8
ATOM      8  C   UNL     1       1.087   9.522  20.591  0.00  0.00    +0.000 C 
ATOM      9  C   UNL     1      -0.032  10.245  20.458  0.00  0.00    +0.000 C 
ATOM     10  S   UNL     1      -1.053  10.320  19.070  0.00  0.00    +0.000 S 
ATOM     11  C   UNL     1      -2.088  11.559  19.771  0.00  0.00    +0.000 C 
ATOM     12  S   UNL     1      -3.357  12.226  18.925  0.00  0.00    +0.000 S 
ATOM     13  N   UNL     1      -1.659  11.856  21.047  0.00  0.00    +0.000 N 
ATOM     14  C   UNL     1      -0.570  11.145  21.512  0.00  0.00    +0.000 C 
ATOM     15  O   UNL     1      -0.149  11.208  22.661  0.00  0.00    +0.000 OA
BRANCH  13  16
ATOM     16  C   UNL     1      -2.260  12.880  21.908  0.00  0.00    +0.000 C 
BRANCH  16  17
ATOM     17  C   UNL     1      -3.413  12.349  22.752  0.00  0.00    +0.000 C 
ATOM     18  O   UNL     1      -3.264  11.834  23.852  0.00  0.00    +0.000 OA
BRANCH  17  19
ATOM     19  O   UNL     1      -4.621  12.406  22.140  0.00  0.00    +0.000 OA
ATOM     20  H   UNL     1      -5.204  11.628  22.295  0.00  0.00    +0.000 HD
ENDBRANCH  17  19
ENDBRANCH  16  17
ENDBRANCH  13  16
ENDBRANCH   7   8
BRANCH   4  21
ATOM     21  C   UNL     1       2.766   5.577  18.073  0.00  0.00    +0.000 A 
ATOM     22  C   UNL     1       4.086   5.247  17.732  0.00  0.00    +0.000 A 
ATOM     23  C   UNL     1       4.413   3.927  17.399  0.00  0.00    +0.000 A 
ATOM     24  C   UNL     1       3.424   2.943  17.366  0.00  0.00    +0.000 A 
ATOM     25  C   UNL     1       2.103   3.281  17.637  0.00  0.00    +0.000 A 
ATOM     26  C   UNL     1       1.772   4.594  17.980  0.00  0.00    +0.000 A 
ENDBRANCH   4  21
TORSDOF 5
ENDMDL
MODEL 4
REMARK VINA RESULT:      -6.7      3.494      8.450
REMARK  Name = 
REMARK  6 active torsions:
REMARK  status: ('A' for Active; 'I' for Inactive)
REMARK    1  A    between atoms: C_1  and  C_2
REMARK    2  A    between atoms: N_4  and  C_5
REMARK    3  A    between atoms: C_13  and  C_14
REMARK    4  A    between atoms: N_19  and  C_20
REMARK    5  A    between atoms: C_20  and  C_21
REMARK    6  A    between atoms: C_21  and  O_23
REMARK                            x       y       z     vdW  Elec       q    Type
REMARK                         _______ _______ _______ _____ _____    ______ ____
ROOT
ATOM      1  C   UNL     1       1.988   4.572  21.086  0.00  0.00    +0.000 C 
ATOM      2  C   UNL     1       1.864   5.932  20.499  0.00  0.00    +0.000 A 
ATOM      3  N   UNL     1       1.452   6.969  21.243  0.00  0.00    +0.000 NA
ATOM      4  N   UNL     1       1.389   8.030  20.378  0.00  0.00    +0.000 N 
ATOM      5  C   UNL     1       1.889   7.663  19.138  0.00  0.00    +0.000 A 
ATOM      6 CL   UNL     1       2.246   8.782  17.890  0.00  0.00    +0.000 Cl
ATOM      7  C   UNL     1       2.176   6.322  19.180  0.00  0.00    +0.000 A 
ENDROOT
BRANCH   7   8
ATOM      8  C   UNL     1       2.743   5.553  18.119  0.00  0.00    +0.000 C 
ATOM      9  C   UNL     1       4.032   5.209  18.017  0.00  0.00    +0.000 C 
ATOM     10  S   UNL     1       5.293   5.586  19.131  0.00  0.00    +0.000 S 
ATOM     11  C   UNL     1       6.545   4.883  18.112  0.00  0.00    +0.000 C 
ATOM     12  S   UNL     1       8.154   4.930  18.536  0.00  0.00    +0.000 S 
ATOM     13  N   UNL     1       5.974   4.349  16.976  0.00  0.00    +0.000 N 
ATOM     14  C   UNL     1       4.600   4.445  16.875  0.00  0.00    +0.000 C 
ATOM     15  O   UNL     1       3.939   3.915  15.989  0.00  0.00    +0.000 OA
BRANCH  13  16
ATOM     16  C   UNL     1       6.726   3.725  15.882  0.00  0.00    +0.000 C 
BRANCH  16  17
ATOM     17  C   UNL     1       6.831   4.614  14.649  0.00  0.00    +0.000 C 
ATOM     18  O   UNL     1       7.523   5.621  14.598  0.00  0.00    +0.000 OA
BRANCH  17  19
ATOM     19  O   UNL     1       6.014   4.248  13.631  0.00  0.00    +0.000 OA
ATOM     20  H   UNL     1       5.062   4.170  13.868  0.00  0.00    +0.000 HD
ENDBRANCH  17  19
ENDBRANCH  16  17
ENDBRANCH  13  16
ENDBRANCH   7   8
BRANCH   4  21
ATOM     21  C   UNL     1       0.858   9.281  20.816  0.00  0.00    +0.000 A 
ATOM     22  C   UNL     1       0.949  10.412  19.991  0.00  0.00    +0.000 A 
ATOM     23  C   UNL     1       0.343  11.613  20.379  0.00  0.00    +0.000 A 
ATOM     24  C   UNL     1      -0.321  11.703  21.603  0.00  0.00    +0.000 A 
ATOM     25  C   UNL     1      -0.355  10.604  22.455  0.00  0.00    +0.000 A 
ATOM     26  C   UNL     1       0.239   9.400  22.068  0.00  0.00    +0.000 A 
ENDBRANCH   4  21
TORSDOF 5
ENDMDL
MODEL 5
REMARK VINA RESULT:      -6.5      0.848      1.273
REMARK  Name = 
REMARK  6 active torsions:
REMARK  status: ('A' for Active; 'I' for Inactive)
REMARK    1  A    between atoms: C_1  and  C_2
REMARK    2  A    between atoms: N_4  and  C_5
REMARK    3  A    between atoms: C_13  and  C_14
REMARK    4  A    between atoms: N_19  and  C_20
REMARK    5  A    between atoms: C_20  and  C_21
REMARK    6  A    between atoms: C_21  and  O_23
REMARK                            x       y       z     vdW  Elec       q    Type
REMARK                         _______ _______ _______ _____ _____    ______ ____
ROOT
ATOM      1  C   UNL     1       6.569   7.784  17.946  0.00  0.00    +0.000 C 
ATOM      2  C   UNL     1       6.015   6.668  17.136  0.00  0.00    +0.000 A 
ATOM      3  N   UNL     1       6.629   6.260  16.015  0.00  0.00    +0.000 NA
ATOM      4  N   UNL     1       5.821   5.282  15.499  0.00  0.00    +0.000 N 
ATOM      5  C   UNL     1       4.785   5.007  16.378  0.00  0.00    +0.000 A 
ATOM      6 CL   UNL     1       3.744   3.654  16.225  0.00  0.00    +0.000 Cl
ATOM      7  C   UNL     1       4.871   5.896  17.420  0.00  0.00    +0.000 A 
ENDROOT
BRANCH   7   8
ATOM      8  C   UNL     1       4.013   5.935  18.560  0.00  0.00    +0.000 C 
ATOM      9  C   UNL     1       3.089   6.872  18.802  0.00  0.00    +0.000 C 
ATOM     10  S   UNL     1       2.704   8.224  17.804  0.00  0.00    +0.000 S 
ATOM     11  C   UNL     1       1.563   8.890  18.967  0.00  0.00    +0.000 C 
ATOM     12  S   UNL     1       0.778  10.333  18.702  0.00  0.00    +0.000 S 
ATOM     13  N   UNL     1       1.474   8.056  20.062  0.00  0.00    +0.000 N 
ATOM     14  C   UNL     1       2.242   6.908  20.024  0.00  0.00    +0.000 C 
ATOM     15  O   UNL     1       2.180   6.014  20.860  0.00  0.00    +0.000 OA
BRANCH  13  16
ATOM     16  C   UNL     1       0.655   8.325  21.248  0.00  0.00    +0.000 C 
BRANCH  16  17
ATOM     17  C   UNL     1       1.227   9.428  22.130  0.00  0.00    +0.000 C 
ATOM     18  O   UNL     1       0.714  10.532  22.250  0.00  0.00    +0.000 OA
BRANCH  17  19
ATOM     19  O   UNL     1       2.414   9.118  22.706  0.00  0.00    +0.000 OA
ATOM     20  H   UNL     1       2.491   8.191  23.029  0.00  0.00    +0.000 HD
ENDBRANCH  17  19
ENDBRANCH  16  17
ENDBRANCH  13  16
ENDBRANCH   7   8
BRANCH   4  21
ATOM     21  C   UNL     1       6.113   4.710  14.223  0.00  0.00    +0.000 A 
ATOM     22  C   UNL     1       7.316   5.023  13.571  0.00  0.00    +0.000 A 
ATOM     23  C   UNL     1       7.645   4.388  12.367  0.00  0.00    +0.000 A 
ATOM     24  C   UNL     1       6.765   3.472  11.791  0.00  0.00    +0.000 A 
ATOM     25  C   UNL     1       5.542   3.209  12.399  0.00  0.00    +0.000 A 
ATOM     26  C   UNL     1       5.213   3.832  13.605  0.00  0.00    +0.000 A 
ENDBRANCH   4  21
TORSDOF 5
ENDMDL
MODEL 6
REMARK VINA RESULT:      -6.4      3.515      8.432
REMARK  Name = 
REMARK  6 active torsions:
REMARK  status: ('A' for Active; 'I' for Inactive)
REMARK    1  A    between atoms: C_1  and  C_2
REMARK    2  A    between atoms: N_4  and  C_5
REMARK    3  A    between atoms: C_13  and  C_14
REMARK    4  A    between atoms: N_19  and  C_20
REMARK    5  A    between atoms: C_20  and  C_21
REMARK    6  A    between atoms: C_21  and  O_23
REMARK                            x       y       z     vdW  Elec       q    Type
REMARK                         _______ _______ _______ _____ _____    ______ ____
ROOT
ATOM      1  C   UNL     1       1.880   4.338  21.109  0.00  0.00    +0.000 C 
ATOM      2  C   UNL     1       1.749   5.703  20.534  0.00  0.00    +0.000 A 
ATOM      3  N   UNL     1       1.357   6.735  21.295  0.00  0.00    +0.000 NA
ATOM      4  N   UNL     1       1.281   7.803  20.439  0.00  0.00    +0.000 N 
ATOM      5  C   UNL     1       1.755   7.443  19.187  0.00  0.00    +0.000 A 
ATOM      6 CL   UNL     1       2.092   8.571  17.941  0.00  0.00    +0.000 Cl
ATOM      7  C   UNL     1       2.037   6.101  19.213  0.00  0.00    +0.000 A 
ENDROOT
BRANCH   7   8
ATOM      8  C   UNL     1       2.580   5.338  18.136  0.00  0.00    +0.000 C 
ATOM      9  C   UNL     1       3.873   5.031  17.980  0.00  0.00    +0.000 C 
ATOM     10  S   UNL     1       5.170   5.457  19.033  0.00  0.00    +0.000 S 
ATOM     11  C   UNL     1       6.396   4.780  17.967  0.00  0.00    +0.000 C 
ATOM     12  S   UNL     1       8.020   4.879  18.320  0.00  0.00    +0.000 S 
ATOM     13  N   UNL     1       5.793   4.218  16.862  0.00  0.00    +0.000 N 
ATOM     14  C   UNL     1       4.413   4.272  16.821  0.00  0.00    +0.000 C 
ATOM     15  O   UNL     1       3.730   3.713  15.970  0.00  0.00    +0.000 OA
BRANCH  13  16
ATOM     16  C   UNL     1       6.515   3.605  15.742  0.00  0.00    +0.000 C 
BRANCH  16  17
ATOM     17  C   UNL     1       6.582   4.504  14.514  0.00  0.00    +0.000 C 
ATOM     18  O   UNL     1       6.783   5.710  14.568  0.00  0.00    +0.000 OA
BRANCH  17  19
ATOM     19  O   UNL     1       6.306   3.872  13.347  0.00  0.00    +0.000 OA
ATOM     20  H   UNL     1       5.976   4.454  12.626  0.00  0.00    +0.000 HD
ENDBRANCH  17  19
ENDBRANCH  16  17
ENDBRANCH  13  16
ENDBRANCH   7   8
BRANCH   4  21
ATOM     21  C   UNL     1       0.764   9.053  20.897  0.00  0.00    +0.000 A 
ATOM     22  C   UNL     1       0.111   9.133  22.137  0.00  0.00    +0.000 A 
ATOM     23  C   UNL     1      -0.309  10.374  22.628  0.00  0.00    +0.000 A 
ATOM     24  C   UNL     1      -0.117  11.532  21.873  0.00  0.00    +0.000 A 
ATOM     25  C   UNL     1       0.468  11.448  20.614  0.00  0.00    +0.000 A 
ATOM     26  C   UNL     1       0.899  10.214  20.123  0.00  0.00    +0.000 A 
ENDBRANCH   4  21
TORSDOF 5
ENDMDL
MODEL 7
REMARK VINA RESULT:      -6.4      4.996      9.206
REMARK  Name = 
REMARK  6 active torsions:
REMARK  status: ('A' for Active; 'I' for Inactive)
REMARK    1  A    between atoms: C_1  and  C_2
REMARK    2  A    between atoms: N_4  and  C_5
REMARK    3  A    between atoms: C_13  and  C_14
REMARK    4  A    between atoms: N_19  and  C_20
REMARK    5  A    between atoms: C_20  and  C_21
REMARK    6  A    between atoms: C_21  and  O_23
REMARK                            x       y       z     vdW  Elec       q    Type
REMARK                         _______ _______ _______ _____ _____    ______ ____
ROOT
ATOM      1  C   UNL     1      -1.784  10.461  17.831  0.00  0.00    +0.000 C 
ATOM      2  C   UNL     1      -0.823  11.405  18.460  0.00  0.00    +0.000 A 
ATOM      3  N   UNL     1      -0.880  12.720  18.200  0.00  0.00    +0.000 NA
ATOM      4  N   UNL     1       0.176  13.266  18.880  0.00  0.00    +0.000 N 
ATOM      5  C   UNL     1       0.794  12.298  19.657  0.00  0.00    +0.000 A 
ATOM      6 CL   UNL     1       1.959  12.652  20.863  0.00  0.00    +0.000 Cl
ATOM      7  C   UNL     1       0.192  11.096  19.388  0.00  0.00    +0.000 A 
ENDROOT
BRANCH   7   8
ATOM      8  C   UNL     1       0.506   9.846  20.003  0.00  0.00    +0.000 C 
ATOM      9  C   UNL     1       1.382   8.951  19.533  0.00  0.00    +0.000 C 
ATOM     10  S   UNL     1       2.342   9.096  18.108  0.00  0.00    +0.000 S 
ATOM     11  C   UNL     1       2.997   7.469  18.259  0.00  0.00    +0.000 C 
ATOM     12  S   UNL     1       4.033   6.829  17.123  0.00  0.00    +0.000 S 
ATOM     13  N   UNL     1       2.503   6.873  19.399  0.00  0.00    +0.000 N 
ATOM     14  C   UNL     1       1.652   7.637  20.174  0.00  0.00    +0.000 C 
ATOM     15  O   UNL     1       1.231   7.294  21.272  0.00  0.00    +0.000 OA
BRANCH  13  16
ATOM     16  C   UNL     1       2.799   5.497  19.813  0.00  0.00    +0.000 C 
BRANCH  16  17
ATOM     17  C   UNL     1       1.713   4.507  19.411  0.00  0.00    +0.000 C 
ATOM     18  O   UNL     1       1.599   4.050  18.282  0.00  0.00    +0.000 OA
BRANCH  17  19
ATOM     19  O   UNL     1       0.815   4.240  20.391  0.00  0.00    +0.000 OA
ATOM     20  H   UNL     1       0.937   3.374  20.843  0.00  0.00    +0.000 HD
ENDBRANCH  17  19
ENDBRANCH  16  17
ENDBRANCH  13  16
ENDBRANCH   7   8
BRANCH   4  21
ATOM     21  C   UNL     1       0.493  14.650  18.720  0.00  0.00    +0.000 A 
ATOM     22  C   UNL     1       1.823  15.049  18.515  0.00  0.00    +0.000 A 
ATOM     23  C   UNL     1       2.119  16.393  18.262  0.00  0.00    +0.000 A 
ATOM     24  C   UNL     1       1.102  17.348  18.249  0.00  0.00    +0.000 A 
ATOM     25  C   UNL     1      -0.208  16.968  18.518  0.00  0.00    +0.000 A 
ATOM     26  C   UNL     1      -0.511  15.626  18.762  0.00  0.00    +0.000 A 
ENDBRANCH   4  21
TORSDOF 5
ENDMDL
MODEL 8
REMARK VINA RESULT:      -6.4      3.593      5.386
REMARK  Name = 
REMARK  6 active torsions:
REMARK  status: ('A' for Active; 'I' for Inactive)
REMARK    1  A    between atoms: C_1  and  C_2
REMARK    2  A    between atoms: N_4  and  C_5
REMARK    3  A    between atoms: C_13  and  C_14
REMARK    4  A    between atoms: N_19  and  C_20
REMARK    5  A    between atoms: C_20  and  C_21
REMARK    6  A    between atoms: C_21  and  O_23
REMARK                            x       y       z     vdW  Elec       q    Type
REMARK                         _______ _______ _______ _____ _____    ______ ____
ROOT
ATOM      1  C   UNL     1       2.202   9.894  18.068  0.00  0.00    +0.000 C 
ATOM      2  C   UNL     1       2.230   8.500  18.584  0.00  0.00    +0.000 A 
ATOM      3  N   UNL     1       2.745   7.504  17.848  0.00  0.00    +0.000 NA
ATOM      4  N   UNL     1       2.545   6.369  18.590  0.00  0.00    +0.000 N 
ATOM      5  C   UNL     1       2.027   6.699  19.833  0.00  0.00    +0.000 A 
ATOM      6 CL   UNL     1       1.918   5.593  21.137  0.00  0.00    +0.000 Cl
ATOM      7  C   UNL     1       1.792   8.050  19.846  0.00  0.00    +0.000 A 
ENDROOT
BRANCH   7   8
ATOM      8  C   UNL     1       1.291   8.802  20.951  0.00  0.00    +0.000 C 
ATOM      9  C   UNL     1       0.312   9.712  20.888  0.00  0.00    +0.000 C 
ATOM     10  S   UNL     1      -0.578  10.174  19.486  0.00  0.00    +0.000 S 
ATOM     11  C   UNL     1      -1.457  11.441  20.334  0.00  0.00    +0.000 C 
ATOM     12  S   UNL     1      -2.539  12.436  19.553  0.00  0.00    +0.000 S 
ATOM     13  N   UNL     1      -1.083  11.459  21.661  0.00  0.00    +0.000 N 
ATOM     14  C   UNL     1      -0.155  10.511  22.051  0.00  0.00    +0.000 C 
ATOM     15  O   UNL     1       0.184  10.322  23.213  0.00  0.00    +0.000 OA
BRANCH  13  16
ATOM     16  C   UNL     1      -1.578  12.419  22.652  0.00  0.00    +0.000 C 
BRANCH  16  17
ATOM     17  C   UNL     1      -0.705  13.663  22.765  0.00  0.00    +0.000 C 
ATOM     18  O   UNL     1       0.129  13.982  21.929  0.00  0.00    +0.000 OA
BRANCH  17  19
ATOM     19  O   UNL     1      -0.861  14.347  23.925  0.00  0.00    +0.000 OA
ATOM     20  H   UNL     1      -0.315  15.162  24.004  0.00  0.00    +0.000 HD
ENDBRANCH  17  19
ENDBRANCH  16  17
ENDBRANCH  13  16
ENDBRANCH   7   8
BRANCH   4  21
ATOM     21  C   UNL     1       2.864   5.090  18.041  0.00  0.00    +0.000 A 
ATOM     22  C   UNL     1       4.123   4.864  17.466  0.00  0.00    +0.000 A 
ATOM     23  C   UNL     1       4.469   3.584  17.016  0.00  0.00    +0.000 A 
ATOM     24  C   UNL     1       3.552   2.536  17.103  0.00  0.00    +0.000 A 
ATOM     25  C   UNL     1       2.278   2.771  17.610  0.00  0.00    +0.000 A 
ATOM     26  C   UNL     1       1.932   4.044  18.069  0.00  0.00    +0.000 A 
ENDBRANCH   4  21
TORSDOF 5
ENDMDL
MODEL 9
REMARK VINA RESULT:      -6.4      6.121      9.121
REMARK  Name = 
REMARK  6 active torsions:
REMARK  status: ('A' for Active; 'I' for Inactive)
REMARK    1  A    between atoms: C_1  and  C_2
REMARK    2  A    between atoms: N_4  and  C_5
REMARK    3  A    between atoms: C_13  and  C_14
REMARK    4  A    between atoms: N_19  and  C_20
REMARK    5  A    between atoms: C_20  and  C_21
REMARK    6  A    between atoms: C_21  and  O_23
REMARK                            x       y       z     vdW  Elec       q    Type
REMARK                         _______ _______ _______ _____ _____    ______ ____
ROOT
ATOM      1  C   UNL     1       0.358  13.728  20.840  0.00  0.00    +0.000 C 
ATOM      2  C   UNL     1       0.298  12.244  20.885  0.00  0.00    +0.000 A 
ATOM      3  N   UNL     1       1.172  11.498  20.193  0.00  0.00    +0.000 NA
ATOM      4  N   UNL     1       0.786  10.201  20.406  0.00  0.00    +0.000 N 
ATOM      5  C   UNL     1      -0.244  10.157  21.333  0.00  0.00    +0.000 A 
ATOM      6 CL   UNL     1      -0.793   8.713  22.074  0.00  0.00    +0.000 Cl
ATOM      7  C   UNL     1      -0.592  11.449  21.636  0.00  0.00    +0.000 A 
ENDROOT
BRANCH   7   8
ATOM      8  C   UNL     1      -1.588  11.849  22.577  0.00  0.00    +0.000 C 
ATOM      9  C   UNL     1      -2.775  12.384  22.267  0.00  0.00    +0.000 C 
ATOM     10  S   UNL     1      -3.386  12.693  20.685  0.00  0.00    +0.000 S 
ATOM     11  C   UNL     1      -4.839  13.482  21.288  0.00  0.00    +0.000 C 
ATOM     12  S   UNL     1      -5.969  14.149  20.262  0.00  0.00    +0.000 S 
ATOM     13  N   UNL     1      -4.844  13.458  22.667  0.00  0.00    +0.000 N 
ATOM     14  C   UNL     1      -3.773  12.832  23.274  0.00  0.00    +0.000 C 
ATOM     15  O   UNL     1      -3.694  12.624  24.479  0.00  0.00    +0.000 OA
BRANCH  13  16
ATOM     16  C   UNL     1      -5.880  14.069  23.506  0.00  0.00    +0.000 C 
BRANCH  16  17
ATOM     17  C   UNL     1      -5.575  15.518  23.869  0.00  0.00    +0.000 C 
ATOM     18  O   UNL     1      -6.043  16.477  23.271  0.00  0.00    +0.000 OA
BRANCH  17  19
ATOM     19  O   UNL     1      -4.661  15.661  24.859  0.00  0.00    +0.000 OA
ATOM     20  H   UNL     1      -4.174  16.516  24.856  0.00  0.00    +0.000 HD
ENDBRANCH  17  19
ENDBRANCH  16  17
ENDBRANCH  13  16
ENDBRANCH   7   8
BRANCH   4  21
ATOM     21  C   UNL     1       1.431   9.136  19.705  0.00  0.00    +0.000 A 
ATOM     22  C   UNL     1       1.785   7.960  20.383  0.00  0.00    +0.000 A 
ATOM     23  C   UNL     1       2.329   6.881  19.676  0.00  0.00    +0.000 A 
ATOM     24  C   UNL     1       2.556   6.982  18.303  0.00  0.00    +0.000 A 
ATOM     25  C   UNL     1       2.269   8.170  17.639  0.00  0.00    +0.000 A 
ATOM     26  C   UNL     1       1.718   9.246  18.338  0.00  0.00    +0.000 A 
ENDBRANCH   4  21
TORSDOF 5
ENDMDL
