MODEL 1
REMARK VINA RESULT:      -8.9      0.000      0.000
REMARK  Name = 
REMARK  4 active torsions:
REMARK  status: ('A' for Active; 'I' for Inactive)
REMARK    1  A    between atoms: C_1  and  O_2
REMARK    2  A    between atoms: O_2  and  C_3
REMARK    3  A    between atoms: C_6  and  C_7
REMARK    4  A    between atoms: C_14  and  C_15
REMARK                            x       y       z     vdW  Elec       q    Type
REMARK                         _______ _______ _______ _____ _____    ______ ____
ROOT
ATOM      1  C   UNL     1       3.375   6.116  18.451  0.00  0.00    +0.000 A 
ATOM      2  N   UNL     1       3.070   5.413  19.554  0.00  0.00    +0.000 NA
ATOM      3  O   UNL     1       2.311   6.297  20.303  0.00  0.00    +0.000 OA
ATOM      4  C   UNL     1       2.213   7.457  19.584  0.00  0.00    +0.000 A 
ATOM      5  N   UNL     1       1.434   8.442  20.086  0.00  0.00    +0.000 N 
ATOM      6  C   UNL     1       1.155   8.511  21.514  0.00  0.00    +0.000 C 
ATOM      7  C   UNL     1      -0.293   8.952  21.707  0.00  0.00    +0.000 C 
ATOM      8  C   UNL     1      -0.647  10.230  20.938  0.00  0.00    +0.000 C 
ATOM      9  C   UNL     1      -0.201  10.123  19.469  0.00  0.00    +0.000 C 
ATOM     10  C   UNL     1       1.261   9.677  19.339  0.00  0.00    +0.000 C 
ATOM     11  N   UNL     1       2.857   7.393  18.442  0.00  0.00    +0.000 NA
ENDROOT
BRANCH   8  12
ATOM     12  C   UNL     1      -0.057  11.507  21.547  0.00  0.00    +0.000 C 
ATOM     13  O   UNL     1       1.145  11.743  21.488  0.00  0.00    +0.000 OA
ATOM     14  N   UNL     1      -0.965  12.445  22.027  0.00  0.00    +0.000 N 
ATOM     15  C   UNL     1      -0.529  13.823  22.276  0.00  0.00    +0.000 C 
ATOM     16  C   UNL     1      -1.552  14.841  21.718  0.00  0.00    +0.000 C 
ATOM     17  N   UNL     1      -2.909  14.510  22.160  0.00  0.00    +0.000 N 
ATOM     18  C   UNL     1      -3.771  15.435  22.698  0.00  0.00    +0.000 A 
ATOM     19  C   UNL     1      -3.725  16.773  22.309  0.00  0.00    +0.000 A 
ATOM     20  C   UNL     1      -4.589  17.703  22.883  0.00  0.00    +0.000 A 
ATOM     21  C   UNL     1      -5.481  17.285  23.854  0.00  0.00    +0.000 A 
ATOM     22  C   UNL     1      -5.480  15.945  24.189  0.00  0.00    +0.000 A 
ATOM     23  N   UNL     1      -4.664  15.023  23.624  0.00  0.00    +0.000 NA
ATOM     24  C   UNL     1      -3.352  13.126  21.984  0.00  0.00    +0.000 C 
ATOM     25  C   UNL     1      -2.309  12.158  22.554  0.00  0.00    +0.000 C 
ENDBRANCH   8  12
BRANCH   1  29
ATOM     26  C   UNL     1       5.724   4.489  15.266  0.00  0.00    +0.000 A 
ATOM     27  C   UNL     1       5.129   3.651  16.209  0.00  0.00    +0.000 A 
ATOM     28  C   UNL     1       4.355   4.184  17.239  0.00  0.00    +0.000 A 
ATOM     29  C   UNL     1       4.175   5.570  17.358  0.00  0.00    +0.000 A 
ATOM     30  C   UNL     1       4.786   6.407  16.415  0.00  0.00    +0.000 A 
ATOM     31  C   UNL     1       5.561   5.870  15.374  0.00  0.00    +0.000 A 
BRANCH  26  33
ATOM     32  C   UNL     1       5.844   3.660  13.056  0.00  0.00    +0.000 C 
ATOM     33  O   UNL     1       6.471   3.845  14.318  0.00  0.00    +0.000 OA
ENDBRANCH  26  33
ENDBRANCH   1  29
TORSDOF 3
ENDMDL
MODEL 2
REMARK VINA RESULT:      -8.7      2.828      3.595
REMARK  Name = 
REMARK  4 active torsions:
REMARK  status: ('A' for Active; 'I' for Inactive)
REMARK    1  A    between atoms: C_1  and  O_2
REMARK    2  A    between atoms: O_2  and  C_3
REMARK    3  A    between atoms: C_6  and  C_7
REMARK    4  A    between atoms: C_14  and  C_15
REMARK                            x       y       z     vdW  Elec       q    Type
REMARK                         _______ _______ _______ _____ _____    ______ ____
ROOT
ATOM      1  C   UNL     1       3.424   6.203  18.553  0.00  0.00    +0.000 A 
ATOM      2  N   UNL     1       2.970   5.412  19.538  0.00  0.00    +0.000 NA
ATOM      3  O   UNL     1       2.130   6.243  20.263  0.00  0.00    +0.000 OA
ATOM      4  C   UNL     1       2.142   7.465  19.647  0.00  0.00    +0.000 A 
ATOM      5  N   UNL     1       1.316   8.420  20.133  0.00  0.00    +0.000 N 
ATOM      6  C   UNL     1       0.856   8.368  21.514  0.00  0.00    +0.000 C 
ATOM      7  C   UNL     1      -0.598   8.825  21.560  0.00  0.00    +0.000 C 
ATOM      8  C   UNL     1      -0.834  10.176  20.873  0.00  0.00    +0.000 C 
ATOM      9  C   UNL     1      -0.203  10.189  19.469  0.00  0.00    +0.000 C 
ATOM     10  C   UNL     1       1.258   9.721  19.488  0.00  0.00    +0.000 C 
ATOM     11  N   UNL     1       2.927   7.488  18.596  0.00  0.00    +0.000 NA
ENDROOT
BRANCH   8  12
ATOM     12  C   UNL     1      -0.312  11.378  21.668  0.00  0.00    +0.000 C 
ATOM     13  O   UNL     1       0.167  11.238  22.789  0.00  0.00    +0.000 OA
ATOM     14  N   UNL     1      -0.269  12.596  20.999  0.00  0.00    +0.000 N 
ATOM     15  C   UNL     1       0.543  13.694  21.533  0.00  0.00    +0.000 C 
ATOM     16  C   UNL     1       1.364  14.376  20.413  0.00  0.00    +0.000 C 
ATOM     17  N   UNL     1       0.509  14.710  19.271  0.00  0.00    +0.000 N 
ATOM     18  C   UNL     1       0.513  15.942  18.665  0.00  0.00    +0.000 A 
ATOM     19  C   UNL     1       1.670  16.719  18.617  0.00  0.00    +0.000 A 
ATOM     20  C   UNL     1       1.650  17.977  18.021  0.00  0.00    +0.000 A 
ATOM     21  C   UNL     1       0.464  18.453  17.491  0.00  0.00    +0.000 A 
ATOM     22  C   UNL     1      -0.645  17.633  17.565  0.00  0.00    +0.000 A 
ATOM     23  N   UNL     1      -0.637  16.396  18.119  0.00  0.00    +0.000 NA
ATOM     24  C   UNL     1      -0.362  13.653  18.755  0.00  0.00    +0.000 C 
ATOM     25  C   UNL     1      -1.155  13.011  19.900  0.00  0.00    +0.000 C 
ENDBRANCH   8  12
BRANCH   1  29
ATOM     26  C   UNL     1       6.150   4.869  15.536  0.00  0.00    +0.000 A 
ATOM     27  C   UNL     1       6.299   6.126  16.123  0.00  0.00    +0.000 A 
ATOM     28  C   UNL     1       5.416   6.553  17.114  0.00  0.00    +0.000 A 
ATOM     29  C   UNL     1       4.351   5.738  17.526  0.00  0.00    +0.000 A 
ATOM     30  C   UNL     1       4.199   4.481  16.924  0.00  0.00    +0.000 A 
ATOM     31  C   UNL     1       5.093   4.049  15.930  0.00  0.00    +0.000 A 
BRANCH  26  33
ATOM     32  C   UNL     1       6.552   3.992  13.379  0.00  0.00    +0.000 C 
ATOM     33  O   UNL     1       7.069   4.576  14.567  0.00  0.00    +0.000 OA
ENDBRANCH  26  33
ENDBRANCH   1  29
TORSDOF 3
ENDMDL
MODEL 3
REMARK VINA RESULT:      -8.5      0.912      1.305
REMARK  Name = 
REMARK  4 active torsions:
REMARK  status: ('A' for Active; 'I' for Inactive)
REMARK    1  A    between atoms: C_1  and  O_2
REMARK    2  A    between atoms: O_2  and  C_3
REMARK    3  A    between atoms: C_6  and  C_7
REMARK    4  A    between atoms: C_14  and  C_15
REMARK                            x       y       z     vdW  Elec       q    Type
REMARK                         _______ _______ _______ _____ _____    ______ ____
ROOT
ATOM      1  C   UNL     1       3.498   6.064  18.327  0.00  0.00    +0.000 A 
ATOM      2  N   UNL     1       3.186   5.390  19.446  0.00  0.00    +0.000 NA
ATOM      3  O   UNL     1       2.408   6.287  20.160  0.00  0.00    +0.000 OA
ATOM      4  C   UNL     1       2.308   7.425  19.406  0.00  0.00    +0.000 A 
ATOM      5  N   UNL     1       1.512   8.416  19.869  0.00  0.00    +0.000 N 
ATOM      6  C   UNL     1       1.215   8.524  21.291  0.00  0.00    +0.000 C 
ATOM      7  C   UNL     1      -0.239   8.955  21.453  0.00  0.00    +0.000 C 
ATOM      8  C   UNL     1      -0.597  10.206  20.643  0.00  0.00    +0.000 C 
ATOM      9  C   UNL     1      -0.132  10.061  19.183  0.00  0.00    +0.000 C 
ATOM     10  C   UNL     1       1.336   9.627  19.085  0.00  0.00    +0.000 C 
ATOM     11  N   UNL     1       2.966   7.335  18.274  0.00  0.00    +0.000 NA
ENDROOT
BRANCH   8  12
ATOM     12  C   UNL     1      -0.028  11.507  21.223  0.00  0.00    +0.000 C 
ATOM     13  O   UNL     1       1.177  11.646  21.409  0.00  0.00    +0.000 OA
ATOM     14  N   UNL     1      -0.920  12.562  21.378  0.00  0.00    +0.000 N 
ATOM     15  C   UNL     1      -0.414  13.926  21.563  0.00  0.00    +0.000 C 
ATOM     16  C   UNL     1      -1.188  14.933  20.679  0.00  0.00    +0.000 C 
ATOM     17  N   UNL     1      -2.634  14.760  20.840  0.00  0.00    +0.000 N 
ATOM     18  C   UNL     1      -3.495  15.807  21.064  0.00  0.00    +0.000 A 
ATOM     19  C   UNL     1      -3.236  17.076  20.548  0.00  0.00    +0.000 A 
ATOM     20  C   UNL     1      -4.106  18.133  20.806  0.00  0.00    +0.000 A 
ATOM     21  C   UNL     1      -5.222  17.910  21.593  0.00  0.00    +0.000 A 
ATOM     22  C   UNL     1      -5.425  16.629  22.068  0.00  0.00    +0.000 A 
ATOM     23  N   UNL     1      -4.602  15.585  21.806  0.00  0.00    +0.000 NA
ATOM     24  C   UNL     1      -3.164  13.401  20.725  0.00  0.00    +0.000 C 
ATOM     25  C   UNL     1      -2.367  12.443  21.620  0.00  0.00    +0.000 C 
ENDBRANCH   8  12
BRANCH   1  29
ATOM     26  C   UNL     1       5.890   4.421  15.183  0.00  0.00    +0.000 A 
ATOM     27  C   UNL     1       5.627   5.789  15.234  0.00  0.00    +0.000 A 
ATOM     28  C   UNL     1       4.856   6.323  16.266  0.00  0.00    +0.000 A 
ATOM     29  C   UNL     1       4.316   5.495  17.261  0.00  0.00    +0.000 A 
ATOM     30  C   UNL     1       4.574   4.119  17.197  0.00  0.00    +0.000 A 
ATOM     31  C   UNL     1       5.355   3.581  16.161  0.00  0.00    +0.000 A 
BRANCH  26  33
ATOM     32  C   UNL     1       5.917   3.652  12.948  0.00  0.00    +0.000 C 
ATOM     33  O   UNL     1       6.642   4.021  14.114  0.00  0.00    +0.000 OA
ENDBRANCH  26  33
ENDBRANCH   1  29
TORSDOF 3
ENDMDL
MODEL 4
REMARK VINA RESULT:      -8.1      1.082      1.158
REMARK  Name = 
REMARK  4 active torsions:
REMARK  status: ('A' for Active; 'I' for Inactive)
REMARK    1  A    between atoms: C_1  and  O_2
REMARK    2  A    between atoms: O_2  and  C_3
REMARK    3  A    between atoms: C_6  and  C_7
REMARK    4  A    between atoms: C_14  and  C_15
REMARK                            x       y       z     vdW  Elec       q    Type
REMARK                         _______ _______ _______ _____ _____    ______ ____
ROOT
ATOM      1  C   UNL     1       3.040   6.775  18.509  0.00  0.00    +0.000 A 
ATOM      2  N   UNL     1       2.774   6.372  19.762  0.00  0.00    +0.000 NA
ATOM      3  O   UNL     1       2.001   7.401  20.277  0.00  0.00    +0.000 OA
ATOM      4  C   UNL     1       1.857   8.334  19.287  0.00  0.00    +0.000 A 
ATOM      5  N   UNL     1       1.057   9.396  19.537  0.00  0.00    +0.000 N 
ATOM      6  C   UNL     1       0.801   9.823  20.905  0.00  0.00    +0.000 C 
ATOM      7  C   UNL     1      -0.656  10.264  21.012  0.00  0.00    +0.000 C 
ATOM      8  C   UNL     1      -1.060  11.292  19.949  0.00  0.00    +0.000 C 
ATOM      9  C   UNL     1      -0.636  10.821  18.547  0.00  0.00    +0.000 C 
ATOM     10  C   UNL     1       0.836  10.393  18.502  0.00  0.00    +0.000 C 
ATOM     11  N   UNL     1       2.483   7.994  18.184  0.00  0.00    +0.000 NA
ENDROOT
BRANCH   8  12
ATOM     12  C   UNL     1      -0.499  12.697  20.197  0.00  0.00    +0.000 C 
ATOM     13  O   UNL     1       0.524  13.080  19.638  0.00  0.00    +0.000 OA
ATOM     14  N   UNL     1      -1.284  13.557  20.956  0.00  0.00    +0.000 N 
ATOM     15  C   UNL     1      -1.022  15.000  20.932  0.00  0.00    +0.000 C 
ATOM     16  C   UNL     1      -2.335  15.804  20.789  0.00  0.00    +0.000 C 
ATOM     17  N   UNL     1      -3.331  15.352  21.765  0.00  0.00    +0.000 N 
ATOM     18  C   UNL     1      -4.049  16.212  22.559  0.00  0.00    +0.000 A 
ATOM     19  C   UNL     1      -4.385  17.491  22.116  0.00  0.00    +0.000 A 
ATOM     20  C   UNL     1      -5.092  18.360  22.944  0.00  0.00    +0.000 A 
ATOM     21  C   UNL     1      -5.443  17.943  24.216  0.00  0.00    +0.000 A 
ATOM     22  C   UNL     1      -5.086  16.663  24.591  0.00  0.00    +0.000 A 
ATOM     23  N   UNL     1      -4.420  15.796  23.790  0.00  0.00    +0.000 NA
ATOM     24  C   UNL     1      -3.570  13.911  21.859  0.00  0.00    +0.000 C 
ATOM     25  C   UNL     1      -2.241  13.160  22.002  0.00  0.00    +0.000 C 
ENDBRANCH   8  12
BRANCH   1  29
ATOM     26  C   UNL     1       5.374   4.436  15.790  0.00  0.00    +0.000 A 
ATOM     27  C   UNL     1       4.511   3.821  16.697  0.00  0.00    +0.000 A 
ATOM     28  C   UNL     1       3.743   4.587  17.574  0.00  0.00    +0.000 A 
ATOM     29  C   UNL     1       3.837   5.986  17.574  0.00  0.00    +0.000 A 
ATOM     30  C   UNL     1       4.715   6.598  16.669  0.00  0.00    +0.000 A 
ATOM     31  C   UNL     1       5.483   5.827  15.782  0.00  0.00    +0.000 A 
BRANCH  26  33
ATOM     32  C   UNL     1       6.386   4.044  13.691  0.00  0.00    +0.000 C 
ATOM     33  O   UNL     1       6.082   3.576  14.998  0.00  0.00    +0.000 OA
ENDBRANCH  26  33
ENDBRANCH   1  29
TORSDOF 3
ENDMDL
MODEL 5
REMARK VINA RESULT:      -8.1      1.972      2.295
REMARK  Name = 
REMARK  4 active torsions:
REMARK  status: ('A' for Active; 'I' for Inactive)
REMARK    1  A    between atoms: C_1  and  O_2
REMARK    2  A    between atoms: O_2  and  C_3
REMARK    3  A    between atoms: C_6  and  C_7
REMARK    4  A    between atoms: C_14  and  C_15
REMARK                            x       y       z     vdW  Elec       q    Type
REMARK                         _______ _______ _______ _____ _____    ______ ____
ROOT
ATOM      1  C   UNL     1       3.100   6.780  18.389  0.00  0.00    +0.000 A 
ATOM      2  N   UNL     1       3.031   6.609  19.719  0.00  0.00    +0.000 NA
ATOM      3  O   UNL     1       2.228   7.658  20.141  0.00  0.00    +0.000 OA
ATOM      4  C   UNL     1       1.873   8.368  19.027  0.00  0.00    +0.000 A 
ATOM      5  N   UNL     1       1.008   9.396  19.188  0.00  0.00    +0.000 N 
ATOM      6  C   UNL     1       0.879  10.060  20.477  0.00  0.00    +0.000 C 
ATOM      7  C   UNL     1      -0.590  10.403  20.703  0.00  0.00    +0.000 C 
ATOM      8  C   UNL     1      -1.221  11.173  19.537  0.00  0.00    +0.000 C 
ATOM      9  C   UNL     1      -0.927  10.472  18.200  0.00  0.00    +0.000 C 
ATOM     10  C   UNL     1       0.564  10.154  18.030  0.00  0.00    +0.000 C 
ATOM     11  N   UNL     1       2.390   7.869  17.929  0.00  0.00    +0.000 NA
ENDROOT
BRANCH   8  12
ATOM     12  C   UNL     1      -0.777  12.637  19.445  0.00  0.00    +0.000 C 
ATOM     13  O   UNL     1      -0.546  13.164  18.360  0.00  0.00    +0.000 OA
ATOM     14  N   UNL     1      -0.798  13.371  20.625  0.00  0.00    +0.000 N 
ATOM     15  C   UNL     1      -0.756  14.836  20.576  0.00  0.00    +0.000 C 
ATOM     16  C   UNL     1      -1.795  15.457  21.539  0.00  0.00    +0.000 C 
ATOM     17  N   UNL     1      -1.690  14.859  22.873  0.00  0.00    +0.000 N 
ATOM     18  C   UNL     1      -1.642  15.601  24.027  0.00  0.00    +0.000 A 
ATOM     19  C   UNL     1      -2.295  16.830  24.122  0.00  0.00    +0.000 A 
ATOM     20  C   UNL     1      -2.214  17.582  25.291  0.00  0.00    +0.000 A 
ATOM     21  C   UNL     1      -1.465  17.102  26.351  0.00  0.00    +0.000 A 
ATOM     22  C   UNL     1      -0.848  15.876  26.196  0.00  0.00    +0.000 A 
ATOM     23  N   UNL     1      -0.937  15.121  25.074  0.00  0.00    +0.000 NA
ATOM     24  C   UNL     1      -1.666  13.398  22.952  0.00  0.00    +0.000 C 
ATOM     25  C   UNL     1      -0.620  12.831  21.983  0.00  0.00    +0.000 C 
ENDBRANCH   8  12
BRANCH   1  29
ATOM     26  C   UNL     1       5.306   4.184  15.800  0.00  0.00    +0.000 A 
ATOM     27  C   UNL     1       5.451   5.569  15.709  0.00  0.00    +0.000 A 
ATOM     28  C   UNL     1       4.739   6.412  16.562  0.00  0.00    +0.000 A 
ATOM     29  C   UNL     1       3.852   5.887  17.513  0.00  0.00    +0.000 A 
ATOM     30  C   UNL     1       3.701   4.495  17.591  0.00  0.00    +0.000 A 
ATOM     31  C   UNL     1       4.423   3.646  16.736  0.00  0.00    +0.000 A 
BRANCH  26  33
ATOM     32  C   UNL     1       6.576   4.211  13.807  0.00  0.00    +0.000 C 
ATOM     33  O   UNL     1       6.045   3.470  14.898  0.00  0.00    +0.000 OA
ENDBRANCH  26  33
ENDBRANCH   1  29
TORSDOF 3
ENDMDL
MODEL 6
REMARK VINA RESULT:      -8.0      1.069      1.388
REMARK  Name = 
REMARK  4 active torsions:
REMARK  status: ('A' for Active; 'I' for Inactive)
REMARK    1  A    between atoms: C_1  and  O_2
REMARK    2  A    between atoms: O_2  and  C_3
REMARK    3  A    between atoms: C_6  and  C_7
REMARK    4  A    between atoms: C_14  and  C_15
REMARK                            x       y       z     vdW  Elec       q    Type
REMARK                         _______ _______ _______ _____ _____    ______ ____
ROOT
ATOM      1  C   UNL     1       2.663   6.151  19.424  0.00  0.00    +0.000 A 
ATOM      2  N   UNL     1       2.217   5.581  20.556  0.00  0.00    +0.000 NA
ATOM      3  O   UNL     1       1.526   6.604  21.185  0.00  0.00    +0.000 OA
ATOM      4  C   UNL     1       1.604   7.704  20.375  0.00  0.00    +0.000 A 
ATOM      5  N   UNL     1       0.919   8.809  20.748  0.00  0.00    +0.000 N 
ATOM      6  C   UNL     1       0.572   9.027  22.146  0.00  0.00    +0.000 C 
ATOM      7  C   UNL     1      -0.822   9.643  22.210  0.00  0.00    +0.000 C 
ATOM      8  C   UNL     1      -0.981  10.884  21.325  0.00  0.00    +0.000 C 
ATOM      9  C   UNL     1      -0.471  10.605  19.900  0.00  0.00    +0.000 C 
ATOM     10  C   UNL     1       0.934   9.989  19.900  0.00  0.00    +0.000 C 
ATOM     11  N   UNL     1       2.298   7.473  19.285  0.00  0.00    +0.000 NA
ENDROOT
BRANCH   8  12
ATOM     12  C   UNL     1      -0.282  12.133  21.872  0.00  0.00    +0.000 C 
ATOM     13  O   UNL     1       0.929  12.291  21.743  0.00  0.00    +0.000 OA
ATOM     14  N   UNL     1      -1.102  13.136  22.376  0.00  0.00    +0.000 N 
ATOM     15  C   UNL     1      -0.568  14.489  22.569  0.00  0.00    +0.000 C 
ATOM     16  C   UNL     1      -1.555  15.558  22.043  0.00  0.00    +0.000 C 
ATOM     17  N   UNL     1      -2.904  15.322  22.564  0.00  0.00    +0.000 N 
ATOM     18  C   UNL     1      -3.675  16.310  23.125  0.00  0.00    +0.000 A 
ATOM     19  C   UNL     1      -3.568  17.635  22.703  0.00  0.00    +0.000 A 
ATOM     20  C   UNL     1      -4.339  18.629  23.300  0.00  0.00    +0.000 A 
ATOM     21  C   UNL     1      -5.201  18.288  24.327  0.00  0.00    +0.000 A 
ATOM     22  C   UNL     1      -5.265  16.958  24.694  0.00  0.00    +0.000 A 
ATOM     23  N   UNL     1      -4.540  15.975  24.107  0.00  0.00    +0.000 NA
ATOM     24  C   UNL     1      -3.441  13.966  22.445  0.00  0.00    +0.000 C 
ATOM     25  C   UNL     1      -2.429  12.945  22.982  0.00  0.00    +0.000 C 
ENDBRANCH   8  12
BRANCH   1  29
ATOM     26  C   UNL     1       4.990   4.063  16.503  0.00  0.00    +0.000 A 
ATOM     27  C   UNL     1       5.418   5.292  17.007  0.00  0.00    +0.000 A 
ATOM     28  C   UNL     1       4.663   5.964  17.967  0.00  0.00    +0.000 A 
ATOM     29  C   UNL     1       3.452   5.430  18.431  0.00  0.00    +0.000 A 
ATOM     30  C   UNL     1       3.021   4.201  17.912  0.00  0.00    +0.000 A 
ATOM     31  C   UNL     1       3.785   3.521  16.949  0.00  0.00    +0.000 A 
BRANCH  26  33
ATOM     32  C   UNL     1       6.848   4.357  15.072  0.00  0.00    +0.000 C 
ATOM     33  O   UNL     1       5.809   3.515  15.556  0.00  0.00    +0.000 OA
ENDBRANCH  26  33
ENDBRANCH   1  29
TORSDOF 3
ENDMDL
MODEL 7
REMARK VINA RESULT:      -7.9      3.163      3.616
REMARK  Name = 
REMARK  4 active torsions:
REMARK  status: ('A' for Active; 'I' for Inactive)
REMARK    1  A    between atoms: C_1  and  O_2
REMARK    2  A    between atoms: O_2  and  C_3
REMARK    3  A    between atoms: C_6  and  C_7
REMARK    4  A    between atoms: C_14  and  C_15
REMARK                            x       y       z     vdW  Elec       q    Type
REMARK                         _______ _______ _______ _____ _____    ______ ____
ROOT
ATOM      1  C   UNL     1       3.963   5.852  17.530  0.00  0.00    +0.000 A 
ATOM      2  N   UNL     1       3.478   5.025  18.470  0.00  0.00    +0.000 NA
ATOM      3  O   UNL     1       2.685   5.850  19.252  0.00  0.00    +0.000 OA
ATOM      4  C   UNL     1       2.752   7.106  18.712  0.00  0.00    +0.000 A 
ATOM      5  N   UNL     1       1.978   8.068  19.264  0.00  0.00    +0.000 N 
ATOM      6  C   UNL     1       1.525   7.953  20.643  0.00  0.00    +0.000 C 
ATOM      7  C   UNL     1       0.095   8.477  20.731  0.00  0.00    +0.000 C 
ATOM      8  C   UNL     1      -0.078   9.877  20.130  0.00  0.00    +0.000 C 
ATOM      9  C   UNL     1       0.543   9.946  18.724  0.00  0.00    +0.000 C 
ATOM     10  C   UNL     1       1.979   9.407  18.699  0.00  0.00    +0.000 C 
ATOM     11  N   UNL     1       3.530   7.155  17.656  0.00  0.00    +0.000 NA
ENDROOT
BRANCH   8  12
ATOM     12  C   UNL     1       0.507  11.001  20.992  0.00  0.00    +0.000 C 
ATOM     13  O   UNL     1       1.181  10.754  21.987  0.00  0.00    +0.000 OA
ATOM     14  N   UNL     1       0.367  12.296  20.506  0.00  0.00    +0.000 N 
ATOM     15  C   UNL     1       1.198  13.376  21.049  0.00  0.00    +0.000 C 
ATOM     16  C   UNL     1       1.773  14.260  19.918  0.00  0.00    +0.000 C 
ATOM     17  N   UNL     1       0.715  14.673  18.992  0.00  0.00    +0.000 N 
ATOM     18  C   UNL     1       0.546  15.971  18.576  0.00  0.00    +0.000 A 
ATOM     19  C   UNL     1       1.633  16.835  18.450  0.00  0.00    +0.000 A 
ATOM     20  C   UNL     1       1.440  18.156  18.051  0.00  0.00    +0.000 A 
ATOM     21  C   UNL     1       0.156  18.603  17.797  0.00  0.00    +0.000 A 
ATOM     22  C   UNL     1      -0.876  17.695  17.934  0.00  0.00    +0.000 A 
ATOM     23  N   UNL     1      -0.704  16.402  18.298  0.00  0.00    +0.000 NA
ATOM     24  C   UNL     1      -0.173  13.628  18.481  0.00  0.00    +0.000 C 
ATOM     25  C   UNL     1      -0.719  12.782  19.638  0.00  0.00    +0.000 C 
ENDBRANCH   8  12
BRANCH   1  29
ATOM     26  C   UNL     1       6.573   4.519  14.412  0.00  0.00    +0.000 A 
ATOM     27  C   UNL     1       5.257   4.060  14.483  0.00  0.00    +0.000 A 
ATOM     28  C   UNL     1       4.406   4.505  15.494  0.00  0.00    +0.000 A 
ATOM     29  C   UNL     1       4.860   5.406  16.468  0.00  0.00    +0.000 A 
ATOM     30  C   UNL     1       6.186   5.854  16.399  0.00  0.00    +0.000 A 
ATOM     31  C   UNL     1       7.042   5.410  15.377  0.00  0.00    +0.000 A 
BRANCH  26  33
ATOM     32  C   UNL     1       6.568   3.530  12.266  0.00  0.00    +0.000 C 
ATOM     33  O   UNL     1       7.309   3.995  13.387  0.00  0.00    +0.000 OA
ENDBRANCH  26  33
ENDBRANCH   1  29
TORSDOF 3
ENDMDL
MODEL 8
REMARK VINA RESULT:      -7.3      2.996      4.241
REMARK  Name = 
REMARK  4 active torsions:
REMARK  status: ('A' for Active; 'I' for Inactive)
REMARK    1  A    between atoms: C_1  and  O_2
REMARK    2  A    between atoms: O_2  and  C_3
REMARK    3  A    between atoms: C_6  and  C_7
REMARK    4  A    between atoms: C_14  and  C_15
REMARK                            x       y       z     vdW  Elec       q    Type
REMARK                         _______ _______ _______ _____ _____    ______ ____
ROOT
ATOM      1  C   UNL     1       2.043   7.066  19.974  0.00  0.00    +0.000 A 
ATOM      2  N   UNL     1       1.688   6.525  21.150  0.00  0.00    +0.000 NA
ATOM      3  O   UNL     1       1.023   7.556  21.795  0.00  0.00    +0.000 OA
ATOM      4  C   UNL     1       1.025   8.631  20.948  0.00  0.00    +0.000 A 
ATOM      5  N   UNL     1       0.347   9.736  21.334  0.00  0.00    +0.000 N 
ATOM      6  C   UNL     1       0.094   9.993  22.745  0.00  0.00    +0.000 C 
ATOM      7  C   UNL     1      -1.303  10.588  22.889  0.00  0.00    +0.000 C 
ATOM      8  C   UNL     1      -1.546  11.797  21.979  0.00  0.00    +0.000 C 
ATOM      9  C   UNL     1      -1.131  11.482  20.531  0.00  0.00    +0.000 C 
ATOM     10  C   UNL     1       0.282  10.888  20.452  0.00  0.00    +0.000 C 
ATOM     11  N   UNL     1       1.645   8.377  19.819  0.00  0.00    +0.000 NA
ENDROOT
BRANCH   8  12
ATOM     12  C   UNL     1      -0.833  13.074  22.437  0.00  0.00    +0.000 C 
ATOM     13  O   UNL     1      -0.345  13.161  23.560  0.00  0.00    +0.000 OA
ATOM     14  N   UNL     1      -0.634  14.057  21.474  0.00  0.00    +0.000 N 
ATOM     15  C   UNL     1       0.344  15.125  21.710  0.00  0.00    +0.000 C 
ATOM     16  C   UNL     1       1.220  15.364  20.458  0.00  0.00    +0.000 C 
ATOM     17  N   UNL     1       0.388  15.512  19.261  0.00  0.00    +0.000 N 
ATOM     18  C   UNL     1       0.551  16.531  18.354  0.00  0.00    +0.000 A 
ATOM     19  C   UNL     1       1.806  17.089  18.116  0.00  0.00    +0.000 A 
ATOM     20  C   UNL     1       1.950  18.139  17.212  0.00  0.00    +0.000 A 
ATOM     21  C   UNL     1       0.830  18.631  16.566  0.00  0.00    +0.000 A 
ATOM     22  C   UNL     1      -0.383  18.030  16.841  0.00  0.00    +0.000 A 
ATOM     23  N   UNL     1      -0.537  16.992  17.699  0.00  0.00    +0.000 NA
ATOM     24  C   UNL     1      -0.642  14.498  19.031  0.00  0.00    +0.000 C 
ATOM     25  C   UNL     1      -1.484  14.299  20.297  0.00  0.00    +0.000 C 
ENDBRANCH   8  12
BRANCH   1  29
ATOM     26  C   UNL     1       4.187   4.923  16.954  0.00  0.00    +0.000 A 
ATOM     27  C   UNL     1       4.252   6.315  17.019  0.00  0.00    +0.000 A 
ATOM     28  C   UNL     1       3.561   7.009  18.011  0.00  0.00    +0.000 A 
ATOM     29  C   UNL     1       2.774   6.326  18.950  0.00  0.00    +0.000 A 
ATOM     30  C   UNL     1       2.703   4.929  18.872  0.00  0.00    +0.000 A 
ATOM     31  C   UNL     1       3.404   4.228  17.876  0.00  0.00    +0.000 A 
BRANCH  26  33
ATOM     32  C   UNL     1       6.243   4.792  15.796  0.00  0.00    +0.000 C 
ATOM     33  O   UNL     1       4.894   4.364  15.926  0.00  0.00    +0.000 OA
ENDBRANCH  26  33
ENDBRANCH   1  29
TORSDOF 3
ENDMDL
MODEL 9
REMARK VINA RESULT:      -7.0      2.454      3.102
REMARK  Name = 
REMARK  4 active torsions:
REMARK  status: ('A' for Active; 'I' for Inactive)
REMARK    1  A    between atoms: C_1  and  O_2
REMARK    2  A    between atoms: O_2  and  C_3
REMARK    3  A    between atoms: C_6  and  C_7
REMARK    4  A    between atoms: C_14  and  C_15
REMARK                            x       y       z     vdW  Elec       q    Type
REMARK                         _______ _______ _______ _____ _____    ______ ____
ROOT
ATOM      1  C   UNL     1       2.684   6.872  18.424  0.00  0.00    +0.000 A 
ATOM      2  N   UNL     1       3.284   7.719  17.573  0.00  0.00    +0.000 NA
ATOM      3  O   UNL     1       2.712   8.945  17.876  0.00  0.00    +0.000 OA
ATOM      4  C   UNL     1       1.821   8.734  18.893  0.00  0.00    +0.000 A 
ATOM      5  N   UNL     1       1.202   9.816  19.419  0.00  0.00    +0.000 N 
ATOM      6  C   UNL     1       1.055  11.037  18.639  0.00  0.00    +0.000 C 
ATOM      7  C   UNL     1       1.251  12.233  19.565  0.00  0.00    +0.000 C 
ATOM      8  C   UNL     1       0.371  12.182  20.819  0.00  0.00    +0.000 C 
ATOM      9  C   UNL     1       0.487  10.812  21.511  0.00  0.00    +0.000 C 
ATOM     10  C   UNL     1       0.280   9.650  20.530  0.00  0.00    +0.000 C 
ATOM     11  N   UNL     1       1.767   7.474  19.258  0.00  0.00    +0.000 NA
ENDROOT
BRANCH   8  12
ATOM     12  C   UNL     1      -1.108  12.486  20.555  0.00  0.00    +0.000 C 
ATOM     13  O   UNL     1      -1.804  11.724  19.891  0.00  0.00    +0.000 OA
ATOM     14  N   UNL     1      -1.650  13.575  21.228  0.00  0.00    +0.000 N 
ATOM     15  C   UNL     1      -3.106  13.717  21.334  0.00  0.00    +0.000 C 
ATOM     16  C   UNL     1      -3.526  14.102  22.773  0.00  0.00    +0.000 C 
ATOM     17  N   UNL     1      -2.735  15.237  23.258  0.00  0.00    +0.000 N 
ATOM     18  C   UNL     1      -3.293  16.339  23.859  0.00  0.00    +0.000 A 
ATOM     19  C   UNL     1      -4.463  16.235  24.612  0.00  0.00    +0.000 A 
ATOM     20  C   UNL     1      -5.029  17.367  25.192  0.00  0.00    +0.000 A 
ATOM     21  C   UNL     1      -4.426  18.597  25.000  0.00  0.00    +0.000 A 
ATOM     22  C   UNL     1      -3.267  18.631  24.250  0.00  0.00    +0.000 A 
ATOM     23  N   UNL     1      -2.689  17.536  23.698  0.00  0.00    +0.000 NA
ATOM     24  C   UNL     1      -1.282  15.153  23.109  0.00  0.00    +0.000 C 
ATOM     25  C   UNL     1      -0.917  14.772  21.668  0.00  0.00    +0.000 C 
ENDBRANCH   8  12
BRANCH   1  29
ATOM     26  C   UNL     1       3.542   2.681  18.540  0.00  0.00    +0.000 A 
ATOM     27  C   UNL     1       2.473   3.167  17.786  0.00  0.00    +0.000 A 
ATOM     28  C   UNL     1       2.204   4.534  17.741  0.00  0.00    +0.000 A 
ATOM     29  C   UNL     1       2.987   5.444  18.466  0.00  0.00    +0.000 A 
ATOM     30  C   UNL     1       4.051   4.948  19.232  0.00  0.00    +0.000 A 
ATOM     31  C   UNL     1       4.327   3.572  19.272  0.00  0.00    +0.000 A 
BRANCH  26  33
ATOM     32  C   UNL     1       4.599   0.780  19.463  0.00  0.00    +0.000 C 
ATOM     33  O   UNL     1       3.690   1.322  18.514  0.00  0.00    +0.000 OA
ENDBRANCH  26  33
ENDBRANCH   1  29
TORSDOF 3
ENDMDL
