MODEL 1
REMARK VINA RESULT:      -7.4      0.000      0.000
REMARK  Name = 
REMARK  12 active torsions:
REMARK  status: ('A' for Active; 'I' for Inactive)
REMARK    1  A    between atoms: C_1  and  O_2
REMARK    2  A    between atoms: O_2  and  C_3
REMARK    3  A    between atoms: C_6  and  O_7
REMARK    4  A    between atoms: O_7  and  C_8
REMARK    5  A    between atoms: C_9  and  C_10
REMARK    6  A    between atoms: C_10  and  C_11
REMARK    7  A    between atoms: C_11  and  N_12
REMARK    8  A    between atoms: C_13  and  C_15
REMARK    9  A    between atoms: C_18  and  C_19
REMARK   10  A    between atoms: C_19  and  S_20
REMARK   11  A    between atoms: S_20  and  C_22
REMARK   12  A    between atoms: C_22  and  C_23
REMARK                            x       y       z     vdW  Elec       q    Type
REMARK                         _______ _______ _______ _____ _____    ______ ____
ROOT
ATOM      1  N   UNL     1       2.465   5.658  18.147  0.00  0.00    +0.000 N 
ATOM      2  C   UNL     1       2.226   6.426  19.273  0.00  0.00    +0.000 C 
ATOM      3  O   UNL     1       2.185   5.946  20.399  0.00  0.00    +0.000 OA
ATOM      4  H   UNL     1       2.432   6.133  17.256  0.00  0.00    +0.000 HD
ENDROOT
BRANCH   2   5
ATOM      5  C   UNL     1       2.032   7.839  18.992  0.00  0.00    +0.000 A 
ATOM      6  C   UNL     1       2.372   8.588  17.880  0.00  0.00    +0.000 A 
ATOM      7  C   UNL     1       1.984   9.922  18.143  0.00  0.00    +0.000 A 
ATOM      8  C   UNL     1       1.425   9.927  19.404  0.00  0.00    +0.000 A 
ATOM      9  O   UNL     1       1.435   8.656  19.922  0.00  0.00    +0.000 OA
BRANCH   8  10
ATOM     10  C   UNL     1       0.938  11.030  20.283  0.00  0.00    +0.000 C 
BRANCH  10  11
ATOM     11  S   UNL     1      -0.299  11.980  19.346  0.00  0.00    +0.000 S 
ATOM     12  O   UNL     1       0.480  12.849  18.287  0.00  0.00    +0.000 OA
BRANCH  11  13
ATOM     13  C   UNL     1      -1.092  10.606  18.433  0.00  0.00    +0.000 C 
BRANCH  13  14
ATOM     14  C   UNL     1      -2.563  10.939  18.286  0.00  0.00    +0.000 A 
ATOM     15  C   UNL     1      -3.126  11.997  19.019  0.00  0.00    +0.000 A 
ATOM     16  C   UNL     1      -4.513  12.167  19.072  0.00  0.00    +0.000 A 
ATOM     17  C   UNL     1      -5.343  11.281  18.390  0.00  0.00    +0.000 A 
ATOM     18 CL   UNL     1      -7.052  11.436  18.518  0.00  0.00    +0.000 Cl
ATOM     19  C   UNL     1      -4.799  10.247  17.631  0.00  0.00    +0.000 A 
ATOM     20  C   UNL     1      -3.411  10.080  17.572  0.00  0.00    +0.000 A 
ENDBRANCH  13  14
ENDBRANCH  11  13
ENDBRANCH  10  11
ENDBRANCH   8  10
ENDBRANCH   2   5
BRANCH   1  21
ATOM     21  C   UNL     1       2.659   4.217  18.200  0.00  0.00    +0.000 C 
BRANCH  21  22
ATOM     22  C   UNL     1       4.102   3.847  18.556  0.00  0.00    +0.000 C 
BRANCH  22  27
ATOM     23  C   UNL     1       5.616   4.253  15.085  0.00  0.00    +0.000 A 
ATOM     24  C   UNL     1       6.881   4.749  15.365  0.00  0.00    +0.000 A 
ATOM     25  C   UNL     1       7.277   4.964  16.683  0.00  0.00    +0.000 A 
ATOM     26  C   UNL     1       6.424   4.655  17.752  0.00  0.00    +0.000 A 
ATOM     27  C   UNL     1       5.129   4.171  17.484  0.00  0.00    +0.000 A 
ATOM     28  C   UNL     1       4.742   3.984  16.139  0.00  0.00    +0.000 A 
BRANCH  23  30
ATOM     29  C   UNL     1       6.475   3.771  12.927  0.00  0.00    +0.000 C 
ATOM     30  O   UNL     1       5.360   4.073  13.755  0.00  0.00    +0.000 OA
ENDBRANCH  23  30
BRANCH  26  31
ATOM     31  O   UNL     1       6.795   4.834  19.062  0.00  0.00    +0.000 OA
ATOM     32  C   UNL     1       7.839   5.793  19.261  0.00  0.00    +0.000 C 
ENDBRANCH  26  31
ENDBRANCH  22  27
ENDBRANCH  21  22
ENDBRANCH   1  21
TORSDOF 10
ENDMDL
MODEL 2
REMARK VINA RESULT:      -7.3      4.509      9.860
REMARK  Name = 
REMARK  12 active torsions:
REMARK  status: ('A' for Active; 'I' for Inactive)
REMARK    1  A    between atoms: C_1  and  O_2
REMARK    2  A    between atoms: O_2  and  C_3
REMARK    3  A    between atoms: C_6  and  O_7
REMARK    4  A    between atoms: O_7  and  C_8
REMARK    5  A    between atoms: C_9  and  C_10
REMARK    6  A    between atoms: C_10  and  C_11
REMARK    7  A    between atoms: C_11  and  N_12
REMARK    8  A    between atoms: C_13  and  C_15
REMARK    9  A    between atoms: C_18  and  C_19
REMARK   10  A    between atoms: C_19  and  S_20
REMARK   11  A    between atoms: S_20  and  C_22
REMARK   12  A    between atoms: C_22  and  C_23
REMARK                            x       y       z     vdW  Elec       q    Type
REMARK                         _______ _______ _______ _____ _____    ______ ____
ROOT
ATOM      1  N   UNL     1       1.306   9.288  18.929  0.00  0.00    +0.000 N 
ATOM      2  C   UNL     1       2.100   8.363  18.274  0.00  0.00    +0.000 C 
ATOM      3  O   UNL     1       2.727   8.638  17.258  0.00  0.00    +0.000 OA
ATOM      4  H   UNL     1       0.787   8.956  19.730  0.00  0.00    +0.000 HD
ENDROOT
BRANCH   2   5
ATOM      5  C   UNL     1       2.118   7.051  18.901  0.00  0.00    +0.000 A 
ATOM      6  C   UNL     1       2.273   6.694  20.228  0.00  0.00    +0.000 A 
ATOM      7  C   UNL     1       2.246   5.282  20.283  0.00  0.00    +0.000 A 
ATOM      8  C   UNL     1       2.077   4.840  18.987  0.00  0.00    +0.000 A 
ATOM      9  O   UNL     1       1.981   5.916  18.140  0.00  0.00    +0.000 OA
BRANCH   8  10
ATOM     10  C   UNL     1       2.085   3.478  18.380  0.00  0.00    +0.000 C 
BRANCH  10  11
ATOM     11  S   UNL     1       3.763   2.800  18.560  0.00  0.00    +0.000 S 
ATOM     12  O   UNL     1       3.655   1.234  18.419  0.00  0.00    +0.000 OA
BRANCH  11  13
ATOM     13  C   UNL     1       4.499   3.429  17.006  0.00  0.00    +0.000 C 
BRANCH  13  14
ATOM     14  C   UNL     1       5.255   4.700  17.337  0.00  0.00    +0.000 A 
ATOM     15  C   UNL     1       4.995   5.884  16.627  0.00  0.00    +0.000 A 
ATOM     16  C   UNL     1       5.837   6.992  16.759  0.00  0.00    +0.000 A 
ATOM     17  C   UNL     1       6.943   6.922  17.602  0.00  0.00    +0.000 A 
ATOM     18 CL   UNL     1       8.029   8.253  17.705  0.00  0.00    +0.000 Cl
ATOM     19  C   UNL     1       7.197   5.766  18.338  0.00  0.00    +0.000 A 
ATOM     20  C   UNL     1       6.351   4.659  18.212  0.00  0.00    +0.000 A 
ENDBRANCH  13  14
ENDBRANCH  11  13
ENDBRANCH  10  11
ENDBRANCH   8  10
ENDBRANCH   2   5
BRANCH   1  21
ATOM     21  C   UNL     1       1.124  10.651  18.455  0.00  0.00    +0.000 C 
BRANCH  21  22
ATOM     22  C   UNL     1       1.157  11.664  19.603  0.00  0.00    +0.000 C 
BRANCH  22  27
ATOM     23  C   UNL     1       3.218  14.572  18.261  0.00  0.00    +0.000 A 
ATOM     24  C   UNL     1       2.331  15.636  18.352  0.00  0.00    +0.000 A 
ATOM     25  C   UNL     1       1.046  15.440  18.850  0.00  0.00    +0.000 A 
ATOM     26  C   UNL     1       0.631  14.178  19.299  0.00  0.00    +0.000 A 
ATOM     27  C   UNL     1       1.511  13.084  19.194  0.00  0.00    +0.000 A 
ATOM     28  C   UNL     1       2.801  13.302  18.664  0.00  0.00    +0.000 A 
BRANCH  23  30
ATOM     29  C   UNL     1       5.236  15.781  18.566  0.00  0.00    +0.000 C 
ATOM     30  O   UNL     1       4.451  14.902  17.772  0.00  0.00    +0.000 OA
ENDBRANCH  23  30
BRANCH  26  31
ATOM     31  O   UNL     1      -0.623  13.960  19.817  0.00  0.00    +0.000 OA
ATOM     32  C   UNL     1      -0.829  14.494  21.128  0.00  0.00    +0.000 C 
ENDBRANCH  26  31
ENDBRANCH  22  27
ENDBRANCH  21  22
ENDBRANCH   1  21
TORSDOF 10
ENDMDL
MODEL 3
REMARK VINA RESULT:      -7.3      3.150      4.568
REMARK  Name = 
REMARK  12 active torsions:
REMARK  status: ('A' for Active; 'I' for Inactive)
REMARK    1  A    between atoms: C_1  and  O_2
REMARK    2  A    between atoms: O_2  and  C_3
REMARK    3  A    between atoms: C_6  and  O_7
REMARK    4  A    between atoms: O_7  and  C_8
REMARK    5  A    between atoms: C_9  and  C_10
REMARK    6  A    between atoms: C_10  and  C_11
REMARK    7  A    between atoms: C_11  and  N_12
REMARK    8  A    between atoms: C_13  and  C_15
REMARK    9  A    between atoms: C_18  and  C_19
REMARK   10  A    between atoms: C_19  and  S_20
REMARK   11  A    between atoms: S_20  and  C_22
REMARK   12  A    between atoms: C_22  and  C_23
REMARK                            x       y       z     vdW  Elec       q    Type
REMARK                         _______ _______ _______ _____ _____    ______ ____
ROOT
ATOM      1  N   UNL     1       1.862   8.221  19.519  0.00  0.00    +0.000 N 
ATOM      2  C   UNL     1       1.008   9.306  19.621  0.00  0.00    +0.000 C 
ATOM      3  O   UNL     1       0.684   9.979  18.650  0.00  0.00    +0.000 OA
ATOM      4  H   UNL     1       2.111   7.755  20.381  0.00  0.00    +0.000 HD
ENDROOT
BRANCH   2   5
ATOM      5  C   UNL     1       0.539   9.562  20.972  0.00  0.00    +0.000 A 
ATOM      6  C   UNL     1       0.869   8.951  22.168  0.00  0.00    +0.000 A 
ATOM      7  C   UNL     1       0.095   9.568  23.178  0.00  0.00    +0.000 A 
ATOM      8  C   UNL     1      -0.675  10.527  22.552  0.00  0.00    +0.000 A 
ATOM      9  O   UNL     1      -0.396  10.541  21.208  0.00  0.00    +0.000 OA
BRANCH   8  10
ATOM     10  C   UNL     1      -1.762  11.421  23.044  0.00  0.00    +0.000 C 
BRANCH  10  11
ATOM     11  S   UNL     1      -1.243  13.140  22.750  0.00  0.00    +0.000 S 
ATOM     12  O   UNL     1       0.231  13.097  22.195  0.00  0.00    +0.000 OA
BRANCH  11  13
ATOM     13  C   UNL     1      -2.337  13.535  21.336  0.00  0.00    +0.000 C 
BRANCH  13  14
ATOM     14  C   UNL     1      -3.756  13.622  21.862  0.00  0.00    +0.000 A 
ATOM     15  C   UNL     1      -4.023  14.279  23.074  0.00  0.00    +0.000 A 
ATOM     16  C   UNL     1      -5.276  14.167  23.683  0.00  0.00    +0.000 A 
ATOM     17  C   UNL     1      -6.270  13.399  23.082  0.00  0.00    +0.000 A 
ATOM     18 CL   UNL     1      -7.787  13.191  23.867  0.00  0.00    +0.000 Cl
ATOM     19  C   UNL     1      -6.032  12.768  21.862  0.00  0.00    +0.000 A 
ATOM     20  C   UNL     1      -4.780  12.885  21.248  0.00  0.00    +0.000 A 
ENDBRANCH  13  14
ENDBRANCH  11  13
ENDBRANCH  10  11
ENDBRANCH   8  10
ENDBRANCH   2   5
BRANCH   1  21
ATOM     21  C   UNL     1       2.469   7.807  18.264  0.00  0.00    +0.000 C 
BRANCH  21  22
ATOM     22  C   UNL     1       2.065   6.381  17.877  0.00  0.00    +0.000 C 
BRANCH  22  27
ATOM     23  C   UNL     1       5.241   4.789  19.250  0.00  0.00    +0.000 A 
ATOM     24  C   UNL     1       4.921   3.439  19.256  0.00  0.00    +0.000 A 
ATOM     25  C   UNL     1       3.672   3.008  18.816  0.00  0.00    +0.000 A 
ATOM     26  C   UNL     1       2.726   3.922  18.328  0.00  0.00    +0.000 A 
ATOM     27  C   UNL     1       3.026   5.297  18.335  0.00  0.00    +0.000 A 
ATOM     28  C   UNL     1       4.291   5.711  18.808  0.00  0.00    +0.000 A 
BRANCH  23  30
ATOM     29  C   UNL     1       7.330   5.822  18.809  0.00  0.00    +0.000 C 
ATOM     30  O   UNL     1       6.503   5.075  19.690  0.00  0.00    +0.000 OA
ENDBRANCH  23  30
BRANCH  26  31
ATOM     31  O   UNL     1       1.495   3.525  17.866  0.00  0.00    +0.000 OA
ATOM     32  C   UNL     1       0.812   2.592  18.711  0.00  0.00    +0.000 C 
ENDBRANCH  26  31
ENDBRANCH  22  27
ENDBRANCH  21  22
ENDBRANCH   1  21
TORSDOF 10
ENDMDL
MODEL 4
REMARK VINA RESULT:      -7.2      4.136     10.083
REMARK  Name = 
REMARK  12 active torsions:
REMARK  status: ('A' for Active; 'I' for Inactive)
REMARK    1  A    between atoms: C_1  and  O_2
REMARK    2  A    between atoms: O_2  and  C_3
REMARK    3  A    between atoms: C_6  and  O_7
REMARK    4  A    between atoms: O_7  and  C_8
REMARK    5  A    between atoms: C_9  and  C_10
REMARK    6  A    between atoms: C_10  and  C_11
REMARK    7  A    between atoms: C_11  and  N_12
REMARK    8  A    between atoms: C_13  and  C_15
REMARK    9  A    between atoms: C_18  and  C_19
REMARK   10  A    between atoms: C_19  and  S_20
REMARK   11  A    between atoms: S_20  and  C_22
REMARK   12  A    between atoms: C_22  and  C_23
REMARK                            x       y       z     vdW  Elec       q    Type
REMARK                         _______ _______ _______ _____ _____    ______ ____
ROOT
ATOM      1  N   UNL     1       1.968   6.561  20.337  0.00  0.00    +0.000 N 
ATOM      2  C   UNL     1       1.981   5.180  20.243  0.00  0.00    +0.000 C 
ATOM      3  O   UNL     1       1.194   4.473  20.860  0.00  0.00    +0.000 OA
ATOM      4  H   UNL     1       2.688   7.059  19.830  0.00  0.00    +0.000 HD
ENDROOT
BRANCH   2   5
ATOM      5  C   UNL     1       3.005   4.659  19.353  0.00  0.00    +0.000 A 
ATOM      6  C   UNL     1       3.018   3.518  18.571  0.00  0.00    +0.000 A 
ATOM      7  C   UNL     1       4.274   3.471  17.925  0.00  0.00    +0.000 A 
ATOM      8  C   UNL     1       4.972   4.585  18.342  0.00  0.00    +0.000 A 
ATOM      9  O   UNL     1       4.197   5.324  19.200  0.00  0.00    +0.000 OA
BRANCH   8  10
ATOM     10  C   UNL     1       6.375   5.037  18.111  0.00  0.00    +0.000 C 
BRANCH  10  11
ATOM     11  S   UNL     1       6.361   6.197  16.710  0.00  0.00    +0.000 S 
ATOM     12  O   UNL     1       7.036   7.534  17.199  0.00  0.00    +0.000 OA
BRANCH  11  13
ATOM     13  C   UNL     1       7.570   5.353  15.623  0.00  0.00    +0.000 C 
BRANCH  13  14
ATOM     14  C   UNL     1       6.814   4.818  14.423  0.00  0.00    +0.000 A 
ATOM     15  C   UNL     1       5.504   4.333  14.570  0.00  0.00    +0.000 A 
ATOM     16  C   UNL     1       4.886   3.629  13.532  0.00  0.00    +0.000 A 
ATOM     17  C   UNL     1       5.573   3.410  12.341  0.00  0.00    +0.000 A 
ATOM     18 CL   UNL     1       4.849   2.475  11.091  0.00  0.00    +0.000 Cl
ATOM     19  C   UNL     1       6.861   3.914  12.167  0.00  0.00    +0.000 A 
ATOM     20  C   UNL     1       7.478   4.624  13.202  0.00  0.00    +0.000 A 
ENDBRANCH  13  14
ENDBRANCH  11  13
ENDBRANCH  10  11
ENDBRANCH   8  10
ENDBRANCH   2   5
BRANCH   1  21
ATOM     21  C   UNL     1       1.043   7.287  21.193  0.00  0.00    +0.000 C 
BRANCH  21  22
ATOM     22  C   UNL     1       1.523   8.714  21.471  0.00  0.00    +0.000 C 
BRANCH  22  27
ATOM     23  C   UNL     1      -1.018  11.463  22.172  0.00  0.00    +0.000 A 
ATOM     24  C   UNL     1      -1.395  11.856  20.895  0.00  0.00    +0.000 A 
ATOM     25  C   UNL     1      -0.839  11.242  19.776  0.00  0.00    +0.000 A 
ATOM     26  C   UNL     1       0.086  10.196  19.912  0.00  0.00    +0.000 A 
ATOM     27  C   UNL     1       0.495   9.800  21.200  0.00  0.00    +0.000 A 
ATOM     28  C   UNL     1      -0.066  10.453  22.319  0.00  0.00    +0.000 A 
BRANCH  23  30
ATOM     29  C   UNL     1      -1.366  13.519  23.302  0.00  0.00    +0.000 C 
ATOM     30  O   UNL     1      -1.651  12.133  23.181  0.00  0.00    +0.000 OA
ENDBRANCH  23  30
BRANCH  26  31
ATOM     31  O   UNL     1       0.634   9.556  18.828  0.00  0.00    +0.000 OA
ATOM     32  C   UNL     1       1.696  10.271  18.187  0.00  0.00    +0.000 C 
ENDBRANCH  26  31
ENDBRANCH  22  27
ENDBRANCH  21  22
ENDBRANCH   1  21
TORSDOF 10
ENDMDL
MODEL 5
REMARK VINA RESULT:      -7.2      3.957     10.357
REMARK  Name = 
REMARK  12 active torsions:
REMARK  status: ('A' for Active; 'I' for Inactive)
REMARK    1  A    between atoms: C_1  and  O_2
REMARK    2  A    between atoms: O_2  and  C_3
REMARK    3  A    between atoms: C_6  and  O_7
REMARK    4  A    between atoms: O_7  and  C_8
REMARK    5  A    between atoms: C_9  and  C_10
REMARK    6  A    between atoms: C_10  and  C_11
REMARK    7  A    between atoms: C_11  and  N_12
REMARK    8  A    between atoms: C_13  and  C_15
REMARK    9  A    between atoms: C_18  and  C_19
REMARK   10  A    between atoms: C_19  and  S_20
REMARK   11  A    between atoms: S_20  and  C_22
REMARK   12  A    between atoms: C_22  and  C_23
REMARK                            x       y       z     vdW  Elec       q    Type
REMARK                         _______ _______ _______ _____ _____    ______ ____
ROOT
ATOM      1  N   UNL     1      -0.141  10.942  20.122  0.00  0.00    +0.000 N 
ATOM      2  C   UNL     1       0.901  10.419  19.377  0.00  0.00    +0.000 C 
ATOM      3  O   UNL     1       1.440  11.044  18.472  0.00  0.00    +0.000 OA
ATOM      4  H   UNL     1      -0.556  10.334  20.815  0.00  0.00    +0.000 HD
ENDROOT
BRANCH   2   5
ATOM      5  C   UNL     1       1.290   9.074  19.770  0.00  0.00    +0.000 A 
ATOM      6  C   UNL     1       1.000   8.355  20.916  0.00  0.00    +0.000 A 
ATOM      7  C   UNL     1       1.657   7.109  20.801  0.00  0.00    +0.000 A 
ATOM      8  C   UNL     1       2.319   7.123  19.591  0.00  0.00    +0.000 A 
ATOM      9  O   UNL     1       2.085   8.313  18.948  0.00  0.00    +0.000 OA
BRANCH   8  10
ATOM     10  C   UNL     1       3.267   6.165  18.953  0.00  0.00    +0.000 C 
BRANCH  10  11
ATOM     11  S   UNL     1       2.702   4.481  19.344  0.00  0.00    +0.000 S 
ATOM     12  O   UNL     1       1.791   4.002  18.151  0.00  0.00    +0.000 OA
BRANCH  11  13
ATOM     13  C   UNL     1       4.298   3.596  19.188  0.00  0.00    +0.000 C 
BRANCH  13  14
ATOM     14  C   UNL     1       4.996   4.121  17.950  0.00  0.00    +0.000 A 
ATOM     15  C   UNL     1       4.448   3.894  16.677  0.00  0.00    +0.000 A 
ATOM     16  C   UNL     1       5.191   4.165  15.524  0.00  0.00    +0.000 A 
ATOM     17  C   UNL     1       6.485   4.668  15.638  0.00  0.00    +0.000 A 
ATOM     18 CL   UNL     1       7.432   4.926  14.226  0.00  0.00    +0.000 Cl
ATOM     19  C   UNL     1       7.031   4.930  16.893  0.00  0.00    +0.000 A 
ATOM     20  C   UNL     1       6.286   4.665  18.048  0.00  0.00    +0.000 A 
ENDBRANCH  13  14
ENDBRANCH  11  13
ENDBRANCH  10  11
ENDBRANCH   8  10
ENDBRANCH   2   5
BRANCH   1  21
ATOM     21  C   UNL     1      -0.705  12.261  19.876  0.00  0.00    +0.000 C 
BRANCH  21  22
ATOM     22  C   UNL     1      -2.217  12.290  20.118  0.00  0.00    +0.000 C 
BRANCH  22  27
ATOM     23  C   UNL     1      -3.076  10.998  16.639  0.00  0.00    +0.000 A 
ATOM     24  C   UNL     1      -4.463  11.035  16.640  0.00  0.00    +0.000 A 
ATOM     25  C   UNL     1      -5.156  11.479  17.764  0.00  0.00    +0.000 A 
ATOM     26  C   UNL     1      -4.471  11.927  18.902  0.00  0.00    +0.000 A 
ATOM     27  C   UNL     1      -3.064  11.877  18.926  0.00  0.00    +0.000 A 
ATOM     28  C   UNL     1      -2.384  11.401  17.783  0.00  0.00    +0.000 A 
BRANCH  23  30
ATOM     29  C   UNL     1      -3.416  10.304  14.397  0.00  0.00    +0.000 C 
ATOM     30  O   UNL     1      -2.521  10.560  15.470  0.00  0.00    +0.000 OA
ENDBRANCH  23  30
BRANCH  26  31
ATOM     31  O   UNL     1      -5.126  12.392  20.016  0.00  0.00    +0.000 OA
ATOM     32  C   UNL     1      -6.485  11.957  20.134  0.00  0.00    +0.000 C 
ENDBRANCH  26  31
ENDBRANCH  22  27
ENDBRANCH  21  22
ENDBRANCH   1  21
TORSDOF 10
ENDMDL
MODEL 6
REMARK VINA RESULT:      -7.2      2.055      3.502
REMARK  Name = 
REMARK  12 active torsions:
REMARK  status: ('A' for Active; 'I' for Inactive)
REMARK    1  A    between atoms: C_1  and  O_2
REMARK    2  A    between atoms: O_2  and  C_3
REMARK    3  A    between atoms: C_6  and  O_7
REMARK    4  A    between atoms: O_7  and  C_8
REMARK    5  A    between atoms: C_9  and  C_10
REMARK    6  A    between atoms: C_10  and  C_11
REMARK    7  A    between atoms: C_11  and  N_12
REMARK    8  A    between atoms: C_13  and  C_15
REMARK    9  A    between atoms: C_18  and  C_19
REMARK   10  A    between atoms: C_19  and  S_20
REMARK   11  A    between atoms: S_20  and  C_22
REMARK   12  A    between atoms: C_22  and  C_23
REMARK                            x       y       z     vdW  Elec       q    Type
REMARK                         _______ _______ _______ _____ _____    ______ ____
ROOT
ATOM      1  N   UNL     1       2.263   5.183  18.487  0.00  0.00    +0.000 N 
ATOM      2  C   UNL     1       2.293   5.609  19.804  0.00  0.00    +0.000 C 
ATOM      3  O   UNL     1       2.646   4.879  20.722  0.00  0.00    +0.000 OA
ATOM      4  H   UNL     1       1.911   5.840  17.804  0.00  0.00    +0.000 HD
ENDROOT
BRANCH   2   5
ATOM      5  C   UNL     1       1.873   6.988  19.987  0.00  0.00    +0.000 A 
ATOM      6  C   UNL     1       1.354   7.628  21.099  0.00  0.00    +0.000 A 
ATOM      7  C   UNL     1       1.086   8.963  20.722  0.00  0.00    +0.000 A 
ATOM      8  C   UNL     1       1.453   9.079  19.397  0.00  0.00    +0.000 A 
ATOM      9  O   UNL     1       1.950   7.882  18.947  0.00  0.00    +0.000 OA
BRANCH   8  10
ATOM     10  C   UNL     1       1.312  10.187  18.408  0.00  0.00    +0.000 C 
BRANCH  10  11
ATOM     11  S   UNL     1       0.921  11.706  19.329  0.00  0.00    +0.000 S 
ATOM     12  O   UNL     1       1.542  12.914  18.529  0.00  0.00    +0.000 OA
BRANCH  11  13
ATOM     13  C   UNL     1      -0.888  11.755  19.055  0.00  0.00    +0.000 C 
BRANCH  13  14
ATOM     14  C   UNL     1      -1.544  12.115  20.374  0.00  0.00    +0.000 A 
ATOM     15  C   UNL     1      -0.930  11.767  21.588  0.00  0.00    +0.000 A 
ATOM     16  C   UNL     1      -1.625  11.883  22.795  0.00  0.00    +0.000 A 
ATOM     17  C   UNL     1      -2.937  12.349  22.794  0.00  0.00    +0.000 A 
ATOM     18 CL   UNL     1      -3.825  12.416  24.267  0.00  0.00    +0.000 Cl
ATOM     19  C   UNL     1      -3.549  12.730  21.602  0.00  0.00    +0.000 A 
ATOM     20  C   UNL     1      -2.852  12.621  20.394  0.00  0.00    +0.000 A 
ENDBRANCH  13  14
ENDBRANCH  11  13
ENDBRANCH  10  11
ENDBRANCH   8  10
ENDBRANCH   2   5
BRANCH   1  21
ATOM     21  C   UNL     1       2.617   3.831  18.085  0.00  0.00    +0.000 C 
BRANCH  21  22
ATOM     22  C   UNL     1       3.575   3.823  16.890  0.00  0.00    +0.000 C 
BRANCH  22  27
ATOM     23  C   UNL     1       6.576   5.180  18.804  0.00  0.00    +0.000 A 
ATOM     24  C   UNL     1       7.381   5.675  17.788  0.00  0.00    +0.000 A 
ATOM     25  C   UNL     1       6.974   5.584  16.459  0.00  0.00    +0.000 A 
ATOM     26  C   UNL     1       5.734   5.023  16.121  0.00  0.00    +0.000 A 
ATOM     27  C   UNL     1       4.915   4.496  17.138  0.00  0.00    +0.000 A 
ATOM     28  C   UNL     1       5.359   4.578  18.476  0.00  0.00    +0.000 A 
BRANCH  23  30
ATOM     29  C   UNL     1       8.489   5.523  20.163  0.00  0.00    +0.000 C 
ATOM     30  O   UNL     1       7.083   5.347  20.062  0.00  0.00    +0.000 OA
ENDBRANCH  23  30
BRANCH  26  31
ATOM     31  O   UNL     1       5.296   4.940  14.822  0.00  0.00    +0.000 OA
ATOM     32  C   UNL     1       6.052   4.051  13.993  0.00  0.00    +0.000 C 
ENDBRANCH  26  31
ENDBRANCH  22  27
ENDBRANCH  21  22
ENDBRANCH   1  21
TORSDOF 10
ENDMDL
MODEL 7
REMARK VINA RESULT:      -7.2      4.504     10.040
REMARK  Name = 
REMARK  12 active torsions:
REMARK  status: ('A' for Active; 'I' for Inactive)
REMARK    1  A    between atoms: C_1  and  O_2
REMARK    2  A    between atoms: O_2  and  C_3
REMARK    3  A    between atoms: C_6  and  O_7
REMARK    4  A    between atoms: O_7  and  C_8
REMARK    5  A    between atoms: C_9  and  C_10
REMARK    6  A    between atoms: C_10  and  C_11
REMARK    7  A    between atoms: C_11  and  N_12
REMARK    8  A    between atoms: C_13  and  C_15
REMARK    9  A    between atoms: C_18  and  C_19
REMARK   10  A    between atoms: C_19  and  S_20
REMARK   11  A    between atoms: S_20  and  C_22
REMARK   12  A    between atoms: C_22  and  C_23
REMARK                            x       y       z     vdW  Elec       q    Type
REMARK                         _______ _______ _______ _____ _____    ______ ____
ROOT
ATOM      1  N   UNL     1       1.330   9.331  18.709  0.00  0.00    +0.000 N 
ATOM      2  C   UNL     1       2.156   8.360  18.171  0.00  0.00    +0.000 C 
ATOM      3  O   UNL     1       2.833   8.555  17.169  0.00  0.00    +0.000 OA
ATOM      4  H   UNL     1       0.772   9.063  19.509  0.00  0.00    +0.000 HD
ENDROOT
BRANCH   2   5
ATOM      5  C   UNL     1       2.144   7.104  18.903  0.00  0.00    +0.000 A 
ATOM      6  C   UNL     1       2.275   6.853  20.257  0.00  0.00    +0.000 A 
ATOM      7  C   UNL     1       2.224   5.451  20.427  0.00  0.00    +0.000 A 
ATOM      8  C   UNL     1       2.064   4.908  19.168  0.00  0.00    +0.000 A 
ATOM      9  O   UNL     1       1.997   5.912  18.235  0.00  0.00    +0.000 OA
BRANCH   8  10
ATOM     10  C   UNL     1       2.056   3.501  18.674  0.00  0.00    +0.000 C 
BRANCH  10  11
ATOM     11  S   UNL     1       3.786   2.970  18.484  0.00  0.00    +0.000 S 
ATOM     12  O   UNL     1       3.779   1.408  18.280  0.00  0.00    +0.000 OA
BRANCH  11  13
ATOM     13  C   UNL     1       4.143   3.722  16.853  0.00  0.00    +0.000 C 
BRANCH  13  14
ATOM     14  C   UNL     1       5.279   4.708  17.040  0.00  0.00    +0.000 A 
ATOM     15  C   UNL     1       6.328   4.420  17.929  0.00  0.00    +0.000 A 
ATOM     16  C   UNL     1       7.251   5.408  18.284  0.00  0.00    +0.000 A 
ATOM     17  C   UNL     1       7.131   6.689  17.751  0.00  0.00    +0.000 A 
ATOM     18 CL   UNL     1       8.214   7.930  18.247  0.00  0.00    +0.000 Cl
ATOM     19  C   UNL     1       6.116   6.982  16.842  0.00  0.00    +0.000 A 
ATOM     20  C   UNL     1       5.196   5.992  16.480  0.00  0.00    +0.000 A 
ENDBRANCH  13  14
ENDBRANCH  11  13
ENDBRANCH  10  11
ENDBRANCH   8  10
ENDBRANCH   2   5
BRANCH   1  21
ATOM     21  C   UNL     1       1.171  10.651  18.118  0.00  0.00    +0.000 C 
BRANCH  21  22
ATOM     22  C   UNL     1       1.804  11.744  18.983  0.00  0.00    +0.000 C 
BRANCH  22  27
ATOM     23  C   UNL     1      -0.251  11.894  22.187  0.00  0.00    +0.000 A 
ATOM     24  C   UNL     1      -0.737  13.194  22.171  0.00  0.00    +0.000 A 
ATOM     25  C   UNL     1      -0.414  14.054  21.125  0.00  0.00    +0.000 A 
ATOM     26  C   UNL     1       0.379  13.620  20.052  0.00  0.00    +0.000 A 
ATOM     27  C   UNL     1       0.897  12.311  20.063  0.00  0.00    +0.000 A 
ATOM     28  C   UNL     1       0.575  11.464  21.146  0.00  0.00    +0.000 A 
BRANCH  23  30
ATOM     29  C   UNL     1      -0.635   9.739  23.099  0.00  0.00    +0.000 C 
ATOM     30  O   UNL     1      -0.656  11.150  23.259  0.00  0.00    +0.000 OA
ENDBRANCH  23  30
BRANCH  26  31
ATOM     31  O   UNL     1       0.694  14.438  18.995  0.00  0.00    +0.000 OA
ATOM     32  C   UNL     1      -0.194  15.545  18.811  0.00  0.00    +0.000 C 
ENDBRANCH  26  31
ENDBRANCH  22  27
ENDBRANCH  21  22
ENDBRANCH   1  21
TORSDOF 10
ENDMDL
MODEL 8
REMARK VINA RESULT:      -7.2      4.454      9.667
REMARK  Name = 
REMARK  12 active torsions:
REMARK  status: ('A' for Active; 'I' for Inactive)
REMARK    1  A    between atoms: C_1  and  O_2
REMARK    2  A    between atoms: O_2  and  C_3
REMARK    3  A    between atoms: C_6  and  O_7
REMARK    4  A    between atoms: O_7  and  C_8
REMARK    5  A    between atoms: C_9  and  C_10
REMARK    6  A    between atoms: C_10  and  C_11
REMARK    7  A    between atoms: C_11  and  N_12
REMARK    8  A    between atoms: C_13  and  C_15
REMARK    9  A    between atoms: C_18  and  C_19
REMARK   10  A    between atoms: C_19  and  S_20
REMARK   11  A    between atoms: S_20  and  C_22
REMARK   12  A    between atoms: C_22  and  C_23
REMARK                            x       y       z     vdW  Elec       q    Type
REMARK                         _______ _______ _______ _____ _____    ______ ____
ROOT
ATOM      1  N   UNL     1       1.457   7.393  21.535  0.00  0.00    +0.000 N 
ATOM      2  C   UNL     1       1.934   6.700  20.437  0.00  0.00    +0.000 C 
ATOM      3  O   UNL     1       2.414   7.265  19.462  0.00  0.00    +0.000 OA
ATOM      4  H   UNL     1       1.033   6.844  22.271  0.00  0.00    +0.000 HD
ENDROOT
BRANCH   2   5
ATOM      5  C   UNL     1       1.813   5.256  20.552  0.00  0.00    +0.000 A 
ATOM      6  C   UNL     1       2.088   4.414  21.614  0.00  0.00    +0.000 A 
ATOM      7  C   UNL     1       1.825   3.095  21.179  0.00  0.00    +0.000 A 
ATOM      8  C   UNL     1       1.402   3.191  19.869  0.00  0.00    +0.000 A 
ATOM      9  O   UNL     1       1.376   4.508  19.485  0.00  0.00    +0.000 OA
BRANCH   8  10
ATOM     10  C   UNL     1       1.089   2.162  18.836  0.00  0.00    +0.000 C 
BRANCH  10  11
ATOM     11  S   UNL     1       2.301   2.338  17.491  0.00  0.00    +0.000 S 
ATOM     12  O   UNL     1       2.127   3.783  16.887  0.00  0.00    +0.000 OA
BRANCH  11  13
ATOM     13  C   UNL     1       3.838   2.354  18.486  0.00  0.00    +0.000 C 
BRANCH  13  14
ATOM     14  C   UNL     1       4.590   3.627  18.150  0.00  0.00    +0.000 A 
ATOM     15  C   UNL     1       5.100   3.828  16.857  0.00  0.00    +0.000 A 
ATOM     16  C   UNL     1       5.986   4.878  16.597  0.00  0.00    +0.000 A 
ATOM     17  C   UNL     1       6.365   5.733  17.629  0.00  0.00    +0.000 A 
ATOM     18 CL   UNL     1       7.518   6.976  17.334  0.00  0.00    +0.000 Cl
ATOM     19  C   UNL     1       5.842   5.567  18.910  0.00  0.00    +0.000 A 
ATOM     20  C   UNL     1       4.950   4.521  19.170  0.00  0.00    +0.000 A 
ENDBRANCH  13  14
ENDBRANCH  11  13
ENDBRANCH  10  11
ENDBRANCH   8  10
ENDBRANCH   2   5
BRANCH   1  21
ATOM     21  C   UNL     1       1.457   8.845  21.616  0.00  0.00    +0.000 C 
BRANCH  21  22
ATOM     22  C   UNL     1       0.257   9.457  20.887  0.00  0.00    +0.000 C 
BRANCH  22  27
ATOM     23  C   UNL     1       0.810  12.893  19.340  0.00  0.00    +0.000 A 
ATOM     24  C   UNL     1       0.379  13.748  20.344  0.00  0.00    +0.000 A 
ATOM     25  C   UNL     1      -0.101  13.236  21.547  0.00  0.00    +0.000 A 
ATOM     26  C   UNL     1      -0.128  11.853  21.782  0.00  0.00    +0.000 A 
ATOM     27  C   UNL     1       0.286  10.972  20.766  0.00  0.00    +0.000 A 
ATOM     28  C   UNL     1       0.747  11.514  19.546  0.00  0.00    +0.000 A 
BRANCH  23  30
ATOM     29  C   UNL     1       2.655  13.852  18.197  0.00  0.00    +0.000 C 
ATOM     30  O   UNL     1       1.272  13.524  18.219  0.00  0.00    +0.000 OA
ENDBRANCH  23  30
BRANCH  26  31
ATOM     31  O   UNL     1      -0.574  11.320  22.967  0.00  0.00    +0.000 OA
ATOM     32  C   UNL     1      -1.955  11.565  23.250  0.00  0.00    +0.000 C 
ENDBRANCH  26  31
ENDBRANCH  22  27
ENDBRANCH  21  22
ENDBRANCH   1  21
TORSDOF 10
ENDMDL
MODEL 9
REMARK VINA RESULT:      -7.2      6.185      9.537
REMARK  Name = 
REMARK  12 active torsions:
REMARK  status: ('A' for Active; 'I' for Inactive)
REMARK    1  A    between atoms: C_1  and  O_2
REMARK    2  A    between atoms: O_2  and  C_3
REMARK    3  A    between atoms: C_6  and  O_7
REMARK    4  A    between atoms: O_7  and  C_8
REMARK    5  A    between atoms: C_9  and  C_10
REMARK    6  A    between atoms: C_10  and  C_11
REMARK    7  A    between atoms: C_11  and  N_12
REMARK    8  A    between atoms: C_13  and  C_15
REMARK    9  A    between atoms: C_18  and  C_19
REMARK   10  A    between atoms: C_19  and  S_20
REMARK   11  A    between atoms: S_20  and  C_22
REMARK   12  A    between atoms: C_22  and  C_23
REMARK                            x       y       z     vdW  Elec       q    Type
REMARK                         _______ _______ _______ _____ _____    ______ ____
ROOT
ATOM      1  N   UNL     1       5.556   4.838  17.534  0.00  0.00    +0.000 N 
ATOM      2  C   UNL     1       6.200   5.754  16.721  0.00  0.00    +0.000 C 
ATOM      3  O   UNL     1       6.043   5.778  15.506  0.00  0.00    +0.000 OA
ATOM      4  H   UNL     1       5.786   4.863  18.518  0.00  0.00    +0.000 HD
ENDROOT
BRANCH   2   5
ATOM      5  C   UNL     1       7.068   6.673  17.438  0.00  0.00    +0.000 A 
ATOM      6  C   UNL     1       7.883   6.465  18.537  0.00  0.00    +0.000 A 
ATOM      7  C   UNL     1       8.484   7.706  18.849  0.00  0.00    +0.000 A 
ATOM      8  C   UNL     1       8.008   8.616  17.928  0.00  0.00    +0.000 A 
ATOM      9  O   UNL     1       7.157   7.989  17.053  0.00  0.00    +0.000 OA
BRANCH   8  10
ATOM     10  C   UNL     1       8.173  10.092  17.796  0.00  0.00    +0.000 C 
BRANCH  10  11
ATOM     11  S   UNL     1       9.714  10.556  18.644  0.00  0.00    +0.000 S 
ATOM     12  O   UNL     1      10.628  11.290  17.591  0.00  0.00    +0.000 OA
BRANCH  11  13
ATOM     13  C   UNL     1       9.052  11.843  19.766  0.00  0.00    +0.000 C 
BRANCH  13  14
ATOM     14  C   UNL     1       9.774  13.139  19.458  0.00  0.00    +0.000 A 
ATOM     15  C   UNL     1       9.289  14.000  18.460  0.00  0.00    +0.000 A 
ATOM     16  C   UNL     1      10.064  15.072  18.007  0.00  0.00    +0.000 A 
ATOM     17  C   UNL     1      11.327  15.290  18.551  0.00  0.00    +0.000 A 
ATOM     18 CL   UNL     1      12.318  16.557  17.941  0.00  0.00    +0.000 Cl
ATOM     19  C   UNL     1      11.810  14.464  19.565  0.00  0.00    +0.000 A 
ATOM     20  C   UNL     1      11.033  13.395  20.024  0.00  0.00    +0.000 A 
ENDBRANCH  13  14
ENDBRANCH  11  13
ENDBRANCH  10  11
ENDBRANCH   8  10
ENDBRANCH   2   5
BRANCH   1  21
ATOM     21  C   UNL     1       4.664   3.812  17.018  0.00  0.00    +0.000 C 
BRANCH  21  22
ATOM     22  C   UNL     1       3.200   4.260  17.046  0.00  0.00    +0.000 C 
BRANCH  22  27
ATOM     23  C   UNL     1       2.271   7.308  19.132  0.00  0.00    +0.000 A 
ATOM     24  C   UNL     1       2.042   6.756  20.384  0.00  0.00    +0.000 A 
ATOM     25  C   UNL     1       2.183   5.386  20.587  0.00  0.00    +0.000 A 
ATOM     26  C   UNL     1       2.590   4.541  19.544  0.00  0.00    +0.000 A 
ATOM     27  C   UNL     1       2.805   5.081  18.262  0.00  0.00    +0.000 A 
ATOM     28  C   UNL     1       2.633   6.470  18.075  0.00  0.00    +0.000 A 
BRANCH  23  30
ATOM     29  C   UNL     1       1.036   9.214  19.815  0.00  0.00    +0.000 C 
ATOM     30  O   UNL     1       2.115   8.664  19.072  0.00  0.00    +0.000 OA
ENDBRANCH  23  30
BRANCH  26  31
ATOM     31  O   UNL     1       2.760   3.189  19.719  0.00  0.00    +0.000 OA
ATOM     32  C   UNL     1       1.699   2.542  20.430  0.00  0.00    +0.000 C 
ENDBRANCH  26  31
ENDBRANCH  22  27
ENDBRANCH  21  22
ENDBRANCH   1  21
TORSDOF 10
ENDMDL
