MODEL 1
REMARK VINA RESULT:      -6.2      0.000      0.000
REMARK  Name = 
REMARK  8 active torsions:
REMARK  status: ('A' for Active; 'I' for Inactive)
REMARK    1  A    between atoms: C_1  and  C_2
REMARK    2  A    between atoms: C_2  and  S_4
REMARK    3  A    between atoms: S_4  and  C_5
REMARK    4  A    between atoms: C_8  and  N_9
REMARK    5  A    between atoms: N_9  and  C_10
REMARK    6  A    between atoms: N_9  and  C_13
REMARK    7  A    between atoms: C_10  and  C_11
REMARK    8  A    between atoms: C_13  and  C_14
REMARK                            x       y       z     vdW  Elec       q    Type
REMARK                         _______ _______ _______ _____ _____    ______ ____
ROOT
ATOM      1  C   UNL     1       3.115   3.005  18.690  0.00  0.00    +0.000 A 
ATOM      2  C   UNL     1       2.954   3.536  17.408  0.00  0.00    +0.000 A 
ATOM      3  C   UNL     1       3.983   4.289  16.805  0.00  0.00    +0.000 A 
ATOM      4  C   UNL     1       5.197   4.546  17.458  0.00  0.00    +0.000 A 
ATOM      5  C   UNL     1       5.298   4.048  18.768  0.00  0.00    +0.000 A 
ATOM      6  C   UNL     1       4.292   3.284  19.375  0.00  0.00    +0.000 A 
ENDROOT
BRANCH   1   7
ATOM      7  S   UNL     1       1.834   2.038  19.452  0.00  0.00    +0.000 S 
BRANCH   7   9
ATOM      8  C   UNL     1       1.101   4.429  20.586  0.00  0.00    +0.000 C 
ATOM      9  C   UNL     1       1.457   2.998  20.887  0.00  0.00    +0.000 C 
ATOM     10  O   UNL     1       1.474   2.543  22.022  0.00  0.00    +0.000 OA
ENDBRANCH   7   9
ENDBRANCH   1   7
BRANCH   4  11
ATOM     11  N   UNL     1       6.258   5.212  16.844  0.00  0.00    +0.000 N 
BRANCH  11  12
ATOM     12  C   UNL     1       7.176   4.557  15.887  0.00  0.00    +0.000 C 
BRANCH  12  13
ATOM     13  C   UNL     1       6.955   4.927  14.415  0.00  0.00    +0.000 C 
ATOM     14 CL   UNL     1       5.809   3.837  13.592  0.00  0.00    +0.000 Cl
ENDBRANCH  12  13
ENDBRANCH  11  12
BRANCH  11  15
ATOM     15  C   UNL     1       6.443   6.666  17.043  0.00  0.00    +0.000 C 
BRANCH  15  16
ATOM     16  C   UNL     1       7.598   6.996  17.998  0.00  0.00    +0.000 C 
ATOM     17 CL   UNL     1       8.046   8.718  17.856  0.00  0.00    +0.000 Cl
ENDBRANCH  15  16
ENDBRANCH  11  15
ENDBRANCH   4  11
TORSDOF 7
ENDMDL
MODEL 2
REMARK VINA RESULT:      -6.0      0.622      1.310
REMARK  Name = 
REMARK  8 active torsions:
REMARK  status: ('A' for Active; 'I' for Inactive)
REMARK    1  A    between atoms: C_1  and  C_2
REMARK    2  A    between atoms: C_2  and  S_4
REMARK    3  A    between atoms: S_4  and  C_5
REMARK    4  A    between atoms: C_8  and  N_9
REMARK    5  A    between atoms: N_9  and  C_10
REMARK    6  A    between atoms: N_9  and  C_13
REMARK    7  A    between atoms: C_10  and  C_11
REMARK    8  A    between atoms: C_13  and  C_14
REMARK                            x       y       z     vdW  Elec       q    Type
REMARK                         _______ _______ _______ _____ _____    ______ ____
ROOT
ATOM      1  C   UNL     1       3.194   2.978  18.735  0.00  0.00    +0.000 A 
ATOM      2  C   UNL     1       4.391   3.371  19.337  0.00  0.00    +0.000 A 
ATOM      3  C   UNL     1       5.364   4.086  18.608  0.00  0.00    +0.000 A 
ATOM      4  C   UNL     1       5.184   4.423  17.260  0.00  0.00    +0.000 A 
ATOM      5  C   UNL     1       3.995   3.959  16.672  0.00  0.00    +0.000 A 
ATOM      6  C   UNL     1       3.011   3.262  17.387  0.00  0.00    +0.000 A 
ENDROOT
BRANCH   1   7
ATOM      7  S   UNL     1       1.952   2.095  19.649  0.00  0.00    +0.000 S 
BRANCH   7   9
ATOM      8  C   UNL     1       1.279   4.582  20.600  0.00  0.00    +0.000 C 
ATOM      9  C   UNL     1       1.658   3.185  21.009  0.00  0.00    +0.000 C 
ATOM     10  O   UNL     1       1.745   2.836  22.178  0.00  0.00    +0.000 OA
ENDBRANCH   7   9
ENDBRANCH   1   7
BRANCH   4  11
ATOM     11  N   UNL     1       6.095   5.205  16.549  0.00  0.00    +0.000 N 
BRANCH  11  12
ATOM     12  C   UNL     1       6.006   5.420  15.088  0.00  0.00    +0.000 C 
BRANCH  12  13
ATOM     13  C   UNL     1       6.801   4.424  14.234  0.00  0.00    +0.000 C 
ATOM     14 CL   UNL     1       5.801   3.624  12.994  0.00  0.00    +0.000 Cl
ENDBRANCH  12  13
ENDBRANCH  11  12
BRANCH  11  15
ATOM     15  C   UNL     1       7.147   5.961  17.262  0.00  0.00    +0.000 C 
BRANCH  15  16
ATOM     16  C   UNL     1       6.832   7.459  17.379  0.00  0.00    +0.000 C 
ATOM     17 CL   UNL     1       8.232   8.335  18.055  0.00  0.00    +0.000 Cl
ENDBRANCH  15  16
ENDBRANCH  11  15
ENDBRANCH   4  11
TORSDOF 7
ENDMDL
MODEL 3
REMARK VINA RESULT:      -5.9      1.377      3.348
REMARK  Name = 
REMARK  8 active torsions:
REMARK  status: ('A' for Active; 'I' for Inactive)
REMARK    1  A    between atoms: C_1  and  C_2
REMARK    2  A    between atoms: C_2  and  S_4
REMARK    3  A    between atoms: S_4  and  C_5
REMARK    4  A    between atoms: C_8  and  N_9
REMARK    5  A    between atoms: N_9  and  C_10
REMARK    6  A    between atoms: N_9  and  C_13
REMARK    7  A    between atoms: C_10  and  C_11
REMARK    8  A    between atoms: C_13  and  C_14
REMARK                            x       y       z     vdW  Elec       q    Type
REMARK                         _______ _______ _______ _____ _____    ______ ____
ROOT
ATOM      1  C   UNL     1       3.120   4.860  19.571  0.00  0.00    +0.000 A 
ATOM      2  C   UNL     1       4.139   3.905  19.554  0.00  0.00    +0.000 A 
ATOM      3  C   UNL     1       5.078   3.873  18.502  0.00  0.00    +0.000 A 
ATOM      4  C   UNL     1       5.030   4.778  17.433  0.00  0.00    +0.000 A 
ATOM      5  C   UNL     1       3.956   5.685  17.455  0.00  0.00    +0.000 A 
ATOM      6  C   UNL     1       3.024   5.740  18.500  0.00  0.00    +0.000 A 
ENDROOT
BRANCH   1   7
ATOM      7  S   UNL     1       1.943   4.924  20.901  0.00  0.00    +0.000 S 
BRANCH   7   9
ATOM      8  C   UNL     1       0.796   2.714  19.742  0.00  0.00    +0.000 C 
ATOM      9  C   UNL     1       1.421   3.238  21.006  0.00  0.00    +0.000 C 
ATOM     10  O   UNL     1       1.562   2.554  22.009  0.00  0.00    +0.000 OA
ENDBRANCH   7   9
ENDBRANCH   1   7
BRANCH   4  11
ATOM     11  N   UNL     1       6.001   4.818  16.432  0.00  0.00    +0.000 N 
BRANCH  11  12
ATOM     12  C   UNL     1       7.220   5.650  16.524  0.00  0.00    +0.000 C 
BRANCH  12  13
ATOM     13  C   UNL     1       7.383   6.425  17.838  0.00  0.00    +0.000 C 
ATOM     14 CL   UNL     1       7.756   8.149  17.583  0.00  0.00    +0.000 Cl
ENDBRANCH  12  13
ENDBRANCH  11  12
BRANCH  11  15
ATOM     15  C   UNL     1       5.903   3.920  15.262  0.00  0.00    +0.000 C 
BRANCH  15  16
ATOM     16  C   UNL     1       6.627   4.469  14.024  0.00  0.00    +0.000 C 
ATOM     17 CL   UNL     1       6.217   3.497  12.584  0.00  0.00    +0.000 Cl
ENDBRANCH  15  16
ENDBRANCH  11  15
ENDBRANCH   4  11
TORSDOF 7
ENDMDL
MODEL 4
REMARK VINA RESULT:      -5.9      0.866      2.999
REMARK  Name = 
REMARK  8 active torsions:
REMARK  status: ('A' for Active; 'I' for Inactive)
REMARK    1  A    between atoms: C_1  and  C_2
REMARK    2  A    between atoms: C_2  and  S_4
REMARK    3  A    between atoms: S_4  and  C_5
REMARK    4  A    between atoms: C_8  and  N_9
REMARK    5  A    between atoms: N_9  and  C_10
REMARK    6  A    between atoms: N_9  and  C_13
REMARK    7  A    between atoms: C_10  and  C_11
REMARK    8  A    between atoms: C_13  and  C_14
REMARK                            x       y       z     vdW  Elec       q    Type
REMARK                         _______ _______ _______ _____ _____    ______ ____
ROOT
ATOM      1  C   UNL     1       3.026   2.915  18.764  0.00  0.00    +0.000 A 
ATOM      2  C   UNL     1       2.697   3.268  17.454  0.00  0.00    +0.000 A 
ATOM      3  C   UNL     1       3.629   3.934  16.631  0.00  0.00    +0.000 A 
ATOM      4  C   UNL     1       4.909   4.279  17.085  0.00  0.00    +0.000 A 
ATOM      5  C   UNL     1       5.182   3.962  18.427  0.00  0.00    +0.000 A 
ATOM      6  C   UNL     1       4.274   3.285  19.252  0.00  0.00    +0.000 A 
ENDROOT
BRANCH   1   7
ATOM      7  S   UNL     1       1.868   2.056  19.803  0.00  0.00    +0.000 S 
BRANCH   7   9
ATOM      8  C   UNL     1       1.187   4.583  20.637  0.00  0.00    +0.000 C 
ATOM      9  C   UNL     1       1.619   3.221  21.109  0.00  0.00    +0.000 C 
ATOM     10  O   UNL     1       1.772   2.946  22.291  0.00  0.00    +0.000 OA
ENDBRANCH   7   9
ENDBRANCH   1   7
BRANCH   4  11
ATOM     11  N   UNL     1       5.873   4.858  16.259  0.00  0.00    +0.000 N 
BRANCH  11  12
ATOM     12  C   UNL     1       7.211   5.263  16.742  0.00  0.00    +0.000 C 
BRANCH  12  13
ATOM     13  C   UNL     1       7.328   6.728  17.183  0.00  0.00    +0.000 C 
ATOM     14 CL   UNL     1       8.145   6.914  18.756  0.00  0.00    +0.000 Cl
ENDBRANCH  12  13
ENDBRANCH  11  12
BRANCH  11  15
ATOM     15  C   UNL     1       5.630   4.989  14.807  0.00  0.00    +0.000 C 
BRANCH  15  16
ATOM     16  C   UNL     1       6.464   4.010  13.970  0.00  0.00    +0.000 C 
ATOM     17 CL   UNL     1       5.548   3.489  12.529  0.00  0.00    +0.000 Cl
ENDBRANCH  15  16
ENDBRANCH  11  15
ENDBRANCH   4  11
TORSDOF 7
ENDMDL
MODEL 5
REMARK VINA RESULT:      -5.8      1.788      3.401
REMARK  Name = 
REMARK  8 active torsions:
REMARK  status: ('A' for Active; 'I' for Inactive)
REMARK    1  A    between atoms: C_1  and  C_2
REMARK    2  A    between atoms: C_2  and  S_4
REMARK    3  A    between atoms: S_4  and  C_5
REMARK    4  A    between atoms: C_8  and  N_9
REMARK    5  A    between atoms: N_9  and  C_10
REMARK    6  A    between atoms: N_9  and  C_13
REMARK    7  A    between atoms: C_10  and  C_11
REMARK    8  A    between atoms: C_13  and  C_14
REMARK                            x       y       z     vdW  Elec       q    Type
REMARK                         _______ _______ _______ _____ _____    ______ ____
ROOT
ATOM      1  C   UNL     1       2.824   4.979  19.102  0.00  0.00    +0.000 A 
ATOM      2  C   UNL     1       3.319   6.158  18.541  0.00  0.00    +0.000 A 
ATOM      3  C   UNL     1       4.301   6.119  17.530  0.00  0.00    +0.000 A 
ATOM      4  C   UNL     1       4.830   4.911  17.052  0.00  0.00    +0.000 A 
ATOM      5  C   UNL     1       4.352   3.749  17.684  0.00  0.00    +0.000 A 
ATOM      6  C   UNL     1       3.364   3.771  18.678  0.00  0.00    +0.000 A 
ENDROOT
BRANCH   1   7
ATOM      7  S   UNL     1       1.571   5.016  20.362  0.00  0.00    +0.000 S 
BRANCH   7   9
ATOM      8  C   UNL     1       1.484   2.617  21.697  0.00  0.00    +0.000 C 
ATOM      9  C   UNL     1       1.076   3.321  20.431  0.00  0.00    +0.000 C 
ATOM     10  O   UNL     1       0.449   2.769  19.538  0.00  0.00    +0.000 OA
ENDBRANCH   7   9
ENDBRANCH   1   7
BRANCH   4  11
ATOM     11  N   UNL     1       5.736   4.849  15.993  0.00  0.00    +0.000 N 
BRANCH  11  12
ATOM     12  C   UNL     1       7.197   4.983  16.174  0.00  0.00    +0.000 C 
BRANCH  12  13
ATOM     13  C   UNL     1       7.717   4.622  17.572  0.00  0.00    +0.000 C 
ATOM     14 CL   UNL     1       7.803   6.030  18.662  0.00  0.00    +0.000 Cl
ENDBRANCH  12  13
ENDBRANCH  11  12
BRANCH  11  15
ATOM     15  C   UNL     1       5.268   4.525  14.629  0.00  0.00    +0.000 C 
BRANCH  15  16
ATOM     16  C   UNL     1       6.378   3.958  13.734  0.00  0.00    +0.000 C 
ATOM     17 CL   UNL     1       5.684   3.293  12.230  0.00  0.00    +0.000 Cl
ENDBRANCH  15  16
ENDBRANCH  11  15
ENDBRANCH   4  11
TORSDOF 7
ENDMDL
MODEL 6
REMARK VINA RESULT:      -5.7      0.624      2.973
REMARK  Name = 
REMARK  8 active torsions:
REMARK  status: ('A' for Active; 'I' for Inactive)
REMARK    1  A    between atoms: C_1  and  C_2
REMARK    2  A    between atoms: C_2  and  S_4
REMARK    3  A    between atoms: S_4  and  C_5
REMARK    4  A    between atoms: C_8  and  N_9
REMARK    5  A    between atoms: N_9  and  C_10
REMARK    6  A    between atoms: N_9  and  C_13
REMARK    7  A    between atoms: C_10  and  C_11
REMARK    8  A    between atoms: C_13  and  C_14
REMARK                            x       y       z     vdW  Elec       q    Type
REMARK                         _______ _______ _______ _____ _____    ______ ____
ROOT
ATOM      1  C   UNL     1       3.240   3.330  18.784  0.00  0.00    +0.000 A 
ATOM      2  C   UNL     1       3.022   4.068  17.619  0.00  0.00    +0.000 A 
ATOM      3  C   UNL     1       4.049   4.861  17.065  0.00  0.00    +0.000 A 
ATOM      4  C   UNL     1       5.317   4.954  17.655  0.00  0.00    +0.000 A 
ATOM      5  C   UNL     1       5.480   4.245  18.858  0.00  0.00    +0.000 A 
ATOM      6  C   UNL     1       4.475   3.441  19.412  0.00  0.00    +0.000 A 
ENDROOT
BRANCH   1   7
ATOM      7  S   UNL     1       1.961   2.311  19.480  0.00  0.00    +0.000 S 
BRANCH   7   9
ATOM      8  C   UNL     1       1.256   4.670  20.697  0.00  0.00    +0.000 C 
ATOM      9  C   UNL     1       1.533   3.211  20.940  0.00  0.00    +0.000 C 
ATOM     10  O   UNL     1       1.457   2.696  22.046  0.00  0.00    +0.000 OA
ENDBRANCH   7   9
ENDBRANCH   1   7
BRANCH   4  11
ATOM     11  N   UNL     1       6.370   5.661  17.074  0.00  0.00    +0.000 N 
BRANCH  11  12
ATOM     12  C   UNL     1       7.334   6.461  17.860  0.00  0.00    +0.000 C 
BRANCH  12  13
ATOM     13  C   UNL     1       7.507   7.913  17.396  0.00  0.00    +0.000 C 
ATOM     14 CL   UNL     1       8.550   8.867  18.481  0.00  0.00    +0.000 Cl
ENDBRANCH  12  13
ENDBRANCH  11  12
BRANCH  11  15
ATOM     15  C   UNL     1       6.639   5.545  15.625  0.00  0.00    +0.000 C 
BRANCH  15  16
ATOM     16  C   UNL     1       6.804   4.091  15.161  0.00  0.00    +0.000 C 
ATOM     17 CL   UNL     1       6.184   3.896  13.499  0.00  0.00    +0.000 Cl
ENDBRANCH  15  16
ENDBRANCH  11  15
ENDBRANCH   4  11
TORSDOF 7
ENDMDL
MODEL 7
REMARK VINA RESULT:      -5.7      0.828      3.097
REMARK  Name = 
REMARK  8 active torsions:
REMARK  status: ('A' for Active; 'I' for Inactive)
REMARK    1  A    between atoms: C_1  and  C_2
REMARK    2  A    between atoms: C_2  and  S_4
REMARK    3  A    between atoms: S_4  and  C_5
REMARK    4  A    between atoms: C_8  and  N_9
REMARK    5  A    between atoms: N_9  and  C_10
REMARK    6  A    between atoms: N_9  and  C_13
REMARK    7  A    between atoms: C_10  and  C_11
REMARK    8  A    between atoms: C_13  and  C_14
REMARK                            x       y       z     vdW  Elec       q    Type
REMARK                         _______ _______ _______ _____ _____    ______ ____
ROOT
ATOM      1  C   UNL     1       3.097   3.128  18.725  0.00  0.00    +0.000 A 
ATOM      2  C   UNL     1       4.397   3.305  19.205  0.00  0.00    +0.000 A 
ATOM      3  C   UNL     1       5.313   4.128  18.517  0.00  0.00    +0.000 A 
ATOM      4  C   UNL     1       4.972   4.791  17.330  0.00  0.00    +0.000 A 
ATOM      5  C   UNL     1       3.676   4.540  16.846  0.00  0.00    +0.000 A 
ATOM      6  C   UNL     1       2.749   3.739  17.526  0.00  0.00    +0.000 A 
ENDROOT
BRANCH   1   7
ATOM      7  S   UNL     1       1.928   2.110  19.594  0.00  0.00    +0.000 S 
BRANCH   7   9
ATOM      8  C   UNL     1       1.260   4.554  20.655  0.00  0.00    +0.000 C 
ATOM      9  C   UNL     1       1.542   3.116  20.996  0.00  0.00    +0.000 C 
ATOM     10  O   UNL     1       1.497   2.684  22.139  0.00  0.00    +0.000 OA
ENDBRANCH   7   9
ENDBRANCH   1   7
BRANCH   4  11
ATOM     11  N   UNL     1       5.835   5.677  16.685  0.00  0.00    +0.000 N 
BRANCH  11  12
ATOM     12  C   UNL     1       6.090   7.051  17.170  0.00  0.00    +0.000 C 
BRANCH  12  13
ATOM     13  C   UNL     1       7.541   7.339  17.575  0.00  0.00    +0.000 C 
ATOM     14 CL   UNL     1       8.075   6.369  18.971  0.00  0.00    +0.000 Cl
ENDBRANCH  12  13
ENDBRANCH  11  12
BRANCH  11  15
ATOM     15  C   UNL     1       6.636   5.229  15.526  0.00  0.00    +0.000 C 
BRANCH  15  16
ATOM     16  C   UNL     1       6.272   3.813  15.058  0.00  0.00    +0.000 C 
ATOM     17 CL   UNL     1       6.223   3.742  13.275  0.00  0.00    +0.000 Cl
ENDBRANCH  15  16
ENDBRANCH  11  15
ENDBRANCH   4  11
TORSDOF 7
ENDMDL
MODEL 8
REMARK VINA RESULT:      -5.7      1.549      1.664
REMARK  Name = 
REMARK  8 active torsions:
REMARK  status: ('A' for Active; 'I' for Inactive)
REMARK    1  A    between atoms: C_1  and  C_2
REMARK    2  A    between atoms: C_2  and  S_4
REMARK    3  A    between atoms: S_4  and  C_5
REMARK    4  A    between atoms: C_8  and  N_9
REMARK    5  A    between atoms: N_9  and  C_10
REMARK    6  A    between atoms: N_9  and  C_13
REMARK    7  A    between atoms: C_10  and  C_11
REMARK    8  A    between atoms: C_13  and  C_14
REMARK                            x       y       z     vdW  Elec       q    Type
REMARK                         _______ _______ _______ _____ _____    ______ ____
ROOT
ATOM      1  C   UNL     1       2.891   5.173  19.563  0.00  0.00    +0.000 A 
ATOM      2  C   UNL     1       3.019   6.196  18.620  0.00  0.00    +0.000 A 
ATOM      3  C   UNL     1       4.225   6.377  17.912  0.00  0.00    +0.000 A 
ATOM      4  C   UNL     1       5.342   5.558  18.124  0.00  0.00    +0.000 A 
ATOM      5  C   UNL     1       5.197   4.580  19.123  0.00  0.00    +0.000 A 
ATOM      6  C   UNL     1       4.000   4.376  19.823  0.00  0.00    +0.000 A 
ENDROOT
BRANCH   1   7
ATOM      7  S   UNL     1       1.370   4.922  20.446  0.00  0.00    +0.000 S 
BRANCH   7   9
ATOM      8  C   UNL     1       0.883   2.582  19.094  0.00  0.00    +0.000 C 
ATOM      9  C   UNL     1       1.232   3.160  20.438  0.00  0.00    +0.000 C 
ATOM     10  O   UNL     1       1.413   2.468  21.431  0.00  0.00    +0.000 OA
ENDBRANCH   7   9
ENDBRANCH   1   7
BRANCH   4  11
ATOM     11  N   UNL     1       6.512   5.667  17.371  0.00  0.00    +0.000 N 
BRANCH  11  12
ATOM     12  C   UNL     1       7.138   4.517  16.683  0.00  0.00    +0.000 C 
BRANCH  12  13
ATOM     13  C   UNL     1       6.252   3.820  15.642  0.00  0.00    +0.000 C 
ATOM     14 CL   UNL     1       5.476   4.965  14.517  0.00  0.00    +0.000 Cl
ENDBRANCH  12  13
ENDBRANCH  11  12
BRANCH  11  15
ATOM     15  C   UNL     1       7.125   6.991  17.131  0.00  0.00    +0.000 C 
BRANCH  15  16
ATOM     16  C   UNL     1       8.041   7.442  18.276  0.00  0.00    +0.000 C 
ATOM     17 CL   UNL     1       8.385   9.189  18.144  0.00  0.00    +0.000 Cl
ENDBRANCH  15  16
ENDBRANCH  11  15
ENDBRANCH   4  11
TORSDOF 7
ENDMDL
MODEL 9
REMARK VINA RESULT:      -5.7      1.132      3.262
REMARK  Name = 
REMARK  8 active torsions:
REMARK  status: ('A' for Active; 'I' for Inactive)
REMARK    1  A    between atoms: C_1  and  C_2
REMARK    2  A    between atoms: C_2  and  S_4
REMARK    3  A    between atoms: S_4  and  C_5
REMARK    4  A    between atoms: C_8  and  N_9
REMARK    5  A    between atoms: N_9  and  C_10
REMARK    6  A    between atoms: N_9  and  C_13
REMARK    7  A    between atoms: C_10  and  C_11
REMARK    8  A    between atoms: C_13  and  C_14
REMARK                            x       y       z     vdW  Elec       q    Type
REMARK                         _______ _______ _______ _____ _____    ______ ____
ROOT
ATOM      1  C   UNL     1       2.519   4.014  18.271  0.00  0.00    +0.000 A 
ATOM      2  C   UNL     1       3.398   3.121  17.654  0.00  0.00    +0.000 A 
ATOM      3  C   UNL     1       4.551   3.588  16.989  0.00  0.00    +0.000 A 
ATOM      4  C   UNL     1       4.861   4.953  16.908  0.00  0.00    +0.000 A 
ATOM      5  C   UNL     1       3.923   5.824  17.488  0.00  0.00    +0.000 A 
ATOM      6  C   UNL     1       2.781   5.375  18.166  0.00  0.00    +0.000 A 
ENDROOT
BRANCH   1   7
ATOM      7  S   UNL     1       1.075   3.435  19.130  0.00  0.00    +0.000 S 
BRANCH   7   9
ATOM      8  C   UNL     1       1.447   2.458  21.669  0.00  0.00    +0.000 C 
ATOM      9  C   UNL     1       1.527   3.696  20.818  0.00  0.00    +0.000 C 
ATOM     10  O   UNL     1       1.883   4.781  21.257  0.00  0.00    +0.000 OA
ENDBRANCH   7   9
ENDBRANCH   1   7
BRANCH   4  11
ATOM     11  N   UNL     1       6.041   5.426  16.332  0.00  0.00    +0.000 N 
BRANCH  11  12
ATOM     12  C   UNL     1       6.551   6.797  16.550  0.00  0.00    +0.000 C 
BRANCH  12  13
ATOM     13  C   UNL     1       7.511   6.954  17.735  0.00  0.00    +0.000 C 
ATOM     14 CL   UNL     1       8.118   8.620  17.918  0.00  0.00    +0.000 Cl
ENDBRANCH  12  13
ENDBRANCH  11  12
BRANCH  11  15
ATOM     15  C   UNL     1       6.909   4.518  15.553  0.00  0.00    +0.000 C 
BRANCH  15  16
ATOM     16  C   UNL     1       6.938   4.855  14.056  0.00  0.00    +0.000 C 
ATOM     17 CL   UNL     1       6.053   3.617  13.123  0.00  0.00    +0.000 Cl
ENDBRANCH  15  16
ENDBRANCH  11  15
ENDBRANCH   4  11
TORSDOF 7
ENDMDL
