MODEL 1
REMARK VINA RESULT:      -9.3      0.000      0.000
REMARK  Name = 
REMARK  9 active torsions:
REMARK  status: ('A' for Active; 'I' for Inactive)
REMARK    1  A    between atoms: C_1  and  O_2
REMARK    2  A    between atoms: O_2  and  C_3
REMARK    3  A    between atoms: C_8  and  C_9
REMARK    4  A    between atoms: C_9  and  C_10
REMARK    5  A    between atoms: C_9  and  C_11
REMARK    6  A    between atoms: N_13  and  C_14
REMARK    7  A    between atoms: C_17  and  S_18
REMARK    8  A    between atoms: S_18  and  N_21
REMARK    9  A    between atoms: C_24  and  C_25
REMARK                            x       y       z     vdW  Elec       q    Type
REMARK                         _______ _______ _______ _____ _____    ______ ____
ROOT
ATOM      1  C   UNL     1       1.417   9.625  18.920  0.00  0.00    +0.000 C 
ATOM      2  O   UNL     1       2.106   9.669  17.901  0.00  0.00    +0.000 OA
ATOM      3  N   UNL     1       1.270   8.496  19.712  0.00  0.00    +0.000 N 
ATOM      4  H   UNL     1       0.410   8.441  20.245  0.00  0.00    +0.000 HD
ENDROOT
BRANCH   3   5
ATOM      5  C   UNL     1       1.936   7.282  19.437  0.00  0.00    +0.000 A 
ATOM      6  C   UNL     1       2.170   6.316  20.423  0.00  0.00    +0.000 A 
ATOM      7  C   UNL     1       2.830   5.118  20.105  0.00  0.00    +0.000 A 
ATOM      8  C   UNL     1       3.275   4.903  18.798  0.00  0.00    +0.000 A 
ATOM      9  C   UNL     1       3.061   5.873  17.811  0.00  0.00    +0.000 A 
ATOM     10  C   UNL     1       2.362   7.042  18.127  0.00  0.00    +0.000 A 
BRANCH   8  11
ATOM     11  S   UNL     1       4.160   3.408  18.391  0.00  0.00    +0.000 S 
ATOM     12  O   UNL     1       3.573   2.314  19.137  0.00  0.00    +0.000 OA
ATOM     13  O   UNL     1       4.276   3.357  16.949  0.00  0.00    +0.000 OA
BRANCH  11  14
ATOM     14  N   UNL     1       5.713   3.720  18.987  0.00  0.00    +0.000 N 
ATOM     15  C   UNL     1       6.442   4.731  18.380  0.00  0.00    +0.000 A 
ATOM     16  C   UNL     1       6.336   6.116  18.613  0.00  0.00    +0.000 A 
ATOM     17  C   UNL     1       7.281   6.666  17.779  0.00  0.00    +0.000 A 
ATOM     18  C   UNL     1       7.739   8.038  17.494  0.00  0.00    +0.000 C 
ATOM     19  O   UNL     1       7.911   5.672  17.098  0.00  0.00    +0.000 OA
ATOM     20  N   UNL     1       7.413   4.448  17.510  0.00  0.00    +0.000 NA
ATOM     21  H   UNL     1       6.224   2.838  19.010  0.00  0.00    +0.000 HD
ENDBRANCH  11  14
ENDBRANCH   8  11
ENDBRANCH   3   5
BRANCH   1  22
ATOM     22  C   UNL     1       0.710  10.890  19.425  0.00  0.00    +0.000 C 
ATOM     23  C   UNL     1       0.921  10.955  20.943  0.00  0.00    +0.000 C 
BRANCH  22  29
ATOM     24  C   UNL     1      -5.719  12.170  18.650  0.00  0.00    +0.000 A 
ATOM     25  C   UNL     1      -5.240  12.865  19.757  0.00  0.00    +0.000 A 
ATOM     26  C   UNL     1      -3.887  12.776  20.113  0.00  0.00    +0.000 A 
ATOM     27  C   UNL     1      -2.987  11.993  19.368  0.00  0.00    +0.000 A 
ATOM     28  C   UNL     1      -1.619  11.880  19.707  0.00  0.00    +0.000 A 
ATOM     29  C   UNL     1      -0.733  11.082  18.957  0.00  0.00    +0.000 A 
ATOM     30  C   UNL     1      -1.255  10.395  17.851  0.00  0.00    +0.000 A 
ATOM     31  C   UNL     1      -2.607  10.489  17.508  0.00  0.00    +0.000 A 
ATOM     32  C   UNL     1      -3.483  11.281  18.255  0.00  0.00    +0.000 A 
ATOM     33  C   UNL     1      -4.844  11.366  17.918  0.00  0.00    +0.000 A 
BRANCH  24  35
ATOM     34  C   UNL     1      -7.487  13.367  17.637  0.00  0.00    +0.000 C 
ATOM     35  O   UNL     1      -7.018  12.157  18.218  0.00  0.00    +0.000 OA
ENDBRANCH  24  35
ENDBRANCH  22  29
ENDBRANCH   1  22
TORSDOF 6
ENDMDL
MODEL 2
REMARK VINA RESULT:      -9.1      0.909      1.591
REMARK  Name = 
REMARK  9 active torsions:
REMARK  status: ('A' for Active; 'I' for Inactive)
REMARK    1  A    between atoms: C_1  and  O_2
REMARK    2  A    between atoms: O_2  and  C_3
REMARK    3  A    between atoms: C_8  and  C_9
REMARK    4  A    between atoms: C_9  and  C_10
REMARK    5  A    between atoms: C_9  and  C_11
REMARK    6  A    between atoms: N_13  and  C_14
REMARK    7  A    between atoms: C_17  and  S_18
REMARK    8  A    between atoms: S_18  and  N_21
REMARK    9  A    between atoms: C_24  and  C_25
REMARK                            x       y       z     vdW  Elec       q    Type
REMARK                         _______ _______ _______ _____ _____    ______ ____
ROOT
ATOM      1  C   UNL     1       1.251   9.177  20.046  0.00  0.00    +0.000 C 
ATOM      2  O   UNL     1       1.829   9.473  19.000  0.00  0.00    +0.000 OA
ATOM      3  N   UNL     1       1.239   7.904  20.594  0.00  0.00    +0.000 N 
ATOM      4  H   UNL     1       0.442   7.685  21.180  0.00  0.00    +0.000 HD
ENDROOT
BRANCH   3   5
ATOM      5  C   UNL     1       1.929   6.819  20.013  0.00  0.00    +0.000 A 
ATOM      6  C   UNL     1       2.217   5.647  20.723  0.00  0.00    +0.000 A 
ATOM      7  C   UNL     1       2.899   4.587  20.104  0.00  0.00    +0.000 A 
ATOM      8  C   UNL     1       3.312   4.717  18.775  0.00  0.00    +0.000 A 
ATOM      9  C   UNL     1       3.044   5.893  18.065  0.00  0.00    +0.000 A 
ATOM     10  C   UNL     1       2.324   6.924  18.676  0.00  0.00    +0.000 A 
BRANCH   8  11
ATOM     11  S   UNL     1       4.226   3.399  17.992  0.00  0.00    +0.000 S 
ATOM     12  O   UNL     1       3.719   2.137  18.489  0.00  0.00    +0.000 OA
ATOM     13  O   UNL     1       4.264   3.688  16.574  0.00  0.00    +0.000 OA
BRANCH  11  14
ATOM     14  N   UNL     1       5.797   3.638  18.573  0.00  0.00    +0.000 N 
ATOM     15  C   UNL     1       6.510   4.716  18.072  0.00  0.00    +0.000 A 
ATOM     16  C   UNL     1       6.416   6.062  18.476  0.00  0.00    +0.000 A 
ATOM     17  C   UNL     1       7.335   6.711  17.687  0.00  0.00    +0.000 A 
ATOM     18  C   UNL     1       7.788   8.108  17.557  0.00  0.00    +0.000 C 
ATOM     19  O   UNL     1       7.941   5.808  16.870  0.00  0.00    +0.000 OA
ATOM     20  N   UNL     1       7.453   4.543  17.144  0.00  0.00    +0.000 NA
ATOM     21  H   UNL     1       6.306   2.759  18.472  0.00  0.00    +0.000 HD
ENDBRANCH  11  14
ENDBRANCH   8  11
ENDBRANCH   3   5
BRANCH   1  22
ATOM     22  C   UNL     1       0.542  10.263  20.865  0.00  0.00    +0.000 C 
ATOM     23  C   UNL     1       0.485   9.774  22.318  0.00  0.00    +0.000 C 
BRANCH  22  29
ATOM     24  C   UNL     1      -4.760  11.879  17.279  0.00  0.00    +0.000 A 
ATOM     25  C   UNL     1      -4.088  10.829  16.661  0.00  0.00    +0.000 A 
ATOM     26  C   UNL     1      -2.935  10.287  17.249  0.00  0.00    +0.000 A 
ATOM     27  C   UNL     1      -2.438  10.782  18.468  0.00  0.00    +0.000 A 
ATOM     28  C   UNL     1      -1.276  10.259  19.080  0.00  0.00    +0.000 A 
ATOM     29  C   UNL     1      -0.783  10.773  20.296  0.00  0.00    +0.000 A 
ATOM     30  C   UNL     1      -1.488  11.833  20.886  0.00  0.00    +0.000 A 
ATOM     31  C   UNL     1      -2.633  12.367  20.288  0.00  0.00    +0.000 A 
ATOM     32  C   UNL     1      -3.118  11.854  19.082  0.00  0.00    +0.000 A 
ATOM     33  C   UNL     1      -4.262  12.399  18.474  0.00  0.00    +0.000 A 
BRANCH  24  35
ATOM     34  C   UNL     1      -6.707  13.127  17.767  0.00  0.00    +0.000 C 
ATOM     35  O   UNL     1      -5.877  12.506  16.794  0.00  0.00    +0.000 OA
ENDBRANCH  24  35
ENDBRANCH  22  29
ENDBRANCH   1  22
TORSDOF 6
ENDMDL
MODEL 3
REMARK VINA RESULT:      -9.0      2.365      2.956
REMARK  Name = 
REMARK  9 active torsions:
REMARK  status: ('A' for Active; 'I' for Inactive)
REMARK    1  A    between atoms: C_1  and  O_2
REMARK    2  A    between atoms: O_2  and  C_3
REMARK    3  A    between atoms: C_8  and  C_9
REMARK    4  A    between atoms: C_9  and  C_10
REMARK    5  A    between atoms: C_9  and  C_11
REMARK    6  A    between atoms: N_13  and  C_14
REMARK    7  A    between atoms: C_17  and  S_18
REMARK    8  A    between atoms: S_18  and  N_21
REMARK    9  A    between atoms: C_24  and  C_25
REMARK                            x       y       z     vdW  Elec       q    Type
REMARK                         _______ _______ _______ _____ _____    ______ ____
ROOT
ATOM      1  C   UNL     1      -0.161  10.424  19.777  0.00  0.00    +0.000 C 
ATOM      2  O   UNL     1      -1.060   9.738  19.292  0.00  0.00    +0.000 OA
ATOM      3  N   UNL     1       1.108   9.950  20.069  0.00  0.00    +0.000 N 
ATOM      4  H   UNL     1       1.603  10.440  20.805  0.00  0.00    +0.000 HD
ENDROOT
BRANCH   3   5
ATOM      5  C   UNL     1       1.505   8.623  19.799  0.00  0.00    +0.000 A 
ATOM      6  C   UNL     1       1.434   7.608  20.760  0.00  0.00    +0.000 A 
ATOM      7  C   UNL     1       1.832   6.299  20.447  0.00  0.00    +0.000 A 
ATOM      8  C   UNL     1       2.324   6.016  19.170  0.00  0.00    +0.000 A 
ATOM      9  C   UNL     1       2.417   7.030  18.209  0.00  0.00    +0.000 A 
ATOM     10  C   UNL     1       1.975   8.320  18.516  0.00  0.00    +0.000 A 
BRANCH   8  11
ATOM     11  S   UNL     1       2.883   4.368  18.774  0.00  0.00    +0.000 S 
ATOM     12  O   UNL     1       2.005   3.420  19.428  0.00  0.00    +0.000 OA
ATOM     13  O   UNL     1       3.105   4.322  17.345  0.00  0.00    +0.000 OA
BRANCH  11  14
ATOM     14  N   UNL     1       4.410   4.306  19.500  0.00  0.00    +0.000 N 
ATOM     15  C   UNL     1       5.468   4.890  18.820  0.00  0.00    +0.000 A 
ATOM     16  C   UNL     1       5.808   6.256  18.782  0.00  0.00    +0.000 A 
ATOM     17  C   UNL     1       6.932   6.297  17.992  0.00  0.00    +0.000 A 
ATOM     18  C   UNL     1       7.832   7.367  17.524  0.00  0.00    +0.000 C 
ATOM     19  O   UNL     1       7.244   5.036  17.591  0.00  0.00    +0.000 OA
ATOM     20  N   UNL     1       6.347   4.142  18.150  0.00  0.00    +0.000 NA
ATOM     21  H   UNL     1       4.601   3.336  19.750  0.00  0.00    +0.000 HD
ENDBRANCH  11  14
ENDBRANCH   8  11
ENDBRANCH   3   5
BRANCH   1  22
ATOM     22  C   UNL     1      -0.389  11.920  20.032  0.00  0.00    +0.000 C 
ATOM     23  C   UNL     1       0.851  12.453  20.760  0.00  0.00    +0.000 C 
BRANCH  22  29
ATOM     24  C   UNL     1      -5.707  12.865  23.828  0.00  0.00    +0.000 A 
ATOM     25  C   UNL     1      -4.626  12.508  24.628  0.00  0.00    +0.000 A 
ATOM     26  C   UNL     1      -3.368  12.278  24.053  0.00  0.00    +0.000 A 
ATOM     27  C   UNL     1      -3.167  12.405  22.666  0.00  0.00    +0.000 A 
ATOM     28  C   UNL     1      -1.912  12.174  22.058  0.00  0.00    +0.000 A 
ATOM     29  C   UNL     1      -1.729  12.294  20.666  0.00  0.00    +0.000 A 
ATOM     30  C   UNL     1      -2.844  12.654  19.894  0.00  0.00    +0.000 A 
ATOM     31  C   UNL     1      -4.093  12.878  20.479  0.00  0.00    +0.000 A 
ATOM     32  C   UNL     1      -4.270  12.756  21.860  0.00  0.00    +0.000 A 
ATOM     33  C   UNL     1      -5.529  12.968  22.448  0.00  0.00    +0.000 A 
BRANCH  24  35
ATOM     34  C   UNL     1      -7.523  14.371  23.964  0.00  0.00    +0.000 C 
ATOM     35  O   UNL     1      -6.984  13.091  24.267  0.00  0.00    +0.000 OA
ENDBRANCH  24  35
ENDBRANCH  22  29
ENDBRANCH   1  22
TORSDOF 6
ENDMDL
MODEL 4
REMARK VINA RESULT:      -9.0      1.144      1.202
REMARK  Name = 
REMARK  9 active torsions:
REMARK  status: ('A' for Active; 'I' for Inactive)
REMARK    1  A    between atoms: C_1  and  O_2
REMARK    2  A    between atoms: O_2  and  C_3
REMARK    3  A    between atoms: C_8  and  C_9
REMARK    4  A    between atoms: C_9  and  C_10
REMARK    5  A    between atoms: C_9  and  C_11
REMARK    6  A    between atoms: N_13  and  C_14
REMARK    7  A    between atoms: C_17  and  S_18
REMARK    8  A    between atoms: S_18  and  N_21
REMARK    9  A    between atoms: C_24  and  C_25
REMARK                            x       y       z     vdW  Elec       q    Type
REMARK                         _______ _______ _______ _____ _____    ______ ____
ROOT
ATOM      1  C   UNL     1       1.645   9.383  18.319  0.00  0.00    +0.000 C 
ATOM      2  O   UNL     1       2.233   9.285  17.242  0.00  0.00    +0.000 OA
ATOM      3  N   UNL     1       1.558   8.365  19.255  0.00  0.00    +0.000 N 
ATOM      4  H   UNL     1       0.753   8.399  19.869  0.00  0.00    +0.000 HD
ENDROOT
BRANCH   3   5
ATOM      5  C   UNL     1       2.178   7.110  19.073  0.00  0.00    +0.000 A 
ATOM      6  C   UNL     1       3.236   6.672  19.878  0.00  0.00    +0.000 A 
ATOM      7  C   UNL     1       3.819   5.412  19.668  0.00  0.00    +0.000 A 
ATOM      8  C   UNL     1       3.350   4.601  18.631  0.00  0.00    +0.000 A 
ATOM      9  C   UNL     1       2.304   5.040  17.809  0.00  0.00    +0.000 A 
ATOM     10  C   UNL     1       1.700   6.277  18.056  0.00  0.00    +0.000 A 
BRANCH   8  11
ATOM     11  S   UNL     1       4.115   3.020  18.319  0.00  0.00    +0.000 S 
ATOM     12  O   UNL     1       4.855   2.631  19.502  0.00  0.00    +0.000 OA
ATOM     13  O   UNL     1       3.101   2.158  17.750  0.00  0.00    +0.000 OA
BRANCH  11  14
ATOM     14  N   UNL     1       5.203   3.370  17.071  0.00  0.00    +0.000 N 
ATOM     15  C   UNL     1       5.702   4.661  16.999  0.00  0.00    +0.000 A 
ATOM     16  C   UNL     1       6.761   5.209  17.748  0.00  0.00    +0.000 A 
ATOM     17  C   UNL     1       6.864   6.499  17.286  0.00  0.00    +0.000 A 
ATOM     18  C   UNL     1       7.739   7.645  17.593  0.00  0.00    +0.000 C 
ATOM     19  O   UNL     1       5.930   6.704  16.319  0.00  0.00    +0.000 OA
ATOM     20  N   UNL     1       5.226   5.531  16.106  0.00  0.00    +0.000 NA
ATOM     21  H   UNL     1       4.780   3.071  16.192  0.00  0.00    +0.000 HD
ENDBRANCH  11  14
ENDBRANCH   8  11
ENDBRANCH   3   5
BRANCH   1  22
ATOM     22  C   UNL     1       1.008  10.719  18.725  0.00  0.00    +0.000 C 
ATOM     23  C   UNL     1       1.472  11.030  20.154  0.00  0.00    +0.000 C 
BRANCH  22  29
ATOM     24  C   UNL     1      -5.492  11.864  18.890  0.00  0.00    +0.000 A 
ATOM     25  C   UNL     1      -4.852  12.704  19.797  0.00  0.00    +0.000 A 
ATOM     26  C   UNL     1      -3.456  12.668  19.927  0.00  0.00    +0.000 A 
ATOM     27  C   UNL     1      -2.675  11.793  19.150  0.00  0.00    +0.000 A 
ATOM     28  C   UNL     1      -1.267  11.732  19.265  0.00  0.00    +0.000 A 
ATOM     29  C   UNL     1      -0.498  10.842  18.488  0.00  0.00    +0.000 A 
ATOM     30  C   UNL     1      -1.181  10.011  17.587  0.00  0.00    +0.000 A 
ATOM     31  C   UNL     1      -2.573  10.054  17.469  0.00  0.00    +0.000 A 
ATOM     32  C   UNL     1      -3.331  10.937  18.242  0.00  0.00    +0.000 A 
ATOM     33  C   UNL     1      -4.732  10.972  18.133  0.00  0.00    +0.000 A 
BRANCH  24  35
ATOM     34  C   UNL     1      -7.609  11.342  19.801  0.00  0.00    +0.000 C 
ATOM     35  O   UNL     1      -6.844  11.790  18.689  0.00  0.00    +0.000 OA
ENDBRANCH  24  35
ENDBRANCH  22  29
ENDBRANCH   1  22
TORSDOF 6
ENDMDL
MODEL 5
REMARK VINA RESULT:      -8.8      1.225      1.264
REMARK  Name = 
REMARK  9 active torsions:
REMARK  status: ('A' for Active; 'I' for Inactive)
REMARK    1  A    between atoms: C_1  and  O_2
REMARK    2  A    between atoms: O_2  and  C_3
REMARK    3  A    between atoms: C_8  and  C_9
REMARK    4  A    between atoms: C_9  and  C_10
REMARK    5  A    between atoms: C_9  and  C_11
REMARK    6  A    between atoms: N_13  and  C_14
REMARK    7  A    between atoms: C_17  and  S_18
REMARK    8  A    between atoms: S_18  and  N_21
REMARK    9  A    between atoms: C_24  and  C_25
REMARK                            x       y       z     vdW  Elec       q    Type
REMARK                         _______ _______ _______ _____ _____    ______ ____
ROOT
ATOM      1  C   UNL     1       1.094   9.077  19.919  0.00  0.00    +0.000 C 
ATOM      2  O   UNL     1       0.635   8.364  20.811  0.00  0.00    +0.000 OA
ATOM      3  N   UNL     1       1.956   8.630  18.931  0.00  0.00    +0.000 N 
ATOM      4  H   UNL     1       2.569   9.331  18.531  0.00  0.00    +0.000 HD
ENDROOT
BRANCH   3   5
ATOM      5  C   UNL     1       2.369   7.283  18.834  0.00  0.00    +0.000 A 
ATOM      6  C   UNL     1       3.253   6.701  19.750  0.00  0.00    +0.000 A 
ATOM      7  C   UNL     1       3.631   5.355  19.621  0.00  0.00    +0.000 A 
ATOM      8  C   UNL     1       3.135   4.601  18.554  0.00  0.00    +0.000 A 
ATOM      9  C   UNL     1       2.265   5.181  17.623  0.00  0.00    +0.000 A 
ATOM     10  C   UNL     1       1.859   6.508  17.787  0.00  0.00    +0.000 A 
BRANCH   8  11
ATOM     11  S   UNL     1       3.648   2.904  18.348  0.00  0.00    +0.000 S 
ATOM     12  O   UNL     1       4.176   2.431  19.611  0.00  0.00    +0.000 OA
ATOM     13  O   UNL     1       2.570   2.209  17.677  0.00  0.00    +0.000 OA
BRANCH  11  14
ATOM     14  N   UNL     1       4.910   3.028  17.227  0.00  0.00    +0.000 N 
ATOM     15  C   UNL     1       5.497   4.272  17.058  0.00  0.00    +0.000 A 
ATOM     16  C   UNL     1       6.483   4.868  17.869  0.00  0.00    +0.000 A 
ATOM     17  C   UNL     1       6.728   6.076  17.261  0.00  0.00    +0.000 A 
ATOM     18  C   UNL     1       7.628   7.211  17.535  0.00  0.00    +0.000 C 
ATOM     19  O   UNL     1       5.943   6.189  16.156  0.00  0.00    +0.000 OA
ATOM     20  N   UNL     1       5.200   5.032  16.002  0.00  0.00    +0.000 NA
ATOM     21  H   UNL     1       4.587   2.631  16.345  0.00  0.00    +0.000 HD
ENDBRANCH  11  14
ENDBRANCH   8  11
ENDBRANCH   3   5
BRANCH   1  22
ATOM     22  C   UNL     1       0.661  10.545  19.811  0.00  0.00    +0.000 C 
ATOM     23  C   UNL     1       0.816  11.170  21.203  0.00  0.00    +0.000 C 
BRANCH  22  29
ATOM     24  C   UNL     1      -5.528  12.052  18.078  0.00  0.00    +0.000 A 
ATOM     25  C   UNL     1      -5.214  12.696  19.271  0.00  0.00    +0.000 A 
ATOM     26  C   UNL     1      -3.937  12.552  19.834  0.00  0.00    +0.000 A 
ATOM     27  C   UNL     1      -2.951  11.766  19.211  0.00  0.00    +0.000 A 
ATOM     28  C   UNL     1      -1.658  11.599  19.758  0.00  0.00    +0.000 A 
ATOM     29  C   UNL     1      -0.684  10.799  19.129  0.00  0.00    +0.000 A 
ATOM     30  C   UNL     1      -1.041  10.166  17.929  0.00  0.00    +0.000 A 
ATOM     31  C   UNL     1      -2.318  10.314  17.380  0.00  0.00    +0.000 A 
ATOM     32  C   UNL     1      -3.281  11.108  18.008  0.00  0.00    +0.000 A 
ATOM     33  C   UNL     1      -4.569  11.247  17.463  0.00  0.00    +0.000 A 
BRANCH  24  35
ATOM     34  C   UNL     1      -7.118  13.360  16.917  0.00  0.00    +0.000 C 
ATOM     35  O   UNL     1      -6.741  12.095  17.445  0.00  0.00    +0.000 OA
ENDBRANCH  24  35
ENDBRANCH  22  29
ENDBRANCH   1  22
TORSDOF 6
ENDMDL
MODEL 6
REMARK VINA RESULT:      -8.8      2.103      2.483
REMARK  Name = 
REMARK  9 active torsions:
REMARK  status: ('A' for Active; 'I' for Inactive)
REMARK    1  A    between atoms: C_1  and  O_2
REMARK    2  A    between atoms: O_2  and  C_3
REMARK    3  A    between atoms: C_8  and  C_9
REMARK    4  A    between atoms: C_9  and  C_10
REMARK    5  A    between atoms: C_9  and  C_11
REMARK    6  A    between atoms: N_13  and  C_14
REMARK    7  A    between atoms: C_17  and  S_18
REMARK    8  A    between atoms: S_18  and  N_21
REMARK    9  A    between atoms: C_24  and  C_25
REMARK                            x       y       z     vdW  Elec       q    Type
REMARK                         _______ _______ _______ _____ _____    ______ ____
ROOT
ATOM      1  C   UNL     1       0.979  11.826  18.873  0.00  0.00    +0.000 C 
ATOM      2  O   UNL     1       2.148  12.022  18.543  0.00  0.00    +0.000 OA
ATOM      3  N   UNL     1       0.435  10.572  19.104  0.00  0.00    +0.000 N 
ATOM      4  H   UNL     1      -0.566  10.493  18.962  0.00  0.00    +0.000 HD
ENDROOT
BRANCH   3   5
ATOM      5  C   UNL     1       1.194   9.385  19.014  0.00  0.00    +0.000 A 
ATOM      6  C   UNL     1       1.403   8.544  20.113  0.00  0.00    +0.000 A 
ATOM      7  C   UNL     1       2.158   7.368  19.978  0.00  0.00    +0.000 A 
ATOM      8  C   UNL     1       2.723   7.051  18.740  0.00  0.00    +0.000 A 
ATOM      9  C   UNL     1       2.534   7.897  17.641  0.00  0.00    +0.000 A 
ATOM     10  C   UNL     1       1.742   9.042  17.774  0.00  0.00    +0.000 A 
BRANCH   8  11
ATOM     11  S   UNL     1       3.729   5.587  18.567  0.00  0.00    +0.000 S 
ATOM     12  O   UNL     1       4.051   5.097  19.891  0.00  0.00    +0.000 OA
ATOM     13  O   UNL     1       3.084   4.738  17.588  0.00  0.00    +0.000 OA
BRANCH  11  14
ATOM     14  N   UNL     1       5.133   6.183  17.835  0.00  0.00    +0.000 N 
ATOM     15  C   UNL     1       5.694   5.431  16.815  0.00  0.00    +0.000 A 
ATOM     16  C   UNL     1       5.296   5.394  15.464  0.00  0.00    +0.000 A 
ATOM     17  C   UNL     1       6.178   4.516  14.881  0.00  0.00    +0.000 A 
ATOM     18  C   UNL     1       6.376   3.998  13.515  0.00  0.00    +0.000 C 
ATOM     19  O   UNL     1       7.048   4.063  15.823  0.00  0.00    +0.000 OA
ATOM     20  N   UNL     1       6.771   4.675  17.034  0.00  0.00    +0.000 NA
ATOM     21  H   UNL     1       5.805   6.395  18.572  0.00  0.00    +0.000 HD
ENDBRANCH  11  14
ENDBRANCH   8  11
ENDBRANCH   3   5
BRANCH   1  22
ATOM     22  C   UNL     1       0.042  13.015  19.123  0.00  0.00    +0.000 C 
ATOM     23  C   UNL     1       0.538  13.730  20.386  0.00  0.00    +0.000 C 
BRANCH  22  29
ATOM     24  C   UNL     1      -6.351  11.882  20.321  0.00  0.00    +0.000 A 
ATOM     25  C   UNL     1      -5.798  12.580  21.390  0.00  0.00    +0.000 A 
ATOM     26  C   UNL     1      -4.449  12.964  21.359  0.00  0.00    +0.000 A 
ATOM     27  C   UNL     1      -3.630  12.659  20.257  0.00  0.00    +0.000 A 
ATOM     28  C   UNL     1      -2.266  13.028  20.201  0.00  0.00    +0.000 A 
ATOM     29  C   UNL     1      -1.456  12.705  19.095  0.00  0.00    +0.000 A 
ATOM     30  C   UNL     1      -2.050  11.998  18.039  0.00  0.00    +0.000 A 
ATOM     31  C   UNL     1      -3.394  11.619  18.083  0.00  0.00    +0.000 A 
ATOM     32  C   UNL     1      -4.194  11.940  19.182  0.00  0.00    +0.000 A 
ATOM     33  C   UNL     1      -5.543  11.548  19.233  0.00  0.00    +0.000 A 
BRANCH  24  35
ATOM     34  C   UNL     1      -7.864  10.110  20.717  0.00  0.00    +0.000 C 
ATOM     35  O   UNL     1      -7.642  11.433  20.244  0.00  0.00    +0.000 OA
ENDBRANCH  24  35
ENDBRANCH  22  29
ENDBRANCH   1  22
TORSDOF 6
ENDMDL
MODEL 7
REMARK VINA RESULT:      -8.8      0.847      1.459
REMARK  Name = 
REMARK  9 active torsions:
REMARK  status: ('A' for Active; 'I' for Inactive)
REMARK    1  A    between atoms: C_1  and  O_2
REMARK    2  A    between atoms: O_2  and  C_3
REMARK    3  A    between atoms: C_8  and  C_9
REMARK    4  A    between atoms: C_9  and  C_10
REMARK    5  A    between atoms: C_9  and  C_11
REMARK    6  A    between atoms: N_13  and  C_14
REMARK    7  A    between atoms: C_17  and  S_18
REMARK    8  A    between atoms: S_18  and  N_21
REMARK    9  A    between atoms: C_24  and  C_25
REMARK                            x       y       z     vdW  Elec       q    Type
REMARK                         _______ _______ _______ _____ _____    ______ ____
ROOT
ATOM      1  C   UNL     1       0.591   9.821  18.563  0.00  0.00    +0.000 C 
ATOM      2  O   UNL     1       0.153   9.277  17.550  0.00  0.00    +0.000 OA
ATOM      3  N   UNL     1       1.468   9.220  19.453  0.00  0.00    +0.000 N 
ATOM      4  H   UNL     1       1.434   9.565  20.405  0.00  0.00    +0.000 HD
ENDROOT
BRANCH   3   5
ATOM      5  C   UNL     1       1.977   7.919  19.257  0.00  0.00    +0.000 A 
ATOM      6  C   UNL     1       1.907   6.929  20.245  0.00  0.00    +0.000 A 
ATOM      7  C   UNL     1       2.420   5.644  20.006  0.00  0.00    +0.000 A 
ATOM      8  C   UNL     1       3.024   5.362  18.777  0.00  0.00    +0.000 A 
ATOM      9  C   UNL     1       3.115   6.352  17.792  0.00  0.00    +0.000 A 
ATOM     10  C   UNL     1       2.560   7.614  18.022  0.00  0.00    +0.000 A 
BRANCH   8  11
ATOM     11  S   UNL     1       3.726   3.749  18.479  0.00  0.00    +0.000 S 
ATOM     12  O   UNL     1       2.957   2.773  19.222  0.00  0.00    +0.000 OA
ATOM     13  O   UNL     1       3.919   3.623  17.050  0.00  0.00    +0.000 OA
BRANCH  11  14
ATOM     14  N   UNL     1       5.269   3.880  19.162  0.00  0.00    +0.000 N 
ATOM     15  C   UNL     1       6.162   4.756  18.565  0.00  0.00    +0.000 A 
ATOM     16  C   UNL     1       6.231   6.152  18.737  0.00  0.00    +0.000 A 
ATOM     17  C   UNL     1       7.289   6.533  17.946  0.00  0.00    +0.000 A 
ATOM     18  C   UNL     1       7.945   7.817  17.638  0.00  0.00    +0.000 C 
ATOM     19  O   UNL     1       7.819   5.432  17.347  0.00  0.00    +0.000 OA
ATOM     20  N   UNL     1       7.137   4.306  17.772  0.00  0.00    +0.000 NA
ATOM     21  H   UNL     1       5.653   2.940  19.253  0.00  0.00    +0.000 HD
ENDBRANCH  11  14
ENDBRANCH   8  11
ENDBRANCH   3   5
BRANCH   1  22
ATOM     22  C   UNL     1       0.224  11.279  18.870  0.00  0.00    +0.000 C 
ATOM     23  C   UNL     1       1.185  11.771  19.960  0.00  0.00    +0.000 C 
BRANCH  22  29
ATOM     24  C   UNL     1      -6.286  12.356  18.673  0.00  0.00    +0.000 A 
ATOM     25  C   UNL     1      -5.885  11.735  17.494  0.00  0.00    +0.000 A 
ATOM     26  C   UNL     1      -4.542  11.377  17.307  0.00  0.00    +0.000 A 
ATOM     27  C   UNL     1      -3.576  11.631  18.298  0.00  0.00    +0.000 A 
ATOM     28  C   UNL     1      -2.215  11.286  18.135  0.00  0.00    +0.000 A 
ATOM     29  C   UNL     1      -1.257  11.556  19.132  0.00  0.00    +0.000 A 
ATOM     30  C   UNL     1      -1.701  12.185  20.305  0.00  0.00    +0.000 A 
ATOM     31  C   UNL     1      -3.042  12.540  20.478  0.00  0.00    +0.000 A 
ATOM     32  C   UNL     1      -3.988  12.270  19.485  0.00  0.00    +0.000 A 
ATOM     33  C   UNL     1      -5.334  12.638  19.653  0.00  0.00    +0.000 A 
BRANCH  24  35
ATOM     34  C   UNL     1      -7.675  14.106  19.445  0.00  0.00    +0.000 C 
ATOM     35  O   UNL     1      -7.558  12.774  18.962  0.00  0.00    +0.000 OA
ENDBRANCH  24  35
ENDBRANCH  22  29
ENDBRANCH   1  22
TORSDOF 6
ENDMDL
MODEL 8
REMARK VINA RESULT:      -8.7      2.757      3.509
REMARK  Name = 
REMARK  9 active torsions:
REMARK  status: ('A' for Active; 'I' for Inactive)
REMARK    1  A    between atoms: C_1  and  O_2
REMARK    2  A    between atoms: O_2  and  C_3
REMARK    3  A    between atoms: C_8  and  C_9
REMARK    4  A    between atoms: C_9  and  C_10
REMARK    5  A    between atoms: C_9  and  C_11
REMARK    6  A    between atoms: N_13  and  C_14
REMARK    7  A    between atoms: C_17  and  S_18
REMARK    8  A    between atoms: S_18  and  N_21
REMARK    9  A    between atoms: C_24  and  C_25
REMARK                            x       y       z     vdW  Elec       q    Type
REMARK                         _______ _______ _______ _____ _____    ______ ____
ROOT
ATOM      1  C   UNL     1       0.663  11.962  20.545  0.00  0.00    +0.000 C 
ATOM      2  O   UNL     1       1.476  11.821  21.459  0.00  0.00    +0.000 OA
ATOM      3  N   UNL     1       0.326  10.966  19.643  0.00  0.00    +0.000 N 
ATOM      4  H   UNL     1      -0.003  11.284  18.738  0.00  0.00    +0.000 HD
ENDROOT
BRANCH   3   5
ATOM      5  C   UNL     1       0.867   9.664  19.710  0.00  0.00    +0.000 A 
ATOM      6  C   UNL     1       0.742   8.857  20.847  0.00  0.00    +0.000 A 
ATOM      7  C   UNL     1       1.288   7.564  20.869  0.00  0.00    +0.000 A 
ATOM      8  C   UNL     1       1.981   7.091  19.751  0.00  0.00    +0.000 A 
ATOM      9  C   UNL     1       2.126   7.899  18.617  0.00  0.00    +0.000 A 
ATOM     10  C   UNL     1       1.539   9.167  18.588  0.00  0.00    +0.000 A 
BRANCH   8  11
ATOM     11  S   UNL     1       2.725   5.469  19.784  0.00  0.00    +0.000 S 
ATOM     12  O   UNL     1       2.419   4.854  21.058  0.00  0.00    +0.000 OA
ATOM     13  O   UNL     1       2.390   4.819  18.535  0.00  0.00    +0.000 OA
BRANCH  11  14
ATOM     14  N   UNL     1       4.380   5.816  19.714  0.00  0.00    +0.000 N 
ATOM     15  C   UNL     1       5.084   5.370  18.607  0.00  0.00    +0.000 A 
ATOM     16  C   UNL     1       5.150   5.975  17.337  0.00  0.00    +0.000 A 
ATOM     17  C   UNL     1       5.983   5.151  16.619  0.00  0.00    +0.000 A 
ATOM     18  C   UNL     1       6.511   5.154  15.242  0.00  0.00    +0.000 C 
ATOM     19  O   UNL     1       6.390   4.124  17.412  0.00  0.00    +0.000 OA
ATOM     20  N   UNL     1       5.859   4.286  18.680  0.00  0.00    +0.000 NA
ATOM     21  H   UNL     1       4.802   5.508  20.590  0.00  0.00    +0.000 HD
ENDBRANCH  11  14
ENDBRANCH   8  11
ENDBRANCH   3   5
BRANCH   1  22
ATOM     22  C   UNL     1      -0.101  13.284  20.395  0.00  0.00    +0.000 C 
ATOM     23  C   UNL     1       0.809  14.400  20.922  0.00  0.00    +0.000 C 
BRANCH  22  29
ATOM     24  C   UNL     1      -5.742  12.656  23.766  0.00  0.00    +0.000 A 
ATOM     25  C   UNL     1      -4.667  12.435  24.621  0.00  0.00    +0.000 A 
ATOM     26  C   UNL     1      -3.352  12.539  24.142  0.00  0.00    +0.000 A 
ATOM     27  C   UNL     1      -3.091  12.870  22.800  0.00  0.00    +0.000 A 
ATOM     28  C   UNL     1      -1.777  12.976  22.289  0.00  0.00    +0.000 A 
ATOM     29  C   UNL     1      -1.530  13.297  20.939  0.00  0.00    +0.000 A 
ATOM     30  C   UNL     1      -2.642  13.509  20.109  0.00  0.00    +0.000 A 
ATOM     31  C   UNL     1      -3.946  13.399  20.598  0.00  0.00    +0.000 A 
ATOM     32  C   UNL     1      -4.186  13.080  21.937  0.00  0.00    +0.000 A 
ATOM     33  C   UNL     1      -5.498  12.957  22.426  0.00  0.00    +0.000 A 
BRANCH  24  35
ATOM     34  C   UNL     1      -7.894  11.874  23.178  0.00  0.00    +0.000 C 
ATOM     35  O   UNL     1      -7.065  12.560  24.107  0.00  0.00    +0.000 OA
ENDBRANCH  24  35
ENDBRANCH  22  29
ENDBRANCH   1  22
TORSDOF 6
ENDMDL
MODEL 9
REMARK VINA RESULT:      -8.7      2.084      2.867
REMARK  Name = 
REMARK  9 active torsions:
REMARK  status: ('A' for Active; 'I' for Inactive)
REMARK    1  A    between atoms: C_1  and  O_2
REMARK    2  A    between atoms: O_2  and  C_3
REMARK    3  A    between atoms: C_8  and  C_9
REMARK    4  A    between atoms: C_9  and  C_10
REMARK    5  A    between atoms: C_9  and  C_11
REMARK    6  A    between atoms: N_13  and  C_14
REMARK    7  A    between atoms: C_17  and  S_18
REMARK    8  A    between atoms: S_18  and  N_21
REMARK    9  A    between atoms: C_24  and  C_25
REMARK                            x       y       z     vdW  Elec       q    Type
REMARK                         _______ _______ _______ _____ _____    ______ ____
ROOT
ATOM      1  C   UNL     1       1.819  10.035  18.308  0.00  0.00    +0.000 C 
ATOM      2  O   UNL     1       2.685   9.983  17.435  0.00  0.00    +0.000 OA
ATOM      3  N   UNL     1       1.429   8.953  19.082  0.00  0.00    +0.000 N 
ATOM      4  H   UNL     1       0.484   8.990  19.447  0.00  0.00    +0.000 HD
ENDROOT
BRANCH   3   5
ATOM      5  C   UNL     1       2.024   7.679  18.963  0.00  0.00    +0.000 A 
ATOM      6  C   UNL     1       2.426   7.150  17.731  0.00  0.00    +0.000 A 
ATOM      7  C   UNL     1       3.021   5.881  17.659  0.00  0.00    +0.000 A 
ATOM      8  C   UNL     1       3.192   5.133  18.827  0.00  0.00    +0.000 A 
ATOM      9  C   UNL     1       2.776   5.647  20.061  0.00  0.00    +0.000 A 
ATOM     10  C   UNL     1       2.226   6.931  20.128  0.00  0.00    +0.000 A 
BRANCH   8  11
ATOM     11  S   UNL     1       3.900   3.497  18.743  0.00  0.00    +0.000 S 
ATOM     12  O   UNL     1       3.187   2.645  19.672  0.00  0.00    +0.000 OA
ATOM     13  O   UNL     1       4.014   3.151  17.343  0.00  0.00    +0.000 OA
BRANCH  11  14
ATOM     14  N   UNL     1       5.476   3.742  19.308  0.00  0.00    +0.000 N 
ATOM     15  C   UNL     1       6.263   4.663  18.635  0.00  0.00    +0.000 A 
ATOM     16  C   UNL     1       6.251   6.064  18.781  0.00  0.00    +0.000 A 
ATOM     17  C   UNL     1       7.220   6.498  17.908  0.00  0.00    +0.000 A 
ATOM     18  C   UNL     1       7.764   7.816  17.534  0.00  0.00    +0.000 C 
ATOM     19  O   UNL     1       7.777   5.424  17.287  0.00  0.00    +0.000 OA
ATOM     20  N   UNL     1       7.204   4.263  17.778  0.00  0.00    +0.000 NA
ATOM     21  H   UNL     1       5.928   2.831  19.384  0.00  0.00    +0.000 HD
ENDBRANCH  11  14
ENDBRANCH   8  11
ENDBRANCH   3   5
BRANCH   1  22
ATOM     22  C   UNL     1       1.147  11.372  18.644  0.00  0.00    +0.000 C 
ATOM     23  C   UNL     1       2.244  12.444  18.657  0.00  0.00    +0.000 C 
BRANCH  22  29
ATOM     24  C   UNL     1      -3.512  12.302  23.229  0.00  0.00    +0.000 A 
ATOM     25  C   UNL     1      -3.958  12.802  22.009  0.00  0.00    +0.000 A 
ATOM     26  C   UNL     1      -3.151  12.697  20.866  0.00  0.00    +0.000 A 
ATOM     27  C   UNL     1      -1.885  12.087  20.922  0.00  0.00    +0.000 A 
ATOM     28  C   UNL     1      -1.049  11.973  19.788  0.00  0.00    +0.000 A 
ATOM     29  C   UNL     1       0.222  11.369  19.863  0.00  0.00    +0.000 A 
ATOM     30  C   UNL     1       0.637  10.880  21.111  0.00  0.00    +0.000 A 
ATOM     31  C   UNL     1      -0.175  10.993  22.242  0.00  0.00    +0.000 A 
ATOM     32  C   UNL     1      -1.435  11.594  22.164  0.00  0.00    +0.000 A 
ATOM     33  C   UNL     1      -2.246  11.719  23.305  0.00  0.00    +0.000 A 
BRANCH  24  35
ATOM     34  C   UNL     1      -5.574  12.689  24.315  0.00  0.00    +0.000 C 
ATOM     35  O   UNL     1      -4.193  12.365  24.414  0.00  0.00    +0.000 OA
ENDBRANCH  24  35
ENDBRANCH  22  29
ENDBRANCH   1  22
TORSDOF 6
ENDMDL
