MODEL 1
REMARK VINA RESULT:      -8.9      0.000      0.000
REMARK  Name = 
REMARK  7 active torsions:
REMARK  status: ('A' for Active; 'I' for Inactive)
REMARK    1  A    between atoms: C_1  and  C_2
REMARK    2  A    between atoms: C_4  and  C_5
REMARK    3  A    between atoms: C_8  and  C_9
REMARK    4  A    between atoms: N_11  and  C_12
REMARK    5  A    between atoms: N_11  and  C_13
REMARK    6  A    between atoms: C_13  and  C_14
REMARK    7  A    between atoms: C_13  and  C_20
REMARK                            x       y       z     vdW  Elec       q    Type
REMARK                         _______ _______ _______ _____ _____    ______ ____
ROOT
ATOM      1  C   UNL     1       2.436   8.042  17.979  0.00  0.00    +0.000 C 
ATOM      2  O   UNL     1       2.641   8.256  16.785  0.00  0.00    +0.000 OA
ATOM      3  N   UNL     1       2.793   6.799  18.561  0.00  0.00    +0.000 N 
ATOM      4  C   UNL     1       2.563   6.473  19.974  0.00  0.00    +0.000 C 
ENDROOT
BRANCH   1  12
ATOM      5  C   UNL     1      -1.216  11.806  22.967  0.00  0.00    +0.000 C 
ATOM      6  C   UNL     1      -0.418  11.459  21.738  0.00  0.00    +0.000 A 
ATOM      7  C   UNL     1      -0.066  12.590  20.813  0.00  0.00    +0.000 A 
ATOM      8  C   UNL     1       0.659  12.264  19.724  0.00  0.00    +0.000 A 
ATOM      9  C   UNL     1       1.081  13.277  18.706  0.00  0.00    +0.000 C 
ATOM     10  N   UNL     1       1.032  10.927  19.533  0.00  0.00    +0.000 N 
ATOM     11  N   UNL     1       1.744  10.376  18.524  0.00  0.00    +0.000 NA
ATOM     12  C   UNL     1       1.736   9.059  18.825  0.00  0.00    +0.000 A 
ATOM     13  N   UNL     1       1.069   8.785  19.997  0.00  0.00    +0.000 NA
ATOM     14  C   UNL     1       0.640   9.934  20.433  0.00  0.00    +0.000 A 
ATOM     15  N   UNL     1      -0.081  10.221  21.561  0.00  0.00    +0.000 NA
ENDBRANCH   1  12
BRANCH   3  16
ATOM     16  C   UNL     1       3.545   5.827  17.732  0.00  0.00    +0.000 C 
BRANCH  16  17
ATOM     17  C   UNL     1       5.052   6.007  18.039  0.00  0.00    +0.000 A 
ATOM     18  C   UNL     1       5.668   5.419  19.161  0.00  0.00    +0.000 A 
ATOM     19  C   UNL     1       7.035   5.574  19.399  0.00  0.00    +0.000 A 
ATOM     20  C   UNL     1       7.799   6.373  18.556  0.00  0.00    +0.000 A 
ATOM     21  C   UNL     1       7.199   7.016  17.476  0.00  0.00    +0.000 A 
ATOM     22  C   UNL     1       5.839   6.832  17.216  0.00  0.00    +0.000 A 
ENDBRANCH  16  17
BRANCH  16  23
ATOM     23  C   UNL     1       3.019   4.377  17.829  0.00  0.00    +0.000 A 
ATOM     24  C   UNL     1       1.659   4.124  18.088  0.00  0.00    +0.000 A 
ATOM     25  C   UNL     1       1.215   2.839  18.412  0.00  0.00    +0.000 A 
ATOM     26  C   UNL     1       2.110   1.773  18.419  0.00  0.00    +0.000 A 
ATOM     27  C   UNL     1       3.424   1.977  18.016  0.00  0.00    +0.000 A 
ATOM     28  C   UNL     1       3.863   3.261  17.684  0.00  0.00    +0.000 A 
ENDBRANCH  16  23
ENDBRANCH   3  16
TORSDOF 4
ENDMDL
MODEL 2
REMARK VINA RESULT:      -8.9      0.763      1.677
REMARK  Name = 
REMARK  7 active torsions:
REMARK  status: ('A' for Active; 'I' for Inactive)
REMARK    1  A    between atoms: C_1  and  C_2
REMARK    2  A    between atoms: C_4  and  C_5
REMARK    3  A    between atoms: C_8  and  C_9
REMARK    4  A    between atoms: N_11  and  C_12
REMARK    5  A    between atoms: N_11  and  C_13
REMARK    6  A    between atoms: C_13  and  C_14
REMARK    7  A    between atoms: C_13  and  C_20
REMARK                            x       y       z     vdW  Elec       q    Type
REMARK                         _______ _______ _______ _____ _____    ______ ____
ROOT
ATOM      1  C   UNL     1       2.368   8.118  18.083  0.00  0.00    +0.000 C 
ATOM      2  O   UNL     1       2.560   8.351  16.890  0.00  0.00    +0.000 OA
ATOM      3  N   UNL     1       2.703   6.856  18.635  0.00  0.00    +0.000 N 
ATOM      4  C   UNL     1       2.487   6.508  20.045  0.00  0.00    +0.000 C 
ENDROOT
BRANCH   1  12
ATOM      5  C   UNL     1      -0.576  13.957  21.185  0.00  0.00    +0.000 C 
ATOM      6  C   UNL     1      -0.113  12.544  20.948  0.00  0.00    +0.000 A 
ATOM      7  C   UNL     1      -0.390  11.546  22.036  0.00  0.00    +0.000 A 
ATOM      8  C   UNL     1       0.020  10.282  21.803  0.00  0.00    +0.000 A 
ATOM      9  C   UNL     1      -0.176   9.177  22.793  0.00  0.00    +0.000 C 
ATOM     10  N   UNL     1       0.658   9.990  20.590  0.00  0.00    +0.000 N 
ATOM     11  N   UNL     1       1.152   8.810  20.148  0.00  0.00    +0.000 NA
ATOM     12  C   UNL     1       1.706   9.135  18.959  0.00  0.00    +0.000 A 
ATOM     13  N   UNL     1       1.544  10.464  18.641  0.00  0.00    +0.000 NA
ATOM     14  C   UNL     1       0.897  10.987  19.642  0.00  0.00    +0.000 A 
ATOM     15  N   UNL     1       0.483  12.278  19.828  0.00  0.00    +0.000 NA
ENDBRANCH   1  12
BRANCH   3  16
ATOM     16  C   UNL     1       3.419   5.882  17.776  0.00  0.00    +0.000 C 
BRANCH  16  17
ATOM     17  C   UNL     1       4.936   6.033  18.048  0.00  0.00    +0.000 A 
ATOM     18  C   UNL     1       5.567   5.427  19.153  0.00  0.00    +0.000 A 
ATOM     19  C   UNL     1       6.941   5.555  19.360  0.00  0.00    +0.000 A 
ATOM     20  C   UNL     1       7.700   6.346  18.504  0.00  0.00    +0.000 A 
ATOM     21  C   UNL     1       7.087   7.006  17.442  0.00  0.00    +0.000 A 
ATOM     22  C   UNL     1       5.718   6.848  17.212  0.00  0.00    +0.000 A 
ENDBRANCH  16  17
BRANCH  16  23
ATOM     23  C   UNL     1       2.871   4.440  17.866  0.00  0.00    +0.000 A 
ATOM     24  C   UNL     1       1.522   4.205  18.194  0.00  0.00    +0.000 A 
ATOM     25  C   UNL     1       1.072   2.921  18.511  0.00  0.00    +0.000 A 
ATOM     26  C   UNL     1       1.944   1.839  18.442  0.00  0.00    +0.000 A 
ATOM     27  C   UNL     1       3.238   2.029  17.972  0.00  0.00    +0.000 A 
ATOM     28  C   UNL     1       3.683   3.313  17.648  0.00  0.00    +0.000 A 
ENDBRANCH  16  23
ENDBRANCH   3  16
TORSDOF 4
ENDMDL
MODEL 3
REMARK VINA RESULT:      -8.5      0.926      2.168
REMARK  Name = 
REMARK  7 active torsions:
REMARK  status: ('A' for Active; 'I' for Inactive)
REMARK    1  A    between atoms: C_1  and  C_2
REMARK    2  A    between atoms: C_4  and  C_5
REMARK    3  A    between atoms: C_8  and  C_9
REMARK    4  A    between atoms: N_11  and  C_12
REMARK    5  A    between atoms: N_11  and  C_13
REMARK    6  A    between atoms: C_13  and  C_14
REMARK    7  A    between atoms: C_13  and  C_20
REMARK                            x       y       z     vdW  Elec       q    Type
REMARK                         _______ _______ _______ _____ _____    ______ ____
ROOT
ATOM      1  C   UNL     1       2.088   8.241  18.267  0.00  0.00    +0.000 C 
ATOM      2  O   UNL     1       2.174   8.361  17.046  0.00  0.00    +0.000 OA
ATOM      3  N   UNL     1       2.442   7.024  18.901  0.00  0.00    +0.000 N 
ATOM      4  C   UNL     1       2.350   6.810  20.350  0.00  0.00    +0.000 C 
ENDROOT
BRANCH   1  12
ATOM      5  C   UNL     1      -0.138  14.482  21.181  0.00  0.00    +0.000 C 
ATOM      6  C   UNL     1       0.128  13.014  20.976  0.00  0.00    +0.000 A 
ATOM      7  C   UNL     1      -0.345  12.080  22.053  0.00  0.00    +0.000 A 
ATOM      8  C   UNL     1      -0.110  10.768  21.848  0.00  0.00    +0.000 A 
ATOM      9  C   UNL     1      -0.514   9.715  22.832  0.00  0.00    +0.000 C 
ATOM     10  N   UNL     1       0.540  10.372  20.672  0.00  0.00    +0.000 N 
ATOM     11  N   UNL     1       0.881   9.128  20.263  0.00  0.00    +0.000 NA
ATOM     12  C   UNL     1       1.535   9.354  19.103  0.00  0.00    +0.000 A 
ATOM     13  N   UNL     1       1.583  10.689  18.769  0.00  0.00    +0.000 NA
ATOM     14  C   UNL     1       0.968  11.312  19.732  0.00  0.00    +0.000 A 
ATOM     15  N   UNL     1       0.735  12.652  19.890  0.00  0.00    +0.000 NA
ENDBRANCH   1  12
BRANCH   3  16
ATOM     16  C   UNL     1       3.050   5.954  18.074  0.00  0.00    +0.000 C 
BRANCH  16  17
ATOM     17  C   UNL     1       4.589   6.108  18.155  0.00  0.00    +0.000 A 
ATOM     18  C   UNL     1       5.322   6.861  17.217  0.00  0.00    +0.000 A 
ATOM     19  C   UNL     1       6.705   7.008  17.330  0.00  0.00    +0.000 A 
ATOM     20  C   UNL     1       7.392   6.349  18.344  0.00  0.00    +0.000 A 
ATOM     21  C   UNL     1       6.696   5.547  19.246  0.00  0.00    +0.000 A 
ATOM     22  C   UNL     1       5.307   5.430  19.156  0.00  0.00    +0.000 A 
ENDBRANCH  16  17
BRANCH  16  23
ATOM     23  C   UNL     1       2.510   4.539  18.378  0.00  0.00    +0.000 A 
ATOM     24  C   UNL     1       2.936   3.431  17.620  0.00  0.00    +0.000 A 
ATOM     25  C   UNL     1       2.287   2.198  17.722  0.00  0.00    +0.000 A 
ATOM     26  C   UNL     1       1.245   2.030  18.630  0.00  0.00    +0.000 A 
ATOM     27  C   UNL     1       0.914   3.067  19.494  0.00  0.00    +0.000 A 
ATOM     28  C   UNL     1       1.570   4.296  19.396  0.00  0.00    +0.000 A 
ENDBRANCH  16  23
ENDBRANCH   3  16
TORSDOF 4
ENDMDL
MODEL 4
REMARK VINA RESULT:      -8.5      0.242      1.307
REMARK  Name = 
REMARK  7 active torsions:
REMARK  status: ('A' for Active; 'I' for Inactive)
REMARK    1  A    between atoms: C_1  and  C_2
REMARK    2  A    between atoms: C_4  and  C_5
REMARK    3  A    between atoms: C_8  and  C_9
REMARK    4  A    between atoms: N_11  and  C_12
REMARK    5  A    between atoms: N_11  and  C_13
REMARK    6  A    between atoms: C_13  and  C_14
REMARK    7  A    between atoms: C_13  and  C_20
REMARK                            x       y       z     vdW  Elec       q    Type
REMARK                         _______ _______ _______ _____ _____    ______ ____
ROOT
ATOM      1  C   UNL     1       2.393   8.099  18.041  0.00  0.00    +0.000 C 
ATOM      2  O   UNL     1       2.590   8.245  16.835  0.00  0.00    +0.000 OA
ATOM      3  N   UNL     1       2.719   6.878  18.683  0.00  0.00    +0.000 N 
ATOM      4  C   UNL     1       2.497   6.633  20.113  0.00  0.00    +0.000 C 
ENDROOT
BRANCH   1  12
ATOM      5  C   UNL     1      -1.103  12.224  22.853  0.00  0.00    +0.000 C 
ATOM      6  C   UNL     1      -0.319  11.791  21.642  0.00  0.00    +0.000 A 
ATOM      7  C   UNL     1       0.083  12.866  20.672  0.00  0.00    +0.000 A 
ATOM      8  C   UNL     1       0.796  12.464  19.600  0.00  0.00    +0.000 A 
ATOM      9  C   UNL     1       1.262  13.414  18.542  0.00  0.00    +0.000 C 
ATOM     10  N   UNL     1       1.111  11.105  19.467  0.00  0.00    +0.000 N 
ATOM     11  N   UNL     1       1.801  10.482  18.484  0.00  0.00    +0.000 NA
ATOM     12  C   UNL     1       1.736   9.180  18.841  0.00  0.00    +0.000 A 
ATOM     13  N   UNL     1       1.055   8.985  20.021  0.00  0.00    +0.000 NA
ATOM     14  C   UNL     1       0.675  10.168  20.406  0.00  0.00    +0.000 A 
ATOM     15  N   UNL     1      -0.034  10.533  21.518  0.00  0.00    +0.000 NA
ENDBRANCH   1  12
BRANCH   3  16
ATOM     16  C   UNL     1       3.430   5.840  17.897  0.00  0.00    +0.000 C 
BRANCH  16  17
ATOM     17  C   UNL     1       4.951   6.055  18.093  0.00  0.00    +0.000 A 
ATOM     18  C   UNL     1       5.727   6.813  17.194  0.00  0.00    +0.000 A 
ATOM     19  C   UNL     1       7.091   7.016  17.410  0.00  0.00    +0.000 A 
ATOM     20  C   UNL     1       7.719   6.410  18.492  0.00  0.00    +0.000 A 
ATOM     21  C   UNL     1       6.985   5.603  19.359  0.00  0.00    +0.000 A 
ATOM     22  C   UNL     1       5.612   5.431  19.165  0.00  0.00    +0.000 A 
ENDBRANCH  16  17
BRANCH  16  23
ATOM     23  C   UNL     1       2.927   4.402  18.152  0.00  0.00    +0.000 A 
ATOM     24  C   UNL     1       3.776   3.298  17.944  0.00  0.00    +0.000 A 
ATOM     25  C   UNL     1       3.273   1.995  17.940  0.00  0.00    +0.000 A 
ATOM     26  C   UNL     1       1.927   1.765  18.208  0.00  0.00    +0.000 A 
ATOM     27  C   UNL     1       1.107   2.829  18.567  0.00  0.00    +0.000 A 
ATOM     28  C   UNL     1       1.615   4.130  18.579  0.00  0.00    +0.000 A 
ENDBRANCH  16  23
ENDBRANCH   3  16
TORSDOF 4
ENDMDL
MODEL 5
REMARK VINA RESULT:      -8.5      0.817      1.247
REMARK  Name = 
REMARK  7 active torsions:
REMARK  status: ('A' for Active; 'I' for Inactive)
REMARK    1  A    between atoms: C_1  and  C_2
REMARK    2  A    between atoms: C_4  and  C_5
REMARK    3  A    between atoms: C_8  and  C_9
REMARK    4  A    between atoms: N_11  and  C_12
REMARK    5  A    between atoms: N_11  and  C_13
REMARK    6  A    between atoms: C_13  and  C_14
REMARK    7  A    between atoms: C_13  and  C_20
REMARK                            x       y       z     vdW  Elec       q    Type
REMARK                         _______ _______ _______ _____ _____    ______ ____
ROOT
ATOM      1  C   UNL     1       1.973   8.379  18.209  0.00  0.00    +0.000 C 
ATOM      2  O   UNL     1       1.981   8.479  16.984  0.00  0.00    +0.000 OA
ATOM      3  N   UNL     1       2.377   7.174  18.839  0.00  0.00    +0.000 N 
ATOM      4  C   UNL     1       2.378   6.984  20.294  0.00  0.00    +0.000 C 
ENDROOT
BRANCH   1  12
ATOM      5  C   UNL     1      -1.266  12.728  23.004  0.00  0.00    +0.000 C 
ATOM      6  C   UNL     1      -0.387  12.237  21.884  0.00  0.00    +0.000 A 
ATOM      7  C   UNL     1       0.465  13.261  21.189  0.00  0.00    +0.000 A 
ATOM      8  C   UNL     1       1.256  12.802  20.197  0.00  0.00    +0.000 A 
ATOM      9  C   UNL     1       2.155  13.700  19.405  0.00  0.00    +0.000 C 
ATOM     10  N   UNL     1       1.235  11.436  19.890  0.00  0.00    +0.000 N 
ATOM     11  N   UNL     1       1.929  10.762  18.944  0.00  0.00    +0.000 NA
ATOM     12  C   UNL     1       1.463   9.500  19.061  0.00  0.00    +0.000 A 
ATOM     13  N   UNL     1       0.529   9.367  20.063  0.00  0.00    +0.000 NA
ATOM     14  C   UNL     1       0.392  10.556  20.573  0.00  0.00    +0.000 A 
ATOM     15  N   UNL     1      -0.413  10.973  21.598  0.00  0.00    +0.000 NA
ENDBRANCH   1  12
BRANCH   3  16
ATOM     16  C   UNL     1       2.943   6.097  17.992  0.00  0.00    +0.000 C 
BRANCH  16  17
ATOM     17  C   UNL     1       4.486   6.160  18.109  0.00  0.00    +0.000 A 
ATOM     18  C   UNL     1       5.279   6.908  17.216  0.00  0.00    +0.000 A 
ATOM     19  C   UNL     1       6.666   6.972  17.362  0.00  0.00    +0.000 A 
ATOM     20  C   UNL     1       7.293   6.237  18.361  0.00  0.00    +0.000 A 
ATOM     21  C   UNL     1       6.534   5.440  19.217  0.00  0.00    +0.000 A 
ATOM     22  C   UNL     1       5.144   5.405  19.095  0.00  0.00    +0.000 A 
ENDBRANCH  16  17
BRANCH  16  23
ATOM     23  C   UNL     1       2.318   4.706  18.241  0.00  0.00    +0.000 A 
ATOM     24  C   UNL     1       1.429   4.502  19.314  0.00  0.00    +0.000 A 
ATOM     25  C   UNL     1       1.045   3.213  19.694  0.00  0.00    +0.000 A 
ATOM     26  C   UNL     1       1.488   2.110  18.970  0.00  0.00    +0.000 A 
ATOM     27  C   UNL     1       2.240   2.303  17.817  0.00  0.00    +0.000 A 
ATOM     28  C   UNL     1       2.616   3.593  17.435  0.00  0.00    +0.000 A 
ENDBRANCH  16  23
ENDBRANCH   3  16
TORSDOF 4
ENDMDL
MODEL 6
REMARK VINA RESULT:      -8.4      0.416      1.001
REMARK  Name = 
REMARK  7 active torsions:
REMARK  status: ('A' for Active; 'I' for Inactive)
REMARK    1  A    between atoms: C_1  and  C_2
REMARK    2  A    between atoms: C_4  and  C_5
REMARK    3  A    between atoms: C_8  and  C_9
REMARK    4  A    between atoms: N_11  and  C_12
REMARK    5  A    between atoms: N_11  and  C_13
REMARK    6  A    between atoms: C_13  and  C_14
REMARK    7  A    between atoms: C_13  and  C_20
REMARK                            x       y       z     vdW  Elec       q    Type
REMARK                         _______ _______ _______ _____ _____    ______ ____
ROOT
ATOM      1  C   UNL     1       2.548   7.886  18.078  0.00  0.00    +0.000 C 
ATOM      2  O   UNL     1       2.835   8.175  16.917  0.00  0.00    +0.000 OA
ATOM      3  N   UNL     1       2.879   6.614  18.609  0.00  0.00    +0.000 N 
ATOM      4  C   UNL     1       2.554   6.200  19.979  0.00  0.00    +0.000 C 
ENDROOT
BRANCH   1  12
ATOM      5  C   UNL     1      -1.155  11.413  23.200  0.00  0.00    +0.000 C 
ATOM      6  C   UNL     1      -0.444  11.097  21.911  0.00  0.00    +0.000 A 
ATOM      7  C   UNL     1      -0.397  12.186  20.876  0.00  0.00    +0.000 A 
ATOM      8  C   UNL     1       0.255  11.891  19.733  0.00  0.00    +0.000 A 
ATOM      9  C   UNL     1       0.382  12.867  18.605  0.00  0.00    +0.000 C 
ATOM     10  N   UNL     1       0.833  10.623  19.590  0.00  0.00    +0.000 N 
ATOM     11  N   UNL     1       1.520  10.111  18.542  0.00  0.00    +0.000 NA
ATOM     12  C   UNL     1       1.774   8.843  18.931  0.00  0.00    +0.000 A 
ATOM     13  N   UNL     1       1.294   8.565  20.191  0.00  0.00    +0.000 NA
ATOM     14  C   UNL     1       0.719   9.660  20.595  0.00  0.00    +0.000 A 
ATOM     15  N   UNL     1       0.084   9.921  21.779  0.00  0.00    +0.000 NA
ENDBRANCH   1  12
BRANCH   3  16
ATOM     16  C   UNL     1       3.703   5.701  17.779  0.00  0.00    +0.000 C 
BRANCH  16  17
ATOM     17  C   UNL     1       5.193   5.999  18.082  0.00  0.00    +0.000 A 
ATOM     18  C   UNL     1       5.993   6.781  17.227  0.00  0.00    +0.000 A 
ATOM     19  C   UNL     1       7.326   7.058  17.537  0.00  0.00    +0.000 A 
ATOM     20  C   UNL     1       7.902   6.503  18.674  0.00  0.00    +0.000 A 
ATOM     21  C   UNL     1       7.147   5.674  19.502  0.00  0.00    +0.000 A 
ATOM     22  C   UNL     1       5.804   5.427  19.211  0.00  0.00    +0.000 A 
ENDBRANCH  16  17
BRANCH  16  23
ATOM     23  C   UNL     1       3.292   4.216  17.880  0.00  0.00    +0.000 A 
ATOM     24  C   UNL     1       1.975   3.814  17.582  0.00  0.00    +0.000 A 
ATOM     25  C   UNL     1       1.528   2.528  17.894  0.00  0.00    +0.000 A 
ATOM     26  C   UNL     1       2.404   1.599  18.447  0.00  0.00    +0.000 A 
ATOM     27  C   UNL     1       3.745   1.929  18.605  0.00  0.00    +0.000 A 
ATOM     28  C   UNL     1       4.191   3.213  18.285  0.00  0.00    +0.000 A 
ENDBRANCH  16  23
ENDBRANCH   3  16
TORSDOF 4
ENDMDL
MODEL 7
REMARK VINA RESULT:      -8.4      1.115      2.012
REMARK  Name = 
REMARK  7 active torsions:
REMARK  status: ('A' for Active; 'I' for Inactive)
REMARK    1  A    between atoms: C_1  and  C_2
REMARK    2  A    between atoms: C_4  and  C_5
REMARK    3  A    between atoms: C_8  and  C_9
REMARK    4  A    between atoms: N_11  and  C_12
REMARK    5  A    between atoms: N_11  and  C_13
REMARK    6  A    between atoms: C_13  and  C_14
REMARK    7  A    between atoms: C_13  and  C_20
REMARK                            x       y       z     vdW  Elec       q    Type
REMARK                         _______ _______ _______ _____ _____    ______ ____
ROOT
ATOM      1  C   UNL     1       2.754   7.697  17.841  0.00  0.00    +0.000 C 
ATOM      2  O   UNL     1       3.107   7.940  16.688  0.00  0.00    +0.000 OA
ATOM      3  N   UNL     1       3.110   6.473  18.462  0.00  0.00    +0.000 N 
ATOM      4  C   UNL     1       2.712   6.114  19.829  0.00  0.00    +0.000 C 
ENDROOT
BRANCH   1  12
ATOM      5  C   UNL     1      -1.787  12.863  20.094  0.00  0.00    +0.000 C 
ATOM      6  C   UNL     1      -0.836  11.695  20.094  0.00  0.00    +0.000 A 
ATOM      7  C   UNL     1      -0.524  11.072  21.425  0.00  0.00    +0.000 A 
ATOM      8  C   UNL     1       0.318  10.019  21.406  0.00  0.00    +0.000 A 
ATOM      9  C   UNL     1       0.731   9.296  22.650  0.00  0.00    +0.000 C 
ATOM     10  N   UNL     1       0.831   9.584  20.177  0.00  0.00    +0.000 N 
ATOM     11  N   UNL     1       1.686   8.566  19.921  0.00  0.00    +0.000 NA
ATOM     12  C   UNL     1       1.879   8.655  18.587  0.00  0.00    +0.000 A 
ATOM     13  N   UNL     1       1.152   9.672  18.010  0.00  0.00    +0.000 NA
ATOM     14  C   UNL     1       0.507  10.239  18.987  0.00  0.00    +0.000 A 
ATOM     15  N   UNL     1      -0.358  11.299  18.957  0.00  0.00    +0.000 NA
ENDBRANCH   1  12
BRANCH   3  16
ATOM     16  C   UNL     1       4.033   5.563  17.741  0.00  0.00    +0.000 C 
BRANCH  16  17
ATOM     17  C   UNL     1       5.482   6.018  18.042  0.00  0.00    +0.000 A 
ATOM     18  C   UNL     1       6.172   6.928  17.218  0.00  0.00    +0.000 A 
ATOM     19  C   UNL     1       7.468   7.345  17.527  0.00  0.00    +0.000 A 
ATOM     20  C   UNL     1       8.123   6.809  18.631  0.00  0.00    +0.000 A 
ATOM     21  C   UNL     1       7.483   5.860  19.425  0.00  0.00    +0.000 A 
ATOM     22  C   UNL     1       6.173   5.471  19.137  0.00  0.00    +0.000 A 
ENDBRANCH  16  17
BRANCH  16  23
ATOM     23  C   UNL     1       3.749   4.063  17.976  0.00  0.00    +0.000 A 
ATOM     24  C   UNL     1       2.709   3.413  17.284  0.00  0.00    +0.000 A 
ATOM     25  C   UNL     1       2.289   2.133  17.655  0.00  0.00    +0.000 A 
ATOM     26  C   UNL     1       2.941   1.453  18.679  0.00  0.00    +0.000 A 
ATOM     27  C   UNL     1       4.066   2.016  19.269  0.00  0.00    +0.000 A 
ATOM     28  C   UNL     1       4.489   3.292  18.891  0.00  0.00    +0.000 A 
ENDBRANCH  16  23
ENDBRANCH   3  16
TORSDOF 4
ENDMDL
MODEL 8
REMARK VINA RESULT:      -8.3      1.190      2.055
REMARK  Name = 
REMARK  7 active torsions:
REMARK  status: ('A' for Active; 'I' for Inactive)
REMARK    1  A    between atoms: C_1  and  C_2
REMARK    2  A    between atoms: C_4  and  C_5
REMARK    3  A    between atoms: C_8  and  C_9
REMARK    4  A    between atoms: N_11  and  C_12
REMARK    5  A    between atoms: N_11  and  C_13
REMARK    6  A    between atoms: C_13  and  C_14
REMARK    7  A    between atoms: C_13  and  C_20
REMARK                            x       y       z     vdW  Elec       q    Type
REMARK                         _______ _______ _______ _____ _____    ______ ____
ROOT
ATOM      1  C   UNL     1       1.836   8.503  18.292  0.00  0.00    +0.000 C 
ATOM      2  O   UNL     1       1.790   8.497  17.062  0.00  0.00    +0.000 OA
ATOM      3  N   UNL     1       2.196   7.333  19.007  0.00  0.00    +0.000 N 
ATOM      4  C   UNL     1       2.257   7.268  20.472  0.00  0.00    +0.000 C 
ENDROOT
BRANCH   1  12
ATOM      5  C   UNL     1       0.578  15.135  20.904  0.00  0.00    +0.000 C 
ATOM      6  C   UNL     1       0.590  13.637  20.751  0.00  0.00    +0.000 A 
ATOM      7  C   UNL     1      -0.111  12.839  21.813  0.00  0.00    +0.000 A 
ATOM      8  C   UNL     1      -0.102  11.499  21.654  0.00  0.00    +0.000 A 
ATOM      9  C   UNL     1      -0.750  10.569  22.631  0.00  0.00    +0.000 C 
ATOM     10  N   UNL     1       0.542  10.954  20.535  0.00  0.00    +0.000 N 
ATOM     11  N   UNL     1       0.681   9.656  20.178  0.00  0.00    +0.000 NA
ATOM     12  C   UNL     1       1.438   9.724  19.062  0.00  0.00    +0.000 A 
ATOM     13  N   UNL     1       1.745  11.017  18.703  0.00  0.00    +0.000 NA
ATOM     14  C   UNL     1       1.191  11.771  19.607  0.00  0.00    +0.000 A 
ATOM     15  N   UNL     1       1.192  13.136  19.718  0.00  0.00    +0.000 NA
ENDBRANCH   1  12
BRANCH   3  16
ATOM     16  C   UNL     1       2.652   6.152  18.234  0.00  0.00    +0.000 C 
BRANCH  16  17
ATOM     17  C   UNL     1       4.201   6.154  18.234  0.00  0.00    +0.000 A 
ATOM     18  C   UNL     1       4.955   5.441  19.187  0.00  0.00    +0.000 A 
ATOM     19  C   UNL     1       6.350   5.436  19.147  0.00  0.00    +0.000 A 
ATOM     20  C   UNL     1       7.020   6.197  18.195  0.00  0.00    +0.000 A 
ATOM     21  C   UNL     1       6.295   6.960  17.282  0.00  0.00    +0.000 A 
ATOM     22  C   UNL     1       4.899   6.936  17.298  0.00  0.00    +0.000 A 
ENDBRANCH  16  17
BRANCH  16  23
ATOM     23  C   UNL     1       1.993   4.824  18.666  0.00  0.00    +0.000 A 
ATOM     24  C   UNL     1       1.466   4.674  19.963  0.00  0.00    +0.000 A 
ATOM     25  C   UNL     1       1.086   3.418  20.444  0.00  0.00    +0.000 A 
ATOM     26  C   UNL     1       1.161   2.301  19.617  0.00  0.00    +0.000 A 
ATOM     27  C   UNL     1       1.532   2.456  18.287  0.00  0.00    +0.000 A 
ATOM     28  C   UNL     1       1.904   3.714  17.806  0.00  0.00    +0.000 A 
ENDBRANCH  16  23
ENDBRANCH   3  16
TORSDOF 4
ENDMDL
MODEL 9
REMARK VINA RESULT:      -8.1      1.662      4.140
REMARK  Name = 
REMARK  7 active torsions:
REMARK  status: ('A' for Active; 'I' for Inactive)
REMARK    1  A    between atoms: C_1  and  C_2
REMARK    2  A    between atoms: C_4  and  C_5
REMARK    3  A    between atoms: C_8  and  C_9
REMARK    4  A    between atoms: N_11  and  C_12
REMARK    5  A    between atoms: N_11  and  C_13
REMARK    6  A    between atoms: C_13  and  C_14
REMARK    7  A    between atoms: C_13  and  C_20
REMARK                            x       y       z     vdW  Elec       q    Type
REMARK                         _______ _______ _______ _____ _____    ______ ____
ROOT
ATOM      1  C   UNL     1       2.330   6.855  20.096  0.00  0.00    +0.000 C 
ATOM      2  O   UNL     1       2.212   6.090  21.052  0.00  0.00    +0.000 OA
ATOM      3  N   UNL     1       3.212   6.547  19.029  0.00  0.00    +0.000 N 
ATOM      4  C   UNL     1       3.411   7.421  17.867  0.00  0.00    +0.000 C 
ENDROOT
BRANCH   1  12
ATOM      5  C   UNL     1      -0.770  13.214  18.564  0.00  0.00    +0.000 C 
ATOM      6  C   UNL     1      -0.325  11.982  19.307  0.00  0.00    +0.000 A 
ATOM      7  C   UNL     1      -0.753  11.862  20.742  0.00  0.00    +0.000 A 
ATOM      8  C   UNL     1      -0.357  10.746  21.389  0.00  0.00    +0.000 A 
ATOM      9  C   UNL     1      -0.697  10.485  22.823  0.00  0.00    +0.000 C 
ATOM     10  N   UNL     1       0.405   9.796  20.697  0.00  0.00    +0.000 N 
ATOM     11  N   UNL     1       0.910   8.621  21.140  0.00  0.00    +0.000 NA
ATOM     12  C   UNL     1       1.604   8.164  20.075  0.00  0.00    +0.000 A 
ATOM     13  N   UNL     1       1.519   9.001  18.985  0.00  0.00    +0.000 NA
ATOM     14  C   UNL     1       0.779  10.000  19.368  0.00  0.00    +0.000 A 
ATOM     15  N   UNL     1       0.385  11.107  18.666  0.00  0.00    +0.000 NA
ENDBRANCH   1  12
BRANCH   3  16
ATOM     16  C   UNL     1       3.873   5.220  19.028  0.00  0.00    +0.000 C 
BRANCH  16  17
ATOM     17  C   UNL     1       2.768   4.138  18.936  0.00  0.00    +0.000 A 
ATOM     18  C   UNL     1       1.634   4.288  18.114  0.00  0.00    +0.000 A 
ATOM     19  C   UNL     1       0.667   3.286  18.027  0.00  0.00    +0.000 A 
ATOM     20  C   UNL     1       0.781   2.143  18.810  0.00  0.00    +0.000 A 
ATOM     21  C   UNL     1       1.862   2.001  19.678  0.00  0.00    +0.000 A 
ATOM     22  C   UNL     1       2.849   2.987  19.738  0.00  0.00    +0.000 A 
ENDBRANCH  16  17
BRANCH  16  23
ATOM     23  C   UNL     1       5.016   5.087  17.998  0.00  0.00    +0.000 A 
ATOM     24  C   UNL     1       4.762   4.591  16.704  0.00  0.00    +0.000 A 
ATOM     25  C   UNL     1       5.809   4.244  15.848  0.00  0.00    +0.000 A 
ATOM     26  C   UNL     1       7.129   4.447  16.241  0.00  0.00    +0.000 A 
ATOM     27  C   UNL     1       7.396   5.077  17.451  0.00  0.00    +0.000 A 
ATOM     28  C   UNL     1       6.346   5.431  18.302  0.00  0.00    +0.000 A 
ENDBRANCH  16  23
ENDBRANCH   3  16
TORSDOF 4
ENDMDL
