MODEL 1
REMARK VINA RESULT:      -8.1      0.000      0.000
REMARK  Name = 
REMARK  7 active torsions:
REMARK  status: ('A' for Active; 'I' for Inactive)
REMARK    1  A    between atoms: C_1  and  C_2
REMARK    2  A    between atoms: C_4  and  C_5
REMARK    3  A    between atoms: N_7  and  C_8
REMARK    4  A    between atoms: C_10  and  C_11
REMARK    5  A    between atoms: C_10  and  C_12
REMARK    6  A    between atoms: N_18  and  C_19
REMARK    7  A    between atoms: N_26  and  C_27
REMARK                            x       y       z     vdW  Elec       q    Type
REMARK                         _______ _______ _______ _____ _____    ______ ____
ROOT
ATOM      1  C   UNL     1       3.742   5.343  18.385  0.00  0.00    +0.000 C 
ATOM      2  C   UNL     1       3.031   4.167  19.097  0.00  0.00    +0.000 C 
ATOM      3  C   UNL     1       2.019   4.452  20.259  0.00  0.00    +0.000 C 
ATOM      4  C   UNL     1       0.701   3.711  19.933  0.00  0.00    +0.000 C 
ATOM      5  C   UNL     1       2.577   3.844  21.568  0.00  0.00    +0.000 C 
ATOM      6  C   UNL     1       1.678   5.934  20.566  0.00  0.00    +0.000 C 
ATOM      7  C   UNL     1       2.148   6.897  19.548  0.00  0.00    +0.000 A 
ATOM      8  C   UNL     1       3.012   6.626  18.511  0.00  0.00    +0.000 A 
ATOM      9  C   UNL     1       3.087   7.838  17.806  0.00  0.00    +0.000 A 
ATOM     10  N   UNL     1       2.289   8.781  18.319  0.00  0.00    +0.000 NA
ATOM     11  N   UNL     1       1.807   8.238  19.470  0.00  0.00    +0.000 N 
ENDROOT
BRANCH  11  12
ATOM     12  C   UNL     1       1.039   9.018  20.384  0.00  0.00    +0.000 A 
ATOM     13  C   UNL     1       0.155   9.988  19.893  0.00  0.00    +0.000 A 
ATOM     14  C   UNL     1      -0.710  10.658  20.770  0.00  0.00    +0.000 A 
ATOM     15  C   UNL     1      -0.672  10.388  22.137  0.00  0.00    +0.000 A 
ATOM     16  C   UNL     1       0.262   9.488  22.623  0.00  0.00    +0.000 A 
ATOM     17  F   UNL     1       0.327   9.247  23.942  0.00  0.00    +0.000 F 
ATOM     18  C   UNL     1       1.122   8.814  21.767  0.00  0.00    +0.000 A 
ENDBRANCH  11  12
BRANCH   1  21
ATOM     19  C   UNL     1       5.259   5.221  16.472  0.00  0.00    +0.000 C 
ATOM     20  O   UNL     1       6.060   5.909  17.102  0.00  0.00    +0.000 OA
ATOM     21  N   UNL     1       3.997   4.993  16.990  0.00  0.00    +0.000 N 
ATOM     22  H   UNL     1       3.414   4.291  16.561  0.00  0.00    +0.000 HD
BRANCH  19  26
ATOM     23  C   UNL     1       5.346   2.959  11.902  0.00  0.00    +0.000 C 
ATOM     24  C   UNL     1       5.656   3.645  13.180  0.00  0.00    +0.000 A 
ATOM     25  C   UNL     1       4.845   3.834  14.323  0.00  0.00    +0.000 A 
ATOM     26  C   UNL     1       5.585   4.624  15.192  0.00  0.00    +0.000 A 
ATOM     27  N   UNL     1       6.799   4.785  14.553  0.00  0.00    +0.000 N 
ATOM     28  C   UNL     1       7.985   5.496  14.982  0.00  0.00    +0.000 C 
ATOM     29  N   UNL     1       6.851   4.212  13.335  0.00  0.00    +0.000 NA
ENDBRANCH  19  26
ENDBRANCH   1  21
TORSDOF 3
ENDMDL
MODEL 2
REMARK VINA RESULT:      -8.0      0.968      1.327
REMARK  Name = 
REMARK  7 active torsions:
REMARK  status: ('A' for Active; 'I' for Inactive)
REMARK    1  A    between atoms: C_1  and  C_2
REMARK    2  A    between atoms: C_4  and  C_5
REMARK    3  A    between atoms: N_7  and  C_8
REMARK    4  A    between atoms: C_10  and  C_11
REMARK    5  A    between atoms: C_10  and  C_12
REMARK    6  A    between atoms: N_18  and  C_19
REMARK    7  A    between atoms: N_26  and  C_27
REMARK                            x       y       z     vdW  Elec       q    Type
REMARK                         _______ _______ _______ _____ _____    ______ ____
ROOT
ATOM      1  C   UNL     1       3.984   5.387  18.055  0.00  0.00    +0.000 C 
ATOM      2  C   UNL     1       3.272   4.129  18.609  0.00  0.00    +0.000 C 
ATOM      3  C   UNL     1       2.214   4.270  19.756  0.00  0.00    +0.000 C 
ATOM      4  C   UNL     1       0.923   3.547  19.302  0.00  0.00    +0.000 C 
ATOM      5  C   UNL     1       2.737   3.534  21.012  0.00  0.00    +0.000 C 
ATOM      6  C   UNL     1       1.832   5.705  20.207  0.00  0.00    +0.000 C 
ATOM      7  C   UNL     1       2.318   6.779  19.316  0.00  0.00    +0.000 A 
ATOM      8  C   UNL     1       3.223   6.636  18.290  0.00  0.00    +0.000 A 
ATOM      9  C   UNL     1       3.299   7.918  17.722  0.00  0.00    +0.000 A 
ATOM     10  N   UNL     1       2.464   8.787  18.303  0.00  0.00    +0.000 NA
ATOM     11  N   UNL     1       1.952   8.115  19.370  0.00  0.00    +0.000 N 
ENDROOT
BRANCH  11  12
ATOM     12  C   UNL     1       1.136   8.779  20.333  0.00  0.00    +0.000 A 
ATOM     13  C   UNL     1       1.324   8.517  21.696  0.00  0.00    +0.000 A 
ATOM     14  C   UNL     1       0.631   9.267  22.658  0.00  0.00    +0.000 A 
ATOM     15  C   UNL     1      -0.272  10.253  22.262  0.00  0.00    +0.000 A 
ATOM     16  C   UNL     1      -0.512  10.448  20.913  0.00  0.00    +0.000 A 
ATOM     17  F   UNL     1      -1.404  11.372  20.524  0.00  0.00    +0.000 F 
ATOM     18  C   UNL     1       0.169   9.716  19.949  0.00  0.00    +0.000 A 
ENDBRANCH  11  12
BRANCH   1  21
ATOM     19  C   UNL     1       5.529   4.667  16.302  0.00  0.00    +0.000 C 
ATOM     20  O   UNL     1       6.411   4.587  17.156  0.00  0.00    +0.000 OA
ATOM     21  N   UNL     1       4.296   5.194  16.641  0.00  0.00    +0.000 N 
ATOM     22  H   UNL     1       3.529   5.094  15.993  0.00  0.00    +0.000 HD
BRANCH  19  26
ATOM     23  C   UNL     1       5.194   2.786  11.574  0.00  0.00    +0.000 C 
ATOM     24  C   UNL     1       5.607   3.415  12.852  0.00  0.00    +0.000 A 
ATOM     25  C   UNL     1       4.971   3.395  14.115  0.00  0.00    +0.000 A 
ATOM     26  C   UNL     1       5.725   4.222  14.937  0.00  0.00    +0.000 A 
ATOM     27  N   UNL     1       6.787   4.612  14.144  0.00  0.00    +0.000 N 
ATOM     28  C   UNL     1       7.916   5.460  14.459  0.00  0.00    +0.000 C 
ATOM     29  N   UNL     1       6.721   4.144  12.882  0.00  0.00    +0.000 NA
ENDBRANCH  19  26
ENDBRANCH   1  21
TORSDOF 3
ENDMDL
MODEL 3
REMARK VINA RESULT:      -7.9      4.455      7.385
REMARK  Name = 
REMARK  7 active torsions:
REMARK  status: ('A' for Active; 'I' for Inactive)
REMARK    1  A    between atoms: C_1  and  C_2
REMARK    2  A    between atoms: C_4  and  C_5
REMARK    3  A    between atoms: N_7  and  C_8
REMARK    4  A    between atoms: C_10  and  C_11
REMARK    5  A    between atoms: C_10  and  C_12
REMARK    6  A    between atoms: N_18  and  C_19
REMARK    7  A    between atoms: N_26  and  C_27
REMARK                            x       y       z     vdW  Elec       q    Type
REMARK                         _______ _______ _______ _____ _____    ______ ____
ROOT
ATOM      1  C   UNL     1      -0.380  10.782  18.568  0.00  0.00    +0.000 C 
ATOM      2  C   UNL     1      -0.104  11.417  19.953  0.00  0.00    +0.000 C 
ATOM      3  C   UNL     1      -1.179  12.346  20.614  0.00  0.00    +0.000 C 
ATOM      4  C   UNL     1      -1.443  11.821  22.045  0.00  0.00    +0.000 C 
ATOM      5  C   UNL     1      -0.593  13.771  20.748  0.00  0.00    +0.000 C 
ATOM      6  C   UNL     1      -2.545  12.491  19.893  0.00  0.00    +0.000 C 
ATOM      7  C   UNL     1      -2.768  11.524  18.798  0.00  0.00    +0.000 A 
ATOM      8  C   UNL     1      -1.823  10.689  18.247  0.00  0.00    +0.000 A 
ATOM      9  C   UNL     1      -2.542   9.938  17.303  0.00  0.00    +0.000 A 
ATOM     10  N   UNL     1      -3.847  10.232  17.299  0.00  0.00    +0.000 NA
ATOM     11  N   UNL     1      -3.963  11.301  18.133  0.00  0.00    +0.000 N 
ENDROOT
BRANCH  11  12
ATOM     12  C   UNL     1      -5.197  12.004  18.258  0.00  0.00    +0.000 A 
ATOM     13  C   UNL     1      -5.764  12.613  17.130  0.00  0.00    +0.000 A 
ATOM     14  C   UNL     1      -7.045  13.181  17.207  0.00  0.00    +0.000 A 
ATOM     15  C   UNL     1      -7.745  13.172  18.412  0.00  0.00    +0.000 A 
ATOM     16  C   UNL     1      -7.144  12.641  19.541  0.00  0.00    +0.000 A 
ATOM     17  F   UNL     1      -7.799  12.658  20.712  0.00  0.00    +0.000 F 
ATOM     18  C   UNL     1      -5.879  12.072  19.479  0.00  0.00    +0.000 A 
ENDBRANCH  11  12
BRANCH   1  21
ATOM     19  C   UNL     1       1.625   9.451  18.134  0.00  0.00    +0.000 C 
ATOM     20  O   UNL     1       2.165  10.464  17.693  0.00  0.00    +0.000 OA
ATOM     21  N   UNL     1       0.286   9.485  18.479  0.00  0.00    +0.000 N 
ATOM     22  H   UNL     1      -0.102   8.713  19.001  0.00  0.00    +0.000 HD
BRANCH  19  26
ATOM     23  C   UNL     1       4.681   5.375  17.901  0.00  0.00    +0.000 C 
ATOM     24  C   UNL     1       3.676   6.408  18.250  0.00  0.00    +0.000 A 
ATOM     25  C   UNL     1       3.194   7.494  17.483  0.00  0.00    +0.000 A 
ATOM     26  C   UNL     1       2.342   8.205  18.318  0.00  0.00    +0.000 A 
ATOM     27  N   UNL     1       2.312   7.463  19.483  0.00  0.00    +0.000 N 
ATOM     28  C   UNL     1       1.579   7.693  20.709  0.00  0.00    +0.000 C 
ATOM     29  N   UNL     1       3.122   6.386  19.461  0.00  0.00    +0.000 NA
ENDBRANCH  19  26
ENDBRANCH   1  21
TORSDOF 3
ENDMDL
MODEL 4
REMARK VINA RESULT:      -7.9      4.644      7.459
REMARK  Name = 
REMARK  7 active torsions:
REMARK  status: ('A' for Active; 'I' for Inactive)
REMARK    1  A    between atoms: C_1  and  C_2
REMARK    2  A    between atoms: C_4  and  C_5
REMARK    3  A    between atoms: N_7  and  C_8
REMARK    4  A    between atoms: C_10  and  C_11
REMARK    5  A    between atoms: C_10  and  C_12
REMARK    6  A    between atoms: N_18  and  C_19
REMARK    7  A    between atoms: N_26  and  C_27
REMARK                            x       y       z     vdW  Elec       q    Type
REMARK                         _______ _______ _______ _____ _____    ______ ____
ROOT
ATOM      1  C   UNL     1      -0.355  10.615  18.277  0.00  0.00    +0.000 C 
ATOM      2  C   UNL     1      -0.103  11.293  19.646  0.00  0.00    +0.000 C 
ATOM      3  C   UNL     1      -1.212  12.195  20.288  0.00  0.00    +0.000 C 
ATOM      4  C   UNL     1      -1.453  11.694  21.732  0.00  0.00    +0.000 C 
ATOM      5  C   UNL     1      -0.682  13.645  20.386  0.00  0.00    +0.000 C 
ATOM      6  C   UNL     1      -2.583  12.269  19.566  0.00  0.00    +0.000 C 
ATOM      7  C   UNL     1      -2.770  11.268  18.495  0.00  0.00    +0.000 A 
ATOM      8  C   UNL     1      -1.793  10.458  17.962  0.00  0.00    +0.000 A 
ATOM      9  C   UNL     1      -2.484   9.657  17.037  0.00  0.00    +0.000 A 
ATOM     10  N   UNL     1      -3.800   9.899  17.030  0.00  0.00    +0.000 NA
ATOM     11  N   UNL     1      -3.956  10.983  17.839  0.00  0.00    +0.000 N 
ENDROOT
BRANCH  11  12
ATOM     12  C   UNL     1      -5.217  11.639  17.950  0.00  0.00    +0.000 A 
ATOM     13  C   UNL     1      -6.037  11.379  19.056  0.00  0.00    +0.000 A 
ATOM     14  C   UNL     1      -7.210  12.123  19.253  0.00  0.00    +0.000 A 
ATOM     15  C   UNL     1      -7.584  13.101  18.332  0.00  0.00    +0.000 A 
ATOM     16  C   UNL     1      -6.811  13.294  17.199  0.00  0.00    +0.000 A 
ATOM     17  F   UNL     1      -7.180  14.210  16.291  0.00  0.00    +0.000 F 
ATOM     18  C   UNL     1      -5.645  12.567  16.993  0.00  0.00    +0.000 A 
ENDBRANCH  11  12
BRANCH   1  21
ATOM     19  C   UNL     1       1.731   9.364  18.026  0.00  0.00    +0.000 C 
ATOM     20  O   UNL     1       2.281  10.410  17.687  0.00  0.00    +0.000 OA
ATOM     21  N   UNL     1       0.361   9.343  18.218  0.00  0.00    +0.000 N 
ATOM     22  H   UNL     1      -0.056   8.540  18.664  0.00  0.00    +0.000 HD
BRANCH  19  26
ATOM     23  C   UNL     1       4.881   5.354  17.940  0.00  0.00    +0.000 C 
ATOM     24  C   UNL     1       3.839   6.366  18.242  0.00  0.00    +0.000 A 
ATOM     25  C   UNL     1       3.369   7.441  17.451  0.00  0.00    +0.000 A 
ATOM     26  C   UNL     1       2.466   8.134  18.245  0.00  0.00    +0.000 A 
ATOM     27  N   UNL     1       2.400   7.394  19.409  0.00  0.00    +0.000 N 
ATOM     28  C   UNL     1       1.607   7.609  20.601  0.00  0.00    +0.000 C 
ATOM     29  N   UNL     1       3.232   6.334  19.426  0.00  0.00    +0.000 NA
ENDBRANCH  19  26
ENDBRANCH   1  21
TORSDOF 3
ENDMDL
MODEL 5
REMARK VINA RESULT:      -7.9      4.151      8.624
REMARK  Name = 
REMARK  7 active torsions:
REMARK  status: ('A' for Active; 'I' for Inactive)
REMARK    1  A    between atoms: C_1  and  C_2
REMARK    2  A    between atoms: C_4  and  C_5
REMARK    3  A    between atoms: N_7  and  C_8
REMARK    4  A    between atoms: C_10  and  C_11
REMARK    5  A    between atoms: C_10  and  C_12
REMARK    6  A    between atoms: N_18  and  C_19
REMARK    7  A    between atoms: N_26  and  C_27
REMARK                            x       y       z     vdW  Elec       q    Type
REMARK                         _______ _______ _______ _____ _____    ______ ____
ROOT
ATOM      1  C   UNL     1       0.579  10.747  19.632  0.00  0.00    +0.000 C 
ATOM      2  C   UNL     1       0.451  10.534  21.160  0.00  0.00    +0.000 C 
ATOM      3  C   UNL     1       0.703   9.115  21.776  0.00  0.00    +0.000 C 
ATOM      4  C   UNL     1       1.738   9.269  22.915  0.00  0.00    +0.000 C 
ATOM      5  C   UNL     1      -0.612   8.607  22.414  0.00  0.00    +0.000 C 
ATOM      6  C   UNL     1       1.196   7.996  20.821  0.00  0.00    +0.000 C 
ATOM      7  C   UNL     1       1.626   8.469  19.489  0.00  0.00    +0.000 A 
ATOM      8  C   UNL     1       1.429   9.729  18.972  0.00  0.00    +0.000 A 
ATOM      9  C   UNL     1       2.068   9.688  17.722  0.00  0.00    +0.000 A 
ATOM     10  N   UNL     1       2.674   8.517  17.494  0.00  0.00    +0.000 NA
ATOM     11  N   UNL     1       2.291   7.722  18.530  0.00  0.00    +0.000 N 
ENDROOT
BRANCH  11  12
ATOM     12  C   UNL     1       2.612   6.332  18.546  0.00  0.00    +0.000 A 
ATOM     13  C   UNL     1       1.738   5.414  17.948  0.00  0.00    +0.000 A 
ATOM     14  C   UNL     1       2.109   4.066  17.828  0.00  0.00    +0.000 A 
ATOM     15  C   UNL     1       3.332   3.628  18.333  0.00  0.00    +0.000 A 
ATOM     16  C   UNL     1       4.153   4.525  18.996  0.00  0.00    +0.000 A 
ATOM     17  F   UNL     1       5.317   4.104  19.513  0.00  0.00    +0.000 F 
ATOM     18  C   UNL     1       3.801   5.863  19.118  0.00  0.00    +0.000 A 
ENDBRANCH  11  12
BRANCH   1  21
ATOM     19  C   UNL     1       0.186  12.977  18.711  0.00  0.00    +0.000 C 
ATOM     20  O   UNL     1      -0.834  12.544  18.178  0.00  0.00    +0.000 OA
ATOM     21  N   UNL     1       1.041  12.106  19.361  0.00  0.00    +0.000 N 
ATOM     22  H   UNL     1       1.774  12.485  19.942  0.00  0.00    +0.000 HD
BRANCH  19  26
ATOM     23  C   UNL     1       0.451  18.055  19.107  0.00  0.00    +0.000 C 
ATOM     24  C   UNL     1       0.687  16.611  18.863  0.00  0.00    +0.000 A 
ATOM     25  C   UNL     1      -0.224  15.529  18.895  0.00  0.00    +0.000 A 
ATOM     26  C   UNL     1       0.535  14.384  18.693  0.00  0.00    +0.000 A 
ATOM     27  N   UNL     1       1.814  14.857  18.480  0.00  0.00    +0.000 N 
ATOM     28  C   UNL     1       3.035  14.134  18.193  0.00  0.00    +0.000 C 
ATOM     29  N   UNL     1       1.923  16.196  18.593  0.00  0.00    +0.000 NA
ENDBRANCH  19  26
ENDBRANCH   1  21
TORSDOF 3
ENDMDL
MODEL 6
REMARK VINA RESULT:      -7.8      5.076     10.899
REMARK  Name = 
REMARK  7 active torsions:
REMARK  status: ('A' for Active; 'I' for Inactive)
REMARK    1  A    between atoms: C_1  and  C_2
REMARK    2  A    between atoms: C_4  and  C_5
REMARK    3  A    between atoms: N_7  and  C_8
REMARK    4  A    between atoms: C_10  and  C_11
REMARK    5  A    between atoms: C_10  and  C_12
REMARK    6  A    between atoms: N_18  and  C_19
REMARK    7  A    between atoms: N_26  and  C_27
REMARK                            x       y       z     vdW  Elec       q    Type
REMARK                         _______ _______ _______ _____ _____    ______ ____
ROOT
ATOM      1  C   UNL     1      -1.838  12.338  19.632  0.00  0.00    +0.000 C 
ATOM      2  C   UNL     1      -2.854  11.778  18.608  0.00  0.00    +0.000 C 
ATOM      3  C   UNL     1      -2.459  10.567  17.696  0.00  0.00    +0.000 C 
ATOM      4  C   UNL     1      -3.558   9.487  17.838  0.00  0.00    +0.000 C 
ATOM      5  C   UNL     1      -2.459  11.032  16.220  0.00  0.00    +0.000 C 
ATOM      6  C   UNL     1      -1.084   9.895  17.951  0.00  0.00    +0.000 C 
ATOM      7  C   UNL     1      -0.420  10.310  19.204  0.00  0.00    +0.000 A 
ATOM      8  C   UNL     1      -0.797  11.356  20.015  0.00  0.00    +0.000 A 
ATOM      9  C   UNL     1       0.103  11.293  21.091  0.00  0.00    +0.000 A 
ATOM     10  N   UNL     1       0.942  10.255  20.999  0.00  0.00    +0.000 NA
ATOM     11  N   UNL     1       0.702   9.724  19.769  0.00  0.00    +0.000 N 
ENDROOT
BRANCH  11  12
ATOM     12  C   UNL     1       1.528   8.688  19.243  0.00  0.00    +0.000 A 
ATOM     13  C   UNL     1       2.122   8.850  17.985  0.00  0.00    +0.000 A 
ATOM     14  C   UNL     1       3.051   7.906  17.519  0.00  0.00    +0.000 A 
ATOM     15  C   UNL     1       3.360   6.787  18.290  0.00  0.00    +0.000 A 
ATOM     16  C   UNL     1       2.706   6.593  19.495  0.00  0.00    +0.000 A 
ATOM     17  F   UNL     1       2.975   5.502  20.229  0.00  0.00    +0.000 F 
ATOM     18  C   UNL     1       1.788   7.520  19.971  0.00  0.00    +0.000 A 
ENDBRANCH  11  12
BRANCH   1  21
ATOM     19  C   UNL     1      -2.345  14.185  21.152  0.00  0.00    +0.000 C 
ATOM     20  O   UNL     1      -1.420  14.816  20.644  0.00  0.00    +0.000 OA
ATOM     21  N   UNL     1      -2.548  12.864  20.795  0.00  0.00    +0.000 N 
ATOM     22  H   UNL     1      -3.405  12.410  21.076  0.00  0.00    +0.000 HD
BRANCH  19  26
ATOM     23  C   UNL     1      -6.264  16.102  23.792  0.00  0.00    +0.000 C 
ATOM     24  C   UNL     1      -4.951  15.610  23.309  0.00  0.00    +0.000 A 
ATOM     25  C   UNL     1      -4.542  15.265  22.000  0.00  0.00    +0.000 A 
ATOM     26  C   UNL     1      -3.249  14.773  22.120  0.00  0.00    +0.000 A 
ATOM     27  N   UNL     1      -2.950  14.928  23.459  0.00  0.00    +0.000 N 
ATOM     28  C   UNL     1      -1.735  14.613  24.180  0.00  0.00    +0.000 C 
ATOM     29  N   UNL     1      -3.971  15.418  24.190  0.00  0.00    +0.000 NA
ENDBRANCH  19  26
ENDBRANCH   1  21
TORSDOF 3
ENDMDL
MODEL 7
REMARK VINA RESULT:      -7.7      4.164      8.404
REMARK  Name = 
REMARK  7 active torsions:
REMARK  status: ('A' for Active; 'I' for Inactive)
REMARK    1  A    between atoms: C_1  and  C_2
REMARK    2  A    between atoms: C_4  and  C_5
REMARK    3  A    between atoms: N_7  and  C_8
REMARK    4  A    between atoms: C_10  and  C_11
REMARK    5  A    between atoms: C_10  and  C_12
REMARK    6  A    between atoms: N_18  and  C_19
REMARK    7  A    between atoms: N_26  and  C_27
REMARK                            x       y       z     vdW  Elec       q    Type
REMARK                         _______ _______ _______ _____ _____    ______ ____
ROOT
ATOM      1  C   UNL     1       0.960  10.244  19.292  0.00  0.00    +0.000 C 
ATOM      2  C   UNL     1       0.682  10.218  20.815  0.00  0.00    +0.000 C 
ATOM      3  C   UNL     1       0.753   8.864  21.600  0.00  0.00    +0.000 C 
ATOM      4  C   UNL     1       1.696   9.066  22.810  0.00  0.00    +0.000 C 
ATOM      5  C   UNL     1      -0.652   8.537  22.159  0.00  0.00    +0.000 C 
ATOM      6  C   UNL     1       1.227   7.607  20.822  0.00  0.00    +0.000 C 
ATOM      7  C   UNL     1       1.810   7.890  19.494  0.00  0.00    +0.000 A 
ATOM      8  C   UNL     1       1.770   9.094  18.829  0.00  0.00    +0.000 A 
ATOM      9  C   UNL     1       2.510   8.860  17.658  0.00  0.00    +0.000 A 
ATOM     10  N   UNL     1       3.027   7.626  17.615  0.00  0.00    +0.000 NA
ATOM     11  N   UNL     1       2.487   6.988  18.689  0.00  0.00    +0.000 N 
ENDROOT
BRANCH  11  12
ATOM     12  C   UNL     1       2.681   5.589  18.884  0.00  0.00    +0.000 A 
ATOM     13  C   UNL     1       3.875   5.129  19.457  0.00  0.00    +0.000 A 
ATOM     14  C   UNL     1       4.020   3.774  19.788  0.00  0.00    +0.000 A 
ATOM     15  C   UNL     1       2.992   2.872  19.518  0.00  0.00    +0.000 A 
ATOM     16  C   UNL     1       1.849   3.320  18.876  0.00  0.00    +0.000 A 
ATOM     17  F   UNL     1       0.868   2.452  18.584  0.00  0.00    +0.000 F 
ATOM     18  C   UNL     1       1.690   4.659  18.546  0.00  0.00    +0.000 A 
ENDBRANCH  11  12
BRANCH   1  21
ATOM     19  C   UNL     1       0.729  12.598  18.673  0.00  0.00    +0.000 C 
ATOM     20  O   UNL     1      -0.480  12.413  18.542  0.00  0.00    +0.000 OA
ATOM     21  N   UNL     1       1.562  11.522  18.922  0.00  0.00    +0.000 N 
ATOM     22  H   UNL     1       2.515  11.699  19.203  0.00  0.00    +0.000 HD
BRANCH  19  26
ATOM     23  C   UNL     1       3.554  16.736  17.723  0.00  0.00    +0.000 C 
ATOM     24  C   UNL     1       2.541  15.752  18.176  0.00  0.00    +0.000 A 
ATOM     25  C   UNL     1       2.565  14.339  18.114  0.00  0.00    +0.000 A 
ATOM     26  C   UNL     1       1.328  13.915  18.582  0.00  0.00    +0.000 A 
ATOM     27  N   UNL     1       0.690  15.079  18.959  0.00  0.00    +0.000 N 
ATOM     28  C   UNL     1      -0.622  15.272  19.540  0.00  0.00    +0.000 C 
ATOM     29  N   UNL     1       1.403  16.195  18.707  0.00  0.00    +0.000 NA
ENDBRANCH  19  26
ENDBRANCH   1  21
TORSDOF 3
ENDMDL
MODEL 8
REMARK VINA RESULT:      -7.7      4.167      8.628
REMARK  Name = 
REMARK  7 active torsions:
REMARK  status: ('A' for Active; 'I' for Inactive)
REMARK    1  A    between atoms: C_1  and  C_2
REMARK    2  A    between atoms: C_4  and  C_5
REMARK    3  A    between atoms: N_7  and  C_8
REMARK    4  A    between atoms: C_10  and  C_11
REMARK    5  A    between atoms: C_10  and  C_12
REMARK    6  A    between atoms: N_18  and  C_19
REMARK    7  A    between atoms: N_26  and  C_27
REMARK                            x       y       z     vdW  Elec       q    Type
REMARK                         _______ _______ _______ _____ _____    ______ ____
ROOT
ATOM      1  C   UNL     1       0.601  10.708  19.593  0.00  0.00    +0.000 C 
ATOM      2  C   UNL     1       0.463  10.516  21.123  0.00  0.00    +0.000 C 
ATOM      3  C   UNL     1       0.723   9.108  21.761  0.00  0.00    +0.000 C 
ATOM      4  C   UNL     1       1.747   9.288  22.906  0.00  0.00    +0.000 C 
ATOM      5  C   UNL     1      -0.593   8.597  22.396  0.00  0.00    +0.000 C 
ATOM      6  C   UNL     1       1.234   7.980  20.827  0.00  0.00    +0.000 C 
ATOM      7  C   UNL     1       1.671   8.439  19.491  0.00  0.00    +0.000 A 
ATOM      8  C   UNL     1       1.466   9.689  18.955  0.00  0.00    +0.000 A 
ATOM      9  C   UNL     1       2.116   9.636  17.711  0.00  0.00    +0.000 A 
ATOM     10  N   UNL     1       2.735   8.468  17.504  0.00  0.00    +0.000 NA
ATOM     11  N   UNL     1       2.351   7.684  18.548  0.00  0.00    +0.000 N 
ENDROOT
BRANCH  11  12
ATOM     12  C   UNL     1       2.684   6.298  18.587  0.00  0.00    +0.000 A 
ATOM     13  C   UNL     1       3.909   5.897  19.136  0.00  0.00    +0.000 A 
ATOM     14  C   UNL     1       4.187   4.533  19.313  0.00  0.00    +0.000 A 
ATOM     15  C   UNL     1       3.261   3.570  18.913  0.00  0.00    +0.000 A 
ATOM     16  C   UNL     1       2.089   3.974  18.295  0.00  0.00    +0.000 A 
ATOM     17  F   UNL     1       1.207   3.053  17.878  0.00  0.00    +0.000 F 
ATOM     18  C   UNL     1       1.799   5.320  18.117  0.00  0.00    +0.000 A 
ENDBRANCH  11  12
BRANCH   1  21
ATOM     19  C   UNL     1       0.170  12.943  18.700  0.00  0.00    +0.000 C 
ATOM     20  O   UNL     1      -0.875  12.513  18.214  0.00  0.00    +0.000 OA
ATOM     21  N   UNL     1       1.052  12.067  19.306  0.00  0.00    +0.000 N 
ATOM     22  H   UNL     1       1.812  12.443  19.854  0.00  0.00    +0.000 HD
BRANCH  19  26
ATOM     23  C   UNL     1       0.432  18.025  19.040  0.00  0.00    +0.000 C 
ATOM     24  C   UNL     1       0.672  16.578  18.818  0.00  0.00    +0.000 A 
ATOM     25  C   UNL     1      -0.240  15.497  18.847  0.00  0.00    +0.000 A 
ATOM     26  C   UNL     1       0.521  14.349  18.672  0.00  0.00    +0.000 A 
ATOM     27  N   UNL     1       1.804  14.819  18.476  0.00  0.00    +0.000 N 
ATOM     28  C   UNL     1       3.029  14.092  18.220  0.00  0.00    +0.000 C 
ATOM     29  N   UNL     1       1.912  16.159  18.575  0.00  0.00    +0.000 NA
ENDBRANCH  19  26
ENDBRANCH   1  21
TORSDOF 3
ENDMDL
MODEL 9
REMARK VINA RESULT:      -7.7      5.206     11.011
REMARK  Name = 
REMARK  7 active torsions:
REMARK  status: ('A' for Active; 'I' for Inactive)
REMARK    1  A    between atoms: C_1  and  C_2
REMARK    2  A    between atoms: C_4  and  C_5
REMARK    3  A    between atoms: N_7  and  C_8
REMARK    4  A    between atoms: C_10  and  C_11
REMARK    5  A    between atoms: C_10  and  C_12
REMARK    6  A    between atoms: N_18  and  C_19
REMARK    7  A    between atoms: N_26  and  C_27
REMARK                            x       y       z     vdW  Elec       q    Type
REMARK                         _______ _______ _______ _____ _____    ______ ____
ROOT
ATOM      1  C   UNL     1      -1.839  12.396  19.528  0.00  0.00    +0.000 C 
ATOM      2  C   UNL     1      -2.869  11.802  18.536  0.00  0.00    +0.000 C 
ATOM      3  C   UNL     1      -2.488  10.555  17.667  0.00  0.00    +0.000 C 
ATOM      4  C   UNL     1      -3.590   9.487  17.862  0.00  0.00    +0.000 C 
ATOM      5  C   UNL     1      -2.501  10.963  16.175  0.00  0.00    +0.000 C 
ATOM      6  C   UNL     1      -1.113   9.887  17.934  0.00  0.00    +0.000 C 
ATOM      7  C   UNL     1      -0.434  10.347  19.164  0.00  0.00    +0.000 A 
ATOM      8  C   UNL     1      -0.799  11.425  19.938  0.00  0.00    +0.000 A 
ATOM      9  C   UNL     1       0.112  11.398  21.007  0.00  0.00    +0.000 A 
ATOM     10  N   UNL     1       0.945  10.353  20.946  0.00  0.00    +0.000 NA
ATOM     11  N   UNL     1       0.690   9.777  19.740  0.00  0.00    +0.000 N 
ENDROOT
BRANCH  11  12
ATOM     12  C   UNL     1       1.506   8.718  19.245  0.00  0.00    +0.000 A 
ATOM     13  C   UNL     1       2.120   8.845  17.992  0.00  0.00    +0.000 A 
ATOM     14  C   UNL     1       3.039   7.877  17.558  0.00  0.00    +0.000 A 
ATOM     15  C   UNL     1       3.320   6.769  18.355  0.00  0.00    +0.000 A 
ATOM     16  C   UNL     1       2.647   6.609  19.555  0.00  0.00    +0.000 A 
ATOM     17  F   UNL     1       2.888   5.529  20.313  0.00  0.00    +0.000 F 
ATOM     18  C   UNL     1       1.738   7.561  19.999  0.00  0.00    +0.000 A 
ENDBRANCH  11  12
BRANCH   1  21
ATOM     19  C   UNL     1      -2.410  14.326  20.916  0.00  0.00    +0.000 C 
ATOM     20  O   UNL     1      -1.554  14.972  20.315  0.00  0.00    +0.000 OA
ATOM     21  N   UNL     1      -2.535  12.970  20.677  0.00  0.00    +0.000 N 
ATOM     22  H   UNL     1      -3.345  12.485  21.034  0.00  0.00    +0.000 HD
BRANCH  19  26
ATOM     23  C   UNL     1      -4.681  16.683  24.827  0.00  0.00    +0.000 C 
ATOM     24  C   UNL     1      -4.339  15.972  23.572  0.00  0.00    +0.000 A 
ATOM     25  C   UNL     1      -3.122  15.366  23.180  0.00  0.00    +0.000 A 
ATOM     26  C   UNL     1      -3.312  14.933  21.875  0.00  0.00    +0.000 A 
ATOM     27  N   UNL     1      -4.633  15.234  21.606  0.00  0.00    +0.000 N 
ATOM     28  C   UNL     1      -5.413  14.999  20.410  0.00  0.00    +0.000 C 
ATOM     29  N   UNL     1      -5.259  15.872  22.614  0.00  0.00    +0.000 NA
ENDBRANCH  19  26
ENDBRANCH   1  21
TORSDOF 3
ENDMDL
