MODEL 1
REMARK VINA RESULT:      -6.6      0.000      0.000
REMARK  Name = 
REMARK  7 active torsions:
REMARK  status: ('A' for Active; 'I' for Inactive)
REMARK    1  A    between atoms: C_1  and  C_2
REMARK    2  A    between atoms: C_2  and  C_3
REMARK    3  A    between atoms: C_2  and  S_4
REMARK    4  A    between atoms: S_4  and  N_7
REMARK    5  A    between atoms: N_11  and  C_12
REMARK    6  A    between atoms: C_12  and  C_13
REMARK    7  A    between atoms: C_13  and  N_14
REMARK                            x       y       z     vdW  Elec       q    Type
REMARK                         _______ _______ _______ _____ _____    ______ ____
ROOT
ATOM      1  N   UNL     1       1.591   8.882  20.078  0.00  0.00    +0.000 N 
ATOM      2  C   UNL     1       1.905   7.565  19.730  0.00  0.00    +0.000 C 
ATOM      3  N   UNL     1       1.933   6.660  20.620  0.00  0.00    +0.000 NA
ATOM      4  C   UNL     1       2.173   5.306  20.171  0.00  0.00    +0.000 C 
ATOM      5  N   UNL     1       2.903   5.081  18.929  0.00  0.00    +0.000 NA
ATOM      6  C   UNL     1       3.012   6.277  18.113  0.00  0.00    +0.000 C 
ATOM      7  N   UNL     1       2.209   7.417  18.431  0.00  0.00    +0.000 N 
ATOM      8  H   UNL     1       2.420   9.469  20.093  0.00  0.00    +0.000 HD
ATOM      9  H   UNL     1       2.363   8.253  17.888  0.00  0.00    +0.000 HD
ENDROOT
BRANCH   1  10
ATOM     10  S   UNL     1       0.702   9.201  21.486  0.00  0.00    +0.000 S 
ATOM     11  O   UNL     1       1.663   9.309  22.565  0.00  0.00    +0.000 OA
ATOM     12  O   UNL     1      -0.450   8.330  21.550  0.00  0.00    +0.000 OA
BRANCH  10  14
ATOM     13  C   UNL     1      -0.709  10.822  19.830  0.00  0.00    +0.000 C 
ATOM     14  C   UNL     1       0.072  10.852  21.142  0.00  0.00    +0.000 C 
ATOM     15  C   UNL     1      -0.801  11.374  22.276  0.00  0.00    +0.000 C 
ENDBRANCH  10  14
ENDBRANCH   1  10
BRANCH   5  16
ATOM     16  C   UNL     1       4.200   4.416  19.111  0.00  0.00    +0.000 C 
BRANCH  16  17
ATOM     17  C   UNL     1       5.383   5.407  19.257  0.00  0.00    +0.000 C 
BRANCH  17  18
ATOM     18  N   UNL     1       6.678   4.883  18.779  0.00  0.00    +0.000 NA
ATOM     19  C   UNL     1       7.790   5.849  18.907  0.00  0.00    +0.000 C 
ATOM     20  C   UNL     1       7.684   7.046  17.948  0.00  0.00    +0.000 C 
ATOM     21  O   UNL     1       7.592   6.615  16.584  0.00  0.00    +0.000 OA
ATOM     22  C   UNL     1       6.488   5.719  16.398  0.00  0.00    +0.000 C 
ATOM     23  C   UNL     1       6.581   4.508  17.346  0.00  0.00    +0.000 C 
ENDBRANCH  17  18
ENDBRANCH  16  17
ENDBRANCH   5  16
TORSDOF 5
ENDMDL
MODEL 2
REMARK VINA RESULT:      -6.4      4.533      7.450
REMARK  Name = 
REMARK  7 active torsions:
REMARK  status: ('A' for Active; 'I' for Inactive)
REMARK    1  A    between atoms: C_1  and  C_2
REMARK    2  A    between atoms: C_2  and  C_3
REMARK    3  A    between atoms: C_2  and  S_4
REMARK    4  A    between atoms: S_4  and  N_7
REMARK    5  A    between atoms: N_11  and  C_12
REMARK    6  A    between atoms: C_12  and  C_13
REMARK    7  A    between atoms: C_13  and  N_14
REMARK                            x       y       z     vdW  Elec       q    Type
REMARK                         _______ _______ _______ _____ _____    ______ ____
ROOT
ATOM      1  N   UNL     1       5.198   5.685  15.406  0.00  0.00    +0.000 N 
ATOM      2  C   UNL     1       4.835   5.898  16.740  0.00  0.00    +0.000 C 
ATOM      3  N   UNL     1       5.203   5.080  17.638  0.00  0.00    +0.000 NA
ATOM      4  C   UNL     1       4.870   5.415  19.006  0.00  0.00    +0.000 C 
ATOM      5  N   UNL     1       3.721   6.271  19.274  0.00  0.00    +0.000 NA
ATOM      6  C   UNL     1       3.242   6.963  18.091  0.00  0.00    +0.000 C 
ATOM      7  N   UNL     1       4.051   6.973  16.910  0.00  0.00    +0.000 N 
ATOM      8  H   UNL     1       4.415   5.336  14.860  0.00  0.00    +0.000 HD
ATOM      9  H   UNL     1       3.655   7.400  16.087  0.00  0.00    +0.000 HD
ENDROOT
BRANCH   1  10
ATOM     10  S   UNL     1       6.554   4.737  15.035  0.00  0.00    +0.000 S 
ATOM     11  O   UNL     1       6.222   3.378  15.408  0.00  0.00    +0.000 OA
ATOM     12  O   UNL     1       7.757   5.399  15.487  0.00  0.00    +0.000 OA
BRANCH  10  14
ATOM     13  C   UNL     1       7.942   5.310  12.776  0.00  0.00    +0.000 C 
ATOM     14  C   UNL     1       6.569   4.827  13.237  0.00  0.00    +0.000 C 
ATOM     15  C   UNL     1       6.228   3.487  12.598  0.00  0.00    +0.000 C 
ENDBRANCH  10  14
ENDBRANCH   1  10
BRANCH   5  16
ATOM     16  C   UNL     1       2.634   5.601  20.000  0.00  0.00    +0.000 C 
BRANCH  16  17
ATOM     17  C   UNL     1       1.813   4.629  19.116  0.00  0.00    +0.000 C 
BRANCH  17  18
ATOM     18  N   UNL     1       1.525   3.326  19.749  0.00  0.00    +0.000 NA
ATOM     19  C   UNL     1       2.650   2.797  20.550  0.00  0.00    +0.000 C 
ATOM     20  C   UNL     1       3.857   2.355  19.707  0.00  0.00    +0.000 C 
ATOM     21  O   UNL     1       3.480   1.380  18.726  0.00  0.00    +0.000 OA
ATOM     22  C   UNL     1       2.429   1.873  17.884  0.00  0.00    +0.000 C 
ATOM     23  C   UNL     1       1.206   2.313  18.711  0.00  0.00    +0.000 C 
ENDBRANCH  17  18
ENDBRANCH  16  17
ENDBRANCH   5  16
TORSDOF 5
ENDMDL
MODEL 3
REMARK VINA RESULT:      -6.1      2.336      3.021
REMARK  Name = 
REMARK  7 active torsions:
REMARK  status: ('A' for Active; 'I' for Inactive)
REMARK    1  A    between atoms: C_1  and  C_2
REMARK    2  A    between atoms: C_2  and  C_3
REMARK    3  A    between atoms: C_2  and  S_4
REMARK    4  A    between atoms: S_4  and  N_7
REMARK    5  A    between atoms: N_11  and  C_12
REMARK    6  A    between atoms: C_12  and  C_13
REMARK    7  A    between atoms: C_13  and  N_14
REMARK                            x       y       z     vdW  Elec       q    Type
REMARK                         _______ _______ _______ _____ _____    ______ ____
ROOT
ATOM      1  N   UNL     1       1.070   9.855  20.473  0.00  0.00    +0.000 N 
ATOM      2  C   UNL     1       1.501   8.722  19.777  0.00  0.00    +0.000 C 
ATOM      3  N   UNL     1       1.771   7.653  20.406  0.00  0.00    +0.000 NA
ATOM      4  C   UNL     1       2.121   6.495  19.612  0.00  0.00    +0.000 C 
ATOM      5  N   UNL     1       2.694   6.683  18.285  0.00  0.00    +0.000 NA
ATOM      6  C   UNL     1       2.532   8.036  17.785  0.00  0.00    +0.000 C 
ATOM      7  N   UNL     1       1.638   8.929  18.458  0.00  0.00    +0.000 N 
ATOM      8  H   UNL     1       1.810  10.548  20.548  0.00  0.00    +0.000 HD
ATOM      9  H   UNL     1       1.606   9.881  18.128  0.00  0.00    +0.000 HD
ENDROOT
BRANCH   1  10
ATOM     10  S   UNL     1       0.352   9.694  22.000  0.00  0.00    +0.000 S 
ATOM     11  O   UNL     1       1.434   9.651  22.962  0.00  0.00    +0.000 OA
ATOM     12  O   UNL     1      -0.690   8.693  21.952  0.00  0.00    +0.000 OA
BRANCH  10  14
ATOM     13  C   UNL     1      -1.013  11.713  20.810  0.00  0.00    +0.000 C 
ATOM     14  C   UNL     1      -0.476  11.283  22.173  0.00  0.00    +0.000 C 
ATOM     15  C   UNL     1      -1.600  11.228  23.200  0.00  0.00    +0.000 C 
ENDBRANCH  10  14
ENDBRANCH   1  10
BRANCH   5  16
ATOM     16  C   UNL     1       4.079   6.211  18.160  0.00  0.00    +0.000 C 
BRANCH  16  17
ATOM     17  C   UNL     1       4.461   5.143  19.216  0.00  0.00    +0.000 C 
BRANCH  17  18
ATOM     18  N   UNL     1       4.801   3.822  18.651  0.00  0.00    +0.000 NA
ATOM     19  C   UNL     1       4.048   3.493  17.421  0.00  0.00    +0.000 C 
ATOM     20  C   UNL     1       2.551   3.238  17.661  0.00  0.00    +0.000 C 
ATOM     21  O   UNL     1       2.347   2.199  18.627  0.00  0.00    +0.000 OA
ATOM     22  C   UNL     1       3.012   2.501  19.861  0.00  0.00    +0.000 C 
ATOM     23  C   UNL     1       4.516   2.753  19.642  0.00  0.00    +0.000 C 
ENDBRANCH  17  18
ENDBRANCH  16  17
ENDBRANCH   5  16
TORSDOF 5
ENDMDL
MODEL 4
REMARK VINA RESULT:      -6.1      1.430      1.973
REMARK  Name = 
REMARK  7 active torsions:
REMARK  status: ('A' for Active; 'I' for Inactive)
REMARK    1  A    between atoms: C_1  and  C_2
REMARK    2  A    between atoms: C_2  and  C_3
REMARK    3  A    between atoms: C_2  and  S_4
REMARK    4  A    between atoms: S_4  and  N_7
REMARK    5  A    between atoms: N_11  and  C_12
REMARK    6  A    between atoms: C_12  and  C_13
REMARK    7  A    between atoms: C_13  and  N_14
REMARK                            x       y       z     vdW  Elec       q    Type
REMARK                         _______ _______ _______ _____ _____    ______ ____
ROOT
ATOM      1  N   UNL     1       1.080   9.768  20.389  0.00  0.00    +0.000 N 
ATOM      2  C   UNL     1       1.512   8.591  19.770  0.00  0.00    +0.000 C 
ATOM      3  N   UNL     1       1.794   7.570  20.468  0.00  0.00    +0.000 NA
ATOM      4  C   UNL     1       2.144   6.362  19.753  0.00  0.00    +0.000 C 
ATOM      5  N   UNL     1       2.704   6.461  18.410  0.00  0.00    +0.000 NA
ATOM      6  C   UNL     1       2.528   7.776  17.820  0.00  0.00    +0.000 C 
ATOM      7  N   UNL     1       1.635   8.708  18.438  0.00  0.00    +0.000 N 
ATOM      8  H   UNL     1       1.816  10.468  20.409  0.00  0.00    +0.000 HD
ATOM      9  H   UNL     1       1.594   9.634  18.043  0.00  0.00    +0.000 HD
ENDROOT
BRANCH   1  10
ATOM     10  S   UNL     1       0.377   9.708  21.931  0.00  0.00    +0.000 S 
ATOM     11  O   UNL     1       1.469   9.693  22.882  0.00  0.00    +0.000 OA
ATOM     12  O   UNL     1      -0.688   8.731  21.950  0.00  0.00    +0.000 OA
BRANCH  10  14
ATOM     13  C   UNL     1      -1.057  11.638  20.676  0.00  0.00    +0.000 C 
ATOM     14  C   UNL     1      -0.413  11.324  22.024  0.00  0.00    +0.000 C 
ATOM     15  C   UNL     1      -1.446  11.387  23.142  0.00  0.00    +0.000 C 
ENDBRANCH  10  14
ENDBRANCH   1  10
BRANCH   5  16
ATOM     16  C   UNL     1       4.091   5.989  18.306  0.00  0.00    +0.000 C 
BRANCH  16  17
ATOM     17  C   UNL     1       4.416   5.337  16.938  0.00  0.00    +0.000 C 
BRANCH  17  18
ATOM     18  N   UNL     1       5.456   6.040  16.160  0.00  0.00    +0.000 NA
ATOM     19  C   UNL     1       5.957   5.263  15.006  0.00  0.00    +0.000 C 
ATOM     20  C   UNL     1       6.790   4.032  15.401  0.00  0.00    +0.000 C 
ATOM     21  O   UNL     1       7.896   4.398  16.236  0.00  0.00    +0.000 OA
ATOM     22  C   UNL     1       7.453   5.105  17.403  0.00  0.00    +0.000 C 
ATOM     23  C   UNL     1       6.623   6.346  17.026  0.00  0.00    +0.000 C 
ENDBRANCH  17  18
ENDBRANCH  16  17
ENDBRANCH   5  16
TORSDOF 5
ENDMDL
MODEL 5
REMARK VINA RESULT:      -6.1      1.289      1.485
REMARK  Name = 
REMARK  7 active torsions:
REMARK  status: ('A' for Active; 'I' for Inactive)
REMARK    1  A    between atoms: C_1  and  C_2
REMARK    2  A    between atoms: C_2  and  C_3
REMARK    3  A    between atoms: C_2  and  S_4
REMARK    4  A    between atoms: S_4  and  N_7
REMARK    5  A    between atoms: N_11  and  C_12
REMARK    6  A    between atoms: C_12  and  C_13
REMARK    7  A    between atoms: C_13  and  N_14
REMARK                            x       y       z     vdW  Elec       q    Type
REMARK                         _______ _______ _______ _____ _____    ______ ____
ROOT
ATOM      1  N   UNL     1       1.181   9.746  20.377  0.00  0.00    +0.000 N 
ATOM      2  C   UNL     1       1.605   8.606  19.688  0.00  0.00    +0.000 C 
ATOM      3  N   UNL     1       1.883   7.544  20.324  0.00  0.00    +0.000 NA
ATOM      4  C   UNL     1       2.224   6.378  19.536  0.00  0.00    +0.000 C 
ATOM      5  N   UNL     1       2.781   6.554  18.200  0.00  0.00    +0.000 NA
ATOM      6  C   UNL     1       2.612   7.902  17.690  0.00  0.00    +0.000 C 
ATOM      7  N   UNL     1       1.726   8.801  18.365  0.00  0.00    +0.000 N 
ATOM      8  H   UNL     1       1.921  10.440  20.437  0.00  0.00    +0.000 HD
ATOM      9  H   UNL     1       1.689   9.749  18.026  0.00  0.00    +0.000 HD
ENDROOT
BRANCH   1  10
ATOM     10  S   UNL     1       0.482   9.599  21.914  0.00  0.00    +0.000 S 
ATOM     11  O   UNL     1       1.572   9.621  22.868  0.00  0.00    +0.000 OA
ATOM     12  O   UNL     1      -0.523   8.560  21.901  0.00  0.00    +0.000 OA
BRANCH  10  14
ATOM     13  C   UNL     1      -1.012  11.508  20.697  0.00  0.00    +0.000 C 
ATOM     14  C   UNL     1      -0.403  11.161  22.054  0.00  0.00    +0.000 C 
ATOM     15  C   UNL     1      -1.480  11.109  23.129  0.00  0.00    +0.000 C 
ENDBRANCH  10  14
ENDBRANCH   1  10
BRANCH   5  16
ATOM     16  C   UNL     1       4.165   6.082  18.064  0.00  0.00    +0.000 C 
BRANCH  16  17
ATOM     17  C   UNL     1       4.332   4.970  16.998  0.00  0.00    +0.000 C 
BRANCH  17  18
ATOM     18  N   UNL     1       5.600   4.219  17.095  0.00  0.00    +0.000 NA
ATOM     19  C   UNL     1       6.713   5.008  17.665  0.00  0.00    +0.000 C 
ATOM     20  C   UNL     1       7.210   6.134  16.743  0.00  0.00    +0.000 C 
ATOM     21  O   UNL     1       7.604   5.624  15.463  0.00  0.00    +0.000 OA
ATOM     22  C   UNL     1       6.533   4.898  14.842  0.00  0.00    +0.000 C 
ATOM     23  C   UNL     1       6.027   3.760  15.749  0.00  0.00    +0.000 C 
ENDBRANCH  17  18
ENDBRANCH  16  17
ENDBRANCH   5  16
TORSDOF 5
ENDMDL
MODEL 6
REMARK VINA RESULT:      -6.0      1.871      2.672
REMARK  Name = 
REMARK  7 active torsions:
REMARK  status: ('A' for Active; 'I' for Inactive)
REMARK    1  A    between atoms: C_1  and  C_2
REMARK    2  A    between atoms: C_2  and  C_3
REMARK    3  A    between atoms: C_2  and  S_4
REMARK    4  A    between atoms: S_4  and  N_7
REMARK    5  A    between atoms: N_11  and  C_12
REMARK    6  A    between atoms: C_12  and  C_13
REMARK    7  A    between atoms: C_13  and  N_14
REMARK                            x       y       z     vdW  Elec       q    Type
REMARK                         _______ _______ _______ _____ _____    ______ ____
ROOT
ATOM      1  N   UNL     1       0.329   9.237  20.833  0.00  0.00    +0.000 N 
ATOM      2  C   UNL     1       1.309   8.520  20.140  0.00  0.00    +0.000 C 
ATOM      3  N   UNL     1       1.598   8.828  18.943  0.00  0.00    +0.000 NA
ATOM      4  C   UNL     1       2.686   8.103  18.322  0.00  0.00    +0.000 C 
ATOM      5  N   UNL     1       3.014   6.763  18.793  0.00  0.00    +0.000 NA
ATOM      6  C   UNL     1       2.406   6.448  20.073  0.00  0.00    +0.000 C 
ATOM      7  N   UNL     1       1.818   7.499  20.847  0.00  0.00    +0.000 N 
ATOM      8  H   UNL     1      -0.537   8.710  20.901  0.00  0.00    +0.000 HD
ATOM      9  H   UNL     1       1.343   7.233  21.695  0.00  0.00    +0.000 HD
ENDROOT
BRANCH   1  10
ATOM     10  S   UNL     1      -0.061  10.818  20.361  0.00  0.00    +0.000 S 
ATOM     11  O   UNL     1      -1.184  10.713  19.453  0.00  0.00    +0.000 OA
ATOM     12  O   UNL     1       1.144  11.545  20.031  0.00  0.00    +0.000 OA
BRANCH  10  14
ATOM     13  C   UNL     1      -1.981  12.241  21.643  0.00  0.00    +0.000 C 
ATOM     14  C   UNL     1      -0.666  11.511  21.908  0.00  0.00    +0.000 C 
ATOM     15  C   UNL     1      -0.851  10.441  22.976  0.00  0.00    +0.000 C 
ENDBRANCH  10  14
ENDBRANCH   1  10
BRANCH   5  16
ATOM     16  C   UNL     1       2.783   5.708  17.797  0.00  0.00    +0.000 C 
BRANCH  16  17
ATOM     17  C   UNL     1       4.086   5.026  17.311  0.00  0.00    +0.000 C 
BRANCH  17  18
ATOM     18  N   UNL     1       4.939   5.880  16.461  0.00  0.00    +0.000 NA
ATOM     19  C   UNL     1       5.463   5.187  15.264  0.00  0.00    +0.000 C 
ATOM     20  C   UNL     1       6.506   4.103  15.582  0.00  0.00    +0.000 C 
ATOM     21  O   UNL     1       7.604   4.640  16.330  0.00  0.00    +0.000 OA
ATOM     22  C   UNL     1       7.149   5.273  17.535  0.00  0.00    +0.000 C 
ATOM     23  C   UNL     1       6.109   6.368  17.235  0.00  0.00    +0.000 C 
ENDBRANCH  17  18
ENDBRANCH  16  17
ENDBRANCH   5  16
TORSDOF 5
ENDMDL
MODEL 7
REMARK VINA RESULT:      -6.0      4.306      6.961
REMARK  Name = 
REMARK  7 active torsions:
REMARK  status: ('A' for Active; 'I' for Inactive)
REMARK    1  A    between atoms: C_1  and  C_2
REMARK    2  A    between atoms: C_2  and  C_3
REMARK    3  A    between atoms: C_2  and  S_4
REMARK    4  A    between atoms: S_4  and  N_7
REMARK    5  A    between atoms: N_11  and  C_12
REMARK    6  A    between atoms: C_12  and  C_13
REMARK    7  A    between atoms: C_13  and  N_14
REMARK                            x       y       z     vdW  Elec       q    Type
REMARK                         _______ _______ _______ _____ _____    ______ ____
ROOT
ATOM      1  N   UNL     1       5.281   6.082  16.178  0.00  0.00    +0.000 N 
ATOM      2  C   UNL     1       4.600   6.255  17.387  0.00  0.00    +0.000 C 
ATOM      3  N   UNL     1       4.881   5.526  18.387  0.00  0.00    +0.000 NA
ATOM      4  C   UNL     1       4.201   5.825  19.629  0.00  0.00    +0.000 C 
ATOM      5  N   UNL     1       2.901   6.484  19.593  0.00  0.00    +0.000 NA
ATOM      6  C   UNL     1       2.597   7.066  18.299  0.00  0.00    +0.000 C 
ATOM      7  N   UNL     1       3.638   7.189  17.324  0.00  0.00    +0.000 N 
ATOM      8  H   UNL     1       4.706   5.599  15.494  0.00  0.00    +0.000 HD
ATOM      9  H   UNL     1       3.375   7.530  16.413  0.00  0.00    +0.000 HD
ENDROOT
BRANCH   1  10
ATOM     10  S   UNL     1       6.817   5.366  16.163  0.00  0.00    +0.000 S 
ATOM     11  O   UNL     1       6.828   4.389  17.233  0.00  0.00    +0.000 OA
ATOM     12  O   UNL     1       7.835   6.384  16.026  0.00  0.00    +0.000 OA
BRANCH  10  14
ATOM     13  C   UNL     1       5.324   4.298  14.167  0.00  0.00    +0.000 C 
ATOM     14  C   UNL     1       6.777   4.472  14.601  0.00  0.00    +0.000 C 
ATOM     15  C   UNL     1       7.580   5.183  13.519  0.00  0.00    +0.000 C 
ENDBRANCH  10  14
ENDBRANCH   1  10
BRANCH   5  16
ATOM     16  C   UNL     1       1.798   5.655  20.099  0.00  0.00    +0.000 C 
BRANCH  16  17
ATOM     17  C   UNL     1       2.207   4.185  20.366  0.00  0.00    +0.000 C 
BRANCH  17  18
ATOM     18  N   UNL     1       1.354   3.184  19.695  0.00  0.00    +0.000 NA
ATOM     19  C   UNL     1       1.924   1.819  19.705  0.00  0.00    +0.000 C 
ATOM     20  C   UNL     1       3.169   1.661  18.817  0.00  0.00    +0.000 C 
ATOM     21  O   UNL     1       2.895   2.044  17.463  0.00  0.00    +0.000 OA
ATOM     22  C   UNL     1       2.394   3.387  17.396  0.00  0.00    +0.000 C 
ATOM     23  C   UNL     1       1.142   3.563  18.275  0.00  0.00    +0.000 C 
ENDBRANCH  17  18
ENDBRANCH  16  17
ENDBRANCH   5  16
TORSDOF 5
ENDMDL
MODEL 8
REMARK VINA RESULT:      -5.9      2.964      6.706
REMARK  Name = 
REMARK  7 active torsions:
REMARK  status: ('A' for Active; 'I' for Inactive)
REMARK    1  A    between atoms: C_1  and  C_2
REMARK    2  A    between atoms: C_2  and  C_3
REMARK    3  A    between atoms: C_2  and  S_4
REMARK    4  A    between atoms: S_4  and  N_7
REMARK    5  A    between atoms: N_11  and  C_12
REMARK    6  A    between atoms: C_12  and  C_13
REMARK    7  A    between atoms: C_13  and  N_14
REMARK                            x       y       z     vdW  Elec       q    Type
REMARK                         _______ _______ _______ _____ _____    ______ ____
ROOT
ATOM      1  N   UNL     1       6.157   3.878  18.423  0.00  0.00    +0.000 N 
ATOM      2  C   UNL     1       4.860   3.426  18.688  0.00  0.00    +0.000 C 
ATOM      3  N   UNL     1       3.892   3.810  17.963  0.00  0.00    +0.000 NA
ATOM      4  C   UNL     1       2.596   3.229  18.239  0.00  0.00    +0.000 C 
ATOM      5  N   UNL     1       2.306   2.726  19.576  0.00  0.00    +0.000 NA
ATOM      6  C   UNL     1       3.496   2.569  20.392  0.00  0.00    +0.000 C 
ATOM      7  N   UNL     1       4.784   2.639  19.772  0.00  0.00    +0.000 N 
ATOM      8  H   UNL     1       6.447   4.586  19.092  0.00  0.00    +0.000 HD
ATOM      9  H   UNL     1       5.588   2.598  20.379  0.00  0.00    +0.000 HD
ENDROOT
BRANCH   1  10
ATOM     10  S   UNL     1       6.565   4.430  16.873  0.00  0.00    +0.000 S 
ATOM     11  O   UNL     1       5.735   3.695  15.941  0.00  0.00    +0.000 OA
ATOM     12  O   UNL     1       8.003   4.512  16.742  0.00  0.00    +0.000 OA
BRANCH  10  14
ATOM     13  C   UNL     1       7.139   7.061  17.193  0.00  0.00    +0.000 C 
ATOM     14  C   UNL     1       5.962   6.125  16.930  0.00  0.00    +0.000 C 
ATOM     15  C   UNL     1       5.243   6.515  15.644  0.00  0.00    +0.000 C 
ENDBRANCH  10  14
ENDBRANCH   1  10
BRANCH   5  16
ATOM     16  C   UNL     1       1.250   3.468  20.277  0.00  0.00    +0.000 C 
BRANCH  16  17
ATOM     17  C   UNL     1       1.156   4.954  19.849  0.00  0.00    +0.000 C 
BRANCH  17  18
ATOM     18  N   UNL     1       2.106   5.848  20.541  0.00  0.00    +0.000 NA
ATOM     19  C   UNL     1       1.456   6.985  21.228  0.00  0.00    +0.000 C 
ATOM     20  C   UNL     1       0.852   8.024  20.269  0.00  0.00    +0.000 C 
ATOM     21  O   UNL     1       1.838   8.529  19.359  0.00  0.00    +0.000 OA
ATOM     22  C   UNL     1       2.457   7.464  18.625  0.00  0.00    +0.000 C 
ATOM     23  C   UNL     1       3.075   6.415  19.569  0.00  0.00    +0.000 C 
ENDBRANCH  17  18
ENDBRANCH  16  17
ENDBRANCH   5  16
TORSDOF 5
ENDMDL
MODEL 9
REMARK VINA RESULT:      -5.8      2.553      7.876
REMARK  Name = 
REMARK  7 active torsions:
REMARK  status: ('A' for Active; 'I' for Inactive)
REMARK    1  A    between atoms: C_1  and  C_2
REMARK    2  A    between atoms: C_2  and  C_3
REMARK    3  A    between atoms: C_2  and  S_4
REMARK    4  A    between atoms: S_4  and  N_7
REMARK    5  A    between atoms: N_11  and  C_12
REMARK    6  A    between atoms: C_12  and  C_13
REMARK    7  A    between atoms: C_13  and  N_14
REMARK                            x       y       z     vdW  Elec       q    Type
REMARK                         _______ _______ _______ _____ _____    ______ ____
ROOT
ATOM      1  N   UNL     1       5.984   5.292  18.347  0.00  0.00    +0.000 N 
ATOM      2  C   UNL     1       4.745   5.937  18.278  0.00  0.00    +0.000 C 
ATOM      3  N   UNL     1       4.581   6.920  17.492  0.00  0.00    +0.000 NA
ATOM      4  C   UNL     1       3.248   7.477  17.408  0.00  0.00    +0.000 C 
ATOM      5  N   UNL     1       2.338   7.330  18.537  0.00  0.00    +0.000 NA
ATOM      6  C   UNL     1       2.782   6.336  19.497  0.00  0.00    +0.000 C 
ATOM      7  N   UNL     1       3.843   5.444  19.142  0.00  0.00    +0.000 N 
ATOM      8  H   UNL     1       6.490   5.548  19.190  0.00  0.00    +0.000 HD
ATOM      9  H   UNL     1       4.173   4.817  19.858  0.00  0.00    +0.000 HD
ENDROOT
BRANCH   1  10
ATOM     10  S   UNL     1       7.065   5.387  17.044  0.00  0.00    +0.000 S 
ATOM     11  O   UNL     1       8.042   4.336  17.241  0.00  0.00    +0.000 OA
ATOM     12  O   UNL     1       7.436   6.765  16.811  0.00  0.00    +0.000 OA
BRANCH  10  14
ATOM     13  C   UNL     1       6.829   4.923  14.382  0.00  0.00    +0.000 C 
ATOM     14  C   UNL     1       6.007   4.905  15.669  0.00  0.00    +0.000 C 
ATOM     15  C   UNL     1       5.381   3.533  15.888  0.00  0.00    +0.000 C 
ENDBRANCH  10  14
ENDBRANCH   1  10
BRANCH   5  16
ATOM     16  C   UNL     1       1.979   8.600  19.182  0.00  0.00    +0.000 C 
BRANCH  16  17
ATOM     17  C   UNL     1       1.391   8.422  20.605  0.00  0.00    +0.000 C 
BRANCH  17  18
ATOM     18  N   UNL     1      -0.016   8.845  20.740  0.00  0.00    +0.000 NA
ATOM     19  C   UNL     1      -0.231  10.282  20.463  0.00  0.00    +0.000 C 
ATOM     20  C   UNL     1       0.370  11.215  21.527  0.00  0.00    +0.000 C 
ATOM     21  O   UNL     1      -0.135  10.909  22.833  0.00  0.00    +0.000 OA
ATOM     22  C   UNL     1       0.103   9.536  23.172  0.00  0.00    +0.000 C 
ATOM     23  C   UNL     1      -0.498   8.586  22.120  0.00  0.00    +0.000 C 
ENDBRANCH  17  18
ENDBRANCH  16  17
ENDBRANCH   5  16
TORSDOF 5
ENDMDL
