MODEL 1
REMARK VINA RESULT:      -8.6      0.000      0.000
REMARK  Name = 
REMARK  4 active torsions:
REMARK  status: ('A' for Active; 'I' for Inactive)
REMARK    1  A    between atoms: C_1  and  N_2
REMARK    2  A    between atoms: C_9  and  N_10
REMARK    3  A    between atoms: C_11  and  C_13
REMARK    4  A    between atoms: C_16  and  C_17
REMARK                            x       y       z     vdW  Elec       q    Type
REMARK                         _______ _______ _______ _____ _____    ______ ____
ROOT
ATOM      1  N   UNL     1       2.205   7.811  19.120  0.00  0.00    +0.000 N 
ATOM      2  C   UNL     1       1.605   7.666  20.356  0.00  0.00    +0.000 C 
ATOM      3  O   UNL     1       1.617   6.655  21.055  0.00  0.00    +0.000 OA
ATOM      4  H   UNL     1       2.229   8.723  18.691  0.00  0.00    +0.000 HD
ENDROOT
BRANCH   1  13
ATOM      5  C   UNL     1       6.964   7.385  17.312  0.00  0.00    +0.000 C 
ATOM      6  N   UNL     1       6.215   6.231  16.828  0.00  0.00    +0.000 N 
ATOM      7  C   UNL     1       7.008   5.057  16.457  0.00  0.00    +0.000 C 
ATOM      8  C   UNL     1       6.191   4.098  15.609  0.00  0.00    +0.000 C 
ATOM      9  C   UNL     1       4.993   3.621  16.405  0.00  0.00    +0.000 C 
ATOM     10  C   UNL     1       4.267   4.772  17.051  0.00  0.00    +0.000 A 
ATOM     11  C   UNL     1       2.948   4.556  17.470  0.00  0.00    +0.000 A 
ATOM     12  C   UNL     1       2.248   5.553  18.138  0.00  0.00    +0.000 A 
ATOM     13  C   UNL     1       2.855   6.775  18.408  0.00  0.00    +0.000 A 
ATOM     14  C   UNL     1       4.160   7.004  17.946  0.00  0.00    +0.000 A 
ATOM     15  C   UNL     1       4.908   6.009  17.284  0.00  0.00    +0.000 A 
ENDBRANCH   1  13
BRANCH   2  16
ATOM     16  C   UNL     1       0.866   8.845  20.885  0.00  0.00    +0.000 A 
ATOM     17  C   UNL     1       0.533   8.817  22.242  0.00  0.00    +0.000 A 
ATOM     18  C   UNL     1      -0.169   9.872  22.821  0.00  0.00    +0.000 A 
ATOM     19  C   UNL     1      -0.539  11.005  22.075  0.00  0.00    +0.000 A 
ATOM     20  C   UNL     1      -0.177  11.026  20.715  0.00  0.00    +0.000 A 
ATOM     21  C   UNL     1       0.517   9.959  20.119  0.00  0.00    +0.000 A 
BRANCH  19  22
ATOM     22  C   UNL     1      -1.283  12.113  22.715  0.00  0.00    +0.000 A 
ATOM     23  C   UNL     1      -2.560  11.904  23.274  0.00  0.00    +0.000 A 
ATOM     24  C   UNL     1      -3.301  12.951  23.824  0.00  0.00    +0.000 A 
ATOM     25  C   UNL     1      -2.771  14.236  23.851  0.00  0.00    +0.000 A 
ATOM     26  C   UNL     1      -1.502  14.470  23.328  0.00  0.00    +0.000 A 
ATOM     27  C   UNL     1      -0.770  13.420  22.763  0.00  0.00    +0.000 A 
ENDBRANCH  19  22
ENDBRANCH   2  16
TORSDOF 3
ENDMDL
MODEL 2
REMARK VINA RESULT:      -8.6      1.918     10.326
REMARK  Name = 
REMARK  4 active torsions:
REMARK  status: ('A' for Active; 'I' for Inactive)
REMARK    1  A    between atoms: C_1  and  N_2
REMARK    2  A    between atoms: C_9  and  N_10
REMARK    3  A    between atoms: C_11  and  C_13
REMARK    4  A    between atoms: C_16  and  C_17
REMARK                            x       y       z     vdW  Elec       q    Type
REMARK                         _______ _______ _______ _____ _____    ______ ____
ROOT
ATOM      1  N   UNL     1       2.258   7.569  18.800  0.00  0.00    +0.000 N 
ATOM      2  C   UNL     1       3.079   6.479  19.016  0.00  0.00    +0.000 C 
ATOM      3  O   UNL     1       3.281   5.925  20.094  0.00  0.00    +0.000 OA
ATOM      4  H   UNL     1       2.077   7.867  17.853  0.00  0.00    +0.000 HD
ENDROOT
BRANCH   1  13
ATOM      5  C   UNL     1      -0.253  12.017  18.717  0.00  0.00    +0.000 C 
ATOM      6  N   UNL     1      -0.177  11.591  20.110  0.00  0.00    +0.000 N 
ATOM      7  C   UNL     1      -1.189  12.149  21.011  0.00  0.00    +0.000 C 
ATOM      8  C   UNL     1      -0.780  11.969  22.462  0.00  0.00    +0.000 C 
ATOM      9  C   UNL     1      -0.646  10.491  22.766  0.00  0.00    +0.000 C 
ATOM     10  C   UNL     1       0.174   9.785  21.718  0.00  0.00    +0.000 A 
ATOM     11  C   UNL     1       0.720   8.539  22.050  0.00  0.00    +0.000 A 
ATOM     12  C   UNL     1       1.424   7.803  21.105  0.00  0.00    +0.000 A 
ATOM     13  C   UNL     1       1.586   8.293  19.814  0.00  0.00    +0.000 A 
ATOM     14  C   UNL     1       1.077   9.562  19.498  0.00  0.00    +0.000 A 
ATOM     15  C   UNL     1       0.339  10.327  20.423  0.00  0.00    +0.000 A 
ENDBRANCH   1  13
BRANCH   2  16
ATOM     16  C   UNL     1       3.792   5.931  17.830  0.00  0.00    +0.000 A 
ATOM     17  C   UNL     1       4.462   6.854  17.022  0.00  0.00    +0.000 A 
ATOM     18  C   UNL     1       5.146   6.433  15.884  0.00  0.00    +0.000 A 
ATOM     19  C   UNL     1       5.212   5.075  15.526  0.00  0.00    +0.000 A 
ATOM     20  C   UNL     1       4.549   4.157  16.363  0.00  0.00    +0.000 A 
ATOM     21  C   UNL     1       3.844   4.574  17.504  0.00  0.00    +0.000 A 
BRANCH  19  22
ATOM     22  C   UNL     1       5.947   4.654  14.312  0.00  0.00    +0.000 A 
ATOM     23  C   UNL     1       7.190   5.230  13.980  0.00  0.00    +0.000 A 
ATOM     24  C   UNL     1       7.866   4.889  12.806  0.00  0.00    +0.000 A 
ATOM     25  C   UNL     1       7.325   3.943  11.944  0.00  0.00    +0.000 A 
ATOM     26  C   UNL     1       6.110   3.339  12.257  0.00  0.00    +0.000 A 
ATOM     27  C   UNL     1       5.429   3.695  13.426  0.00  0.00    +0.000 A 
ENDBRANCH  19  22
ENDBRANCH   2  16
TORSDOF 3
ENDMDL
MODEL 3
REMARK VINA RESULT:      -8.4      0.299      1.353
REMARK  Name = 
REMARK  4 active torsions:
REMARK  status: ('A' for Active; 'I' for Inactive)
REMARK    1  A    between atoms: C_1  and  N_2
REMARK    2  A    between atoms: C_9  and  N_10
REMARK    3  A    between atoms: C_11  and  C_13
REMARK    4  A    between atoms: C_16  and  C_17
REMARK                            x       y       z     vdW  Elec       q    Type
REMARK                         _______ _______ _______ _____ _____    ______ ____
ROOT
ATOM      1  N   UNL     1       2.267   7.611  19.236  0.00  0.00    +0.000 N 
ATOM      2  C   UNL     1       1.599   7.372  20.422  0.00  0.00    +0.000 C 
ATOM      3  O   UNL     1       1.540   6.298  21.017  0.00  0.00    +0.000 OA
ATOM      4  H   UNL     1       2.344   8.558  18.899  0.00  0.00    +0.000 HD
ENDROOT
BRANCH   1  13
ATOM      5  C   UNL     1       7.003   7.337  17.341  0.00  0.00    +0.000 C 
ATOM      6  N   UNL     1       6.258   6.204  16.803  0.00  0.00    +0.000 N 
ATOM      7  C   UNL     1       7.057   5.061  16.355  0.00  0.00    +0.000 C 
ATOM      8  C   UNL     1       6.237   4.143  15.466  0.00  0.00    +0.000 C 
ATOM      9  C   UNL     1       5.055   3.609  16.250  0.00  0.00    +0.000 C 
ATOM     10  C   UNL     1       4.327   4.715  16.970  0.00  0.00    +0.000 A 
ATOM     11  C   UNL     1       3.017   4.462  17.394  0.00  0.00    +0.000 A 
ATOM     12  C   UNL     1       2.317   5.412  18.127  0.00  0.00    +0.000 A 
ATOM     13  C   UNL     1       2.916   6.623  18.457  0.00  0.00    +0.000 A 
ATOM     14  C   UNL     1       4.212   6.891  17.991  0.00  0.00    +0.000 A 
ATOM     15  C   UNL     1       4.960   5.944  17.264  0.00  0.00    +0.000 A 
ENDBRANCH   1  13
BRANCH   2  16
ATOM     16  C   UNL     1       0.875   8.522  21.028  0.00  0.00    +0.000 A 
ATOM     17  C   UNL     1       0.825   9.697  20.273  0.00  0.00    +0.000 A 
ATOM     18  C   UNL     1       0.180  10.829  20.766  0.00  0.00    +0.000 A 
ATOM     19  C   UNL     1      -0.462  10.822  22.017  0.00  0.00    +0.000 A 
ATOM     20  C   UNL     1      -0.420   9.624  22.755  0.00  0.00    +0.000 A 
ATOM     21  C   UNL     1       0.242   8.482  22.272  0.00  0.00    +0.000 A 
BRANCH  19  22
ATOM     22  C   UNL     1      -1.142  12.038  22.517  0.00  0.00    +0.000 A 
ATOM     23  C   UNL     1      -0.537  13.306  22.407  0.00  0.00    +0.000 A 
ATOM     24  C   UNL     1      -1.137  14.453  22.931  0.00  0.00    +0.000 A 
ATOM     25  C   UNL     1      -2.374  14.364  23.558  0.00  0.00    +0.000 A 
ATOM     26  C   UNL     1      -3.008  13.129  23.660  0.00  0.00    +0.000 A 
ATOM     27  C   UNL     1      -2.396  11.980  23.149  0.00  0.00    +0.000 A 
ENDBRANCH  19  22
ENDBRANCH   2  16
TORSDOF 3
ENDMDL
MODEL 4
REMARK VINA RESULT:      -8.3      1.084      1.470
REMARK  Name = 
REMARK  4 active torsions:
REMARK  status: ('A' for Active; 'I' for Inactive)
REMARK    1  A    between atoms: C_1  and  N_2
REMARK    2  A    between atoms: C_9  and  N_10
REMARK    3  A    between atoms: C_11  and  C_13
REMARK    4  A    between atoms: C_16  and  C_17
REMARK                            x       y       z     vdW  Elec       q    Type
REMARK                         _______ _______ _______ _____ _____    ______ ____
ROOT
ATOM      1  N   UNL     1       2.177   7.323  19.044  0.00  0.00    +0.000 N 
ATOM      2  C   UNL     1       1.745   8.556  18.595  0.00  0.00    +0.000 C 
ATOM      3  O   UNL     1       1.873   8.998  17.455  0.00  0.00    +0.000 OA
ATOM      4  H   UNL     1       1.915   7.019  19.969  0.00  0.00    +0.000 HD
ENDROOT
BRANCH   1  13
ATOM      5  C   UNL     1       6.993   7.441  17.345  0.00  0.00    +0.000 C 
ATOM      6  N   UNL     1       6.360   6.262  16.763  0.00  0.00    +0.000 N 
ATOM      7  C   UNL     1       7.262   5.191  16.335  0.00  0.00    +0.000 C 
ATOM      8  C   UNL     1       6.552   4.226  15.401  0.00  0.00    +0.000 C 
ATOM      9  C   UNL     1       5.384   3.592  16.129  0.00  0.00    +0.000 C 
ATOM     10  C   UNL     1       4.545   4.628  16.830  0.00  0.00    +0.000 A 
ATOM     11  C   UNL     1       3.241   4.269  17.197  0.00  0.00    +0.000 A 
ATOM     12  C   UNL     1       2.441   5.152  17.912  0.00  0.00    +0.000 A 
ATOM     13  C   UNL     1       2.931   6.400  18.281  0.00  0.00    +0.000 A 
ATOM     14  C   UNL     1       4.221   6.773  17.873  0.00  0.00    +0.000 A 
ATOM     15  C   UNL     1       5.069   5.897  17.166  0.00  0.00    +0.000 A 
ENDBRANCH   1  13
BRANCH   2  16
ATOM     16  C   UNL     1       1.071   9.434  19.590  0.00  0.00    +0.000 A 
ATOM     17  C   UNL     1       0.454  10.584  19.092  0.00  0.00    +0.000 A 
ATOM     18  C   UNL     1      -0.191  11.471  19.952  0.00  0.00    +0.000 A 
ATOM     19  C   UNL     1      -0.268  11.228  21.334  0.00  0.00    +0.000 A 
ATOM     20  C   UNL     1       0.341  10.053  21.816  0.00  0.00    +0.000 A 
ATOM     21  C   UNL     1       1.007   9.162  20.958  0.00  0.00    +0.000 A 
BRANCH  19  22
ATOM     22  C   UNL     1      -0.961  12.185  22.226  0.00  0.00    +0.000 A 
ATOM     23  C   UNL     1      -2.176  11.845  22.854  0.00  0.00    +0.000 A 
ATOM     24  C   UNL     1      -2.873  12.758  23.646  0.00  0.00    +0.000 A 
ATOM     25  C   UNL     1      -2.359  14.033  23.852  0.00  0.00    +0.000 A 
ATOM     26  C   UNL     1      -1.148  14.391  23.265  0.00  0.00    +0.000 A 
ATOM     27  C   UNL     1      -0.461  13.477  22.458  0.00  0.00    +0.000 A 
ENDBRANCH  19  22
ENDBRANCH   2  16
TORSDOF 3
ENDMDL
MODEL 5
REMARK VINA RESULT:      -8.2      5.375      8.681
REMARK  Name = 
REMARK  4 active torsions:
REMARK  status: ('A' for Active; 'I' for Inactive)
REMARK    1  A    between atoms: C_1  and  N_2
REMARK    2  A    between atoms: C_9  and  N_10
REMARK    3  A    between atoms: C_11  and  C_13
REMARK    4  A    between atoms: C_16  and  C_17
REMARK                            x       y       z     vdW  Elec       q    Type
REMARK                         _______ _______ _______ _____ _____    ______ ____
ROOT
ATOM      1  N   UNL     1       7.118   8.165  17.263  0.00  0.00    +0.000 N 
ATOM      2  C   UNL     1       8.112   8.401  18.193  0.00  0.00    +0.000 C 
ATOM      3  O   UNL     1       8.612   7.569  18.947  0.00  0.00    +0.000 OA
ATOM      4  H   UNL     1       6.866   8.898  16.618  0.00  0.00    +0.000 HD
ENDROOT
BRANCH   1  13
ATOM      5  C   UNL     1       2.475   6.610  18.721  0.00  0.00    +0.000 C 
ATOM      6  N   UNL     1       3.163   5.450  18.165  0.00  0.00    +0.000 N 
ATOM      7  C   UNL     1       2.306   4.367  17.676  0.00  0.00    +0.000 C 
ATOM      8  C   UNL     1       3.101   3.084  17.505  0.00  0.00    +0.000 C 
ATOM      9  C   UNL     1       4.201   3.308  16.486  0.00  0.00    +0.000 C 
ATOM     10  C   UNL     1       4.970   4.571  16.774  0.00  0.00    +0.000 A 
ATOM     11  C   UNL     1       6.235   4.709  16.191  0.00  0.00    +0.000 A 
ATOM     12  C   UNL     1       6.964   5.880  16.356  0.00  0.00    +0.000 A 
ATOM     13  C   UNL     1       6.439   6.934  17.095  0.00  0.00    +0.000 A 
ATOM     14  C   UNL     1       5.190   6.775  17.716  0.00  0.00    +0.000 A 
ATOM     15  C   UNL     1       4.413   5.611  17.553  0.00  0.00    +0.000 A 
ENDBRANCH   1  13
BRANCH   2  16
ATOM     16  C   UNL     1       8.616   9.797  18.296  0.00  0.00    +0.000 A 
ATOM     17  C   UNL     1       9.627  10.029  19.232  0.00  0.00    +0.000 A 
ATOM     18  C   UNL     1      10.151  11.309  19.406  0.00  0.00    +0.000 A 
ATOM     19  C   UNL     1       9.706  12.396  18.633  0.00  0.00    +0.000 A 
ATOM     20  C   UNL     1       8.703  12.139  17.680  0.00  0.00    +0.000 A 
ATOM     21  C   UNL     1       8.158  10.856  17.509  0.00  0.00    +0.000 A 
BRANCH  19  22
ATOM     22  C   UNL     1      10.281  13.745  18.836  0.00  0.00    +0.000 A 
ATOM     23  C   UNL     1       9.930  14.819  17.994  0.00  0.00    +0.000 A 
ATOM     24  C   UNL     1      10.511  16.081  18.134  0.00  0.00    +0.000 A 
ATOM     25  C   UNL     1      11.444  16.308  19.138  0.00  0.00    +0.000 A 
ATOM     26  C   UNL     1      11.794  15.273  20.001  0.00  0.00    +0.000 A 
ATOM     27  C   UNL     1      11.222  14.006  19.847  0.00  0.00    +0.000 A 
ENDBRANCH  19  22
ENDBRANCH   2  16
TORSDOF 3
ENDMDL
MODEL 6
REMARK VINA RESULT:      -8.1      1.565      2.626
REMARK  Name = 
REMARK  4 active torsions:
REMARK  status: ('A' for Active; 'I' for Inactive)
REMARK    1  A    between atoms: C_1  and  N_2
REMARK    2  A    between atoms: C_9  and  N_10
REMARK    3  A    between atoms: C_11  and  C_13
REMARK    4  A    between atoms: C_16  and  C_17
REMARK                            x       y       z     vdW  Elec       q    Type
REMARK                         _______ _______ _______ _____ _____    ______ ____
ROOT
ATOM      1  N   UNL     1       1.789   8.314  19.563  0.00  0.00    +0.000 N 
ATOM      2  C   UNL     1       1.358   8.241  20.874  0.00  0.00    +0.000 C 
ATOM      3  O   UNL     1       1.562   7.313  21.654  0.00  0.00    +0.000 OA
ATOM      4  H   UNL     1       1.664   9.175  19.053  0.00  0.00    +0.000 HD
ENDROOT
BRANCH   1  13
ATOM      5  C   UNL     1       1.073   3.256  19.493  0.00  0.00    +0.000 C 
ATOM      6  N   UNL     1       2.285   3.530  18.729  0.00  0.00    +0.000 N 
ATOM      7  C   UNL     1       2.677   2.510  17.753  0.00  0.00    +0.000 C 
ATOM      8  C   UNL     1       4.122   2.697  17.326  0.00  0.00    +0.000 C 
ATOM      9  C   UNL     1       4.281   4.055  16.673  0.00  0.00    +0.000 C 
ATOM     10  C   UNL     1       3.655   5.143  17.506  0.00  0.00    +0.000 A 
ATOM     11  C   UNL     1       4.055   6.462  17.260  0.00  0.00    +0.000 A 
ATOM     12  C   UNL     1       3.462   7.518  17.941  0.00  0.00    +0.000 A 
ATOM     13  C   UNL     1       2.456   7.276  18.870  0.00  0.00    +0.000 A 
ATOM     14  C   UNL     1       2.090   5.950  19.147  0.00  0.00    +0.000 A 
ATOM     15  C   UNL     1       2.653   4.855  18.461  0.00  0.00    +0.000 A 
ENDBRANCH   1  13
BRANCH   2  16
ATOM     16  C   UNL     1       0.566   9.393  21.384  0.00  0.00    +0.000 A 
ATOM     17  C   UNL     1      -0.081   9.212  22.609  0.00  0.00    +0.000 A 
ATOM     18  C   UNL     1      -0.856  10.233  23.158  0.00  0.00    +0.000 A 
ATOM     19  C   UNL     1      -0.989  11.478  22.520  0.00  0.00    +0.000 A 
ATOM     20  C   UNL     1      -0.313  11.650  21.297  0.00  0.00    +0.000 A 
ATOM     21  C   UNL     1       0.457  10.621  20.729  0.00  0.00    +0.000 A 
BRANCH  19  22
ATOM     22  C   UNL     1      -1.817  12.546  23.125  0.00  0.00    +0.000 A 
ATOM     23  C   UNL     1      -1.285  13.829  23.365  0.00  0.00    +0.000 A 
ATOM     24  C   UNL     1      -2.033  14.827  23.993  0.00  0.00    +0.000 A 
ATOM     25  C   UNL     1      -3.344  14.574  24.376  0.00  0.00    +0.000 A 
ATOM     26  C   UNL     1      -3.905  13.324  24.131  0.00  0.00    +0.000 A 
ATOM     27  C   UNL     1      -3.147  12.321  23.516  0.00  0.00    +0.000 A 
ENDBRANCH  19  22
ENDBRANCH   2  16
TORSDOF 3
ENDMDL
MODEL 7
REMARK VINA RESULT:      -8.1      3.707      9.254
REMARK  Name = 
REMARK  4 active torsions:
REMARK  status: ('A' for Active; 'I' for Inactive)
REMARK    1  A    between atoms: C_1  and  N_2
REMARK    2  A    between atoms: C_9  and  N_10
REMARK    3  A    between atoms: C_11  and  C_13
REMARK    4  A    between atoms: C_16  and  C_17
REMARK                            x       y       z     vdW  Elec       q    Type
REMARK                         _______ _______ _______ _____ _____    ______ ____
ROOT
ATOM      1  N   UNL     1       1.323  10.811  18.813  0.00  0.00    +0.000 N 
ATOM      2  C   UNL     1       1.239   9.994  19.924  0.00  0.00    +0.000 C 
ATOM      3  O   UNL     1       0.896  10.339  21.053  0.00  0.00    +0.000 OA
ATOM      4  H   UNL     1       1.503  10.396  17.912  0.00  0.00    +0.000 HD
ENDROOT
BRANCH   1  13
ATOM      5  C   UNL     1       4.536  14.716  18.085  0.00  0.00    +0.000 C 
ATOM      6  N   UNL     1       3.254  15.282  18.489  0.00  0.00    +0.000 N 
ATOM      7  C   UNL     1       3.014  16.675  18.101  0.00  0.00    +0.000 C 
ATOM      8  C   UNL     1       1.867  17.268  18.900  0.00  0.00    +0.000 C 
ATOM      9  C   UNL     1       0.602  16.480  18.623  0.00  0.00    +0.000 C 
ATOM     10  C   UNL     1       0.840  14.998  18.743  0.00  0.00    +0.000 A 
ATOM     11  C   UNL     1      -0.277  14.171  18.915  0.00  0.00    +0.000 A 
ATOM     12  C   UNL     1      -0.134  12.790  18.958  0.00  0.00    +0.000 A 
ATOM     13  C   UNL     1       1.122  12.212  18.819  0.00  0.00    +0.000 A 
ATOM     14  C   UNL     1       2.246  13.044  18.692  0.00  0.00    +0.000 A 
ATOM     15  C   UNL     1       2.137  14.448  18.623  0.00  0.00    +0.000 A 
ENDBRANCH   1  13
BRANCH   2  16
ATOM     16  C   UNL     1       1.606   8.564  19.735  0.00  0.00    +0.000 A 
ATOM     17  C   UNL     1       2.134   8.214  18.490  0.00  0.00    +0.000 A 
ATOM     18  C   UNL     1       2.495   6.895  18.219  0.00  0.00    +0.000 A 
ATOM     19  C   UNL     1       2.368   5.885  19.189  0.00  0.00    +0.000 A 
ATOM     20  C   UNL     1       1.854   6.260  20.445  0.00  0.00    +0.000 A 
ATOM     21  C   UNL     1       1.473   7.584  20.721  0.00  0.00    +0.000 A 
BRANCH  19  22
ATOM     22  C   UNL     1       2.760   4.492  18.876  0.00  0.00    +0.000 A 
ATOM     23  C   UNL     1       2.201   3.810  17.776  0.00  0.00    +0.000 A 
ATOM     24  C   UNL     1       2.513   2.477  17.505  0.00  0.00    +0.000 A 
ATOM     25  C   UNL     1       3.413   1.796  18.317  0.00  0.00    +0.000 A 
ATOM     26  C   UNL     1       4.000   2.451  19.396  0.00  0.00    +0.000 A 
ATOM     27  C   UNL     1       3.672   3.782  19.673  0.00  0.00    +0.000 A 
ENDBRANCH  19  22
ENDBRANCH   2  16
TORSDOF 3
ENDMDL
MODEL 8
REMARK VINA RESULT:      -8.0      5.321      8.630
REMARK  Name = 
REMARK  4 active torsions:
REMARK  status: ('A' for Active; 'I' for Inactive)
REMARK    1  A    between atoms: C_1  and  N_2
REMARK    2  A    between atoms: C_9  and  N_10
REMARK    3  A    between atoms: C_11  and  C_13
REMARK    4  A    between atoms: C_16  and  C_17
REMARK                            x       y       z     vdW  Elec       q    Type
REMARK                         _______ _______ _______ _____ _____    ______ ____
ROOT
ATOM      1  N   UNL     1       7.102   8.108  17.345  0.00  0.00    +0.000 N 
ATOM      2  C   UNL     1       8.116   8.284  18.267  0.00  0.00    +0.000 C 
ATOM      3  O   UNL     1       8.604   7.413  18.983  0.00  0.00    +0.000 OA
ATOM      4  H   UNL     1       6.861   8.870  16.729  0.00  0.00    +0.000 HD
ENDROOT
BRANCH   1  13
ATOM      5  C   UNL     1       2.454   6.618  18.852  0.00  0.00    +0.000 C 
ATOM      6  N   UNL     1       3.097   5.463  18.234  0.00  0.00    +0.000 N 
ATOM      7  C   UNL     1       2.201   4.423  17.723  0.00  0.00    +0.000 C 
ATOM      8  C   UNL     1       2.957   3.128  17.482  0.00  0.00    +0.000 C 
ATOM      9  C   UNL     1       4.038   3.364  16.447  0.00  0.00    +0.000 C 
ATOM     10  C   UNL     1       4.847   4.594  16.766  0.00  0.00    +0.000 A 
ATOM     11  C   UNL     1       6.102   4.723  16.159  0.00  0.00    +0.000 A 
ATOM     12  C   UNL     1       6.866   5.867  16.352  0.00  0.00    +0.000 A 
ATOM     13  C   UNL     1       6.386   6.903  17.145  0.00  0.00    +0.000 A 
ATOM     14  C   UNL     1       5.148   6.752  17.789  0.00  0.00    +0.000 A 
ATOM     15  C   UNL     1       4.337   5.616  17.599  0.00  0.00    +0.000 A 
ENDBRANCH   1  13
BRANCH   2  16
ATOM     16  C   UNL     1       8.660   9.662  18.410  0.00  0.00    +0.000 A 
ATOM     17  C   UNL     1       8.145  10.631  17.545  0.00  0.00    +0.000 A 
ATOM     18  C   UNL     1       8.605  11.945  17.599  0.00  0.00    +0.000 A 
ATOM     19  C   UNL     1       9.574  12.346  18.536  0.00  0.00    +0.000 A 
ATOM     20  C   UNL     1      10.066  11.361  19.414  0.00  0.00    +0.000 A 
ATOM     21  C   UNL     1       9.620  10.030  19.356  0.00  0.00    +0.000 A 
BRANCH  19  22
ATOM     22  C   UNL     1      10.045  13.749  18.574  0.00  0.00    +0.000 A 
ATOM     23  C   UNL     1      11.330  14.072  19.055  0.00  0.00    +0.000 A 
ATOM     24  C   UNL     1      11.764  15.395  19.156  0.00  0.00    +0.000 A 
ATOM     25  C   UNL     1      10.930  16.431  18.754  0.00  0.00    +0.000 A 
ATOM     26  C   UNL     1       9.664  16.143  18.251  0.00  0.00    +0.000 A 
ATOM     27  C   UNL     1       9.227  14.816  18.167  0.00  0.00    +0.000 A 
ENDBRANCH  19  22
ENDBRANCH   2  16
TORSDOF 3
ENDMDL
MODEL 9
REMARK VINA RESULT:      -8.0      2.610     10.373
REMARK  Name = 
REMARK  4 active torsions:
REMARK  status: ('A' for Active; 'I' for Inactive)
REMARK    1  A    between atoms: C_1  and  N_2
REMARK    2  A    between atoms: C_9  and  N_10
REMARK    3  A    between atoms: C_11  and  C_13
REMARK    4  A    between atoms: C_16  and  C_17
REMARK                            x       y       z     vdW  Elec       q    Type
REMARK                         _______ _______ _______ _____ _____    ______ ____
ROOT
ATOM      1  N   UNL     1      -0.240  11.084  21.833  0.00  0.00    +0.000 N 
ATOM      2  C   UNL     1      -0.230  10.932  20.459  0.00  0.00    +0.000 C 
ATOM      3  O   UNL     1      -0.849  11.619  19.649  0.00  0.00    +0.000 OA
ATOM      4  H   UNL     1       0.397  10.537  22.391  0.00  0.00    +0.000 HD
ENDROOT
BRANCH   1  13
ATOM      5  C   UNL     1       0.310  16.068  22.806  0.00  0.00    +0.000 C 
ATOM      6  N   UNL     1      -0.855  15.609  23.555  0.00  0.00    +0.000 N 
ATOM      7  C   UNL     1      -1.831  16.638  23.923  0.00  0.00    +0.000 C 
ATOM      8  C   UNL     1      -2.760  16.136  25.014  0.00  0.00    +0.000 C 
ATOM      9  C   UNL     1      -3.521  14.927  24.509  0.00  0.00    +0.000 C 
ATOM     10  C   UNL     1      -2.599  13.926  23.865  0.00  0.00    +0.000 A 
ATOM     11  C   UNL     1      -3.065  12.614  23.716  0.00  0.00    +0.000 A 
ATOM     12  C   UNL     1      -2.294  11.660  23.064  0.00  0.00    +0.000 A 
ATOM     13  C   UNL     1      -1.051  12.002  22.542  0.00  0.00    +0.000 A 
ATOM     14  C   UNL     1      -0.567  13.305  22.732  0.00  0.00    +0.000 A 
ATOM     15  C   UNL     1      -1.330  14.305  23.369  0.00  0.00    +0.000 A 
ENDBRANCH   1  13
BRANCH   2  16
ATOM     16  C   UNL     1       0.602   9.827  19.912  0.00  0.00    +0.000 A 
ATOM     17  C   UNL     1       0.916   9.894  18.553  0.00  0.00    +0.000 A 
ATOM     18  C   UNL     1       1.680   8.896  17.951  0.00  0.00    +0.000 A 
ATOM     19  C   UNL     1       2.183   7.811  18.691  0.00  0.00    +0.000 A 
ATOM     20  C   UNL     1       1.875   7.770  20.064  0.00  0.00    +0.000 A 
ATOM     21  C   UNL     1       1.092   8.764  20.675  0.00  0.00    +0.000 A 
BRANCH  19  22
ATOM     22  C   UNL     1       2.994   6.764  18.028  0.00  0.00    +0.000 A 
ATOM     23  C   UNL     1       2.623   5.406  18.094  0.00  0.00    +0.000 A 
ATOM     24  C   UNL     1       3.411   4.402  17.529  0.00  0.00    +0.000 A 
ATOM     25  C   UNL     1       4.583   4.734  16.860  0.00  0.00    +0.000 A 
ATOM     26  C   UNL     1       4.964   6.069  16.757  0.00  0.00    +0.000 A 
ATOM     27  C   UNL     1       4.180   7.071  17.339  0.00  0.00    +0.000 A 
ENDBRANCH  19  22
ENDBRANCH   2  16
TORSDOF 3
ENDMDL
