MODEL 1
REMARK VINA RESULT:      -7.4      0.000      0.000
REMARK  Name = 
REMARK  1 active torsions:
REMARK  status: ('A' for Active; 'I' for Inactive)
REMARK    1  A    between atoms: N_2  and  C_4
REMARK                            x       y       z     vdW  Elec       q    Type
REMARK                         _______ _______ _______ _____ _____    ______ ____
ROOT
ATOM      1  C   UNL     1       5.999   4.996  15.141  0.00  0.00    +0.000 A 
ATOM      2  C   UNL     1       5.704   6.258  15.628  0.00  0.00    +0.000 A 
ATOM      3  N   UNL     1       4.867   6.470  16.677  0.00  0.00    +0.000 NA
ATOM      4  C   UNL     1       4.300   5.389  17.268  0.00  0.00    +0.000 A 
ATOM      5  C   UNL     1       4.556   4.082  16.831  0.00  0.00    +0.000 A 
ATOM      6  C   UNL     1       5.419   3.888  15.749  0.00  0.00    +0.000 A 
ATOM      7  S   UNL     1       3.841   2.637  17.578  0.00  0.00    +0.000 S 
ATOM      8  C   UNL     1       2.823   3.331  18.870  0.00  0.00    +0.000 A 
ATOM      9  C   UNL     1       2.104   2.418  19.652  0.00  0.00    +0.000 A 
ATOM     10  C   UNL     1       1.279   2.860  20.682  0.00  0.00    +0.000 A 
ATOM     11  C   UNL     1       1.167   4.222  20.936  0.00  0.00    +0.000 A 
ATOM     12  C   UNL     1       1.884   5.140  20.159  0.00  0.00    +0.000 A 
ATOM     13 BR   UNL     1       1.678   6.987  20.568  0.00  0.00    +0.000 Br
ATOM     14  C   UNL     1       2.726   4.716  19.113  0.00  0.00    +0.000 A 
ATOM     15  N   UNL     1       3.442   5.642  18.337  0.00  0.00    +0.000 N 
ATOM     16  H   UNL     1       3.341   6.625  18.551  0.00  0.00    +0.000 HD
ENDROOT
BRANCH   1  18
ATOM     17  O   UNL     1       6.614   3.978  13.165  0.00  0.00    +0.000 OA
ATOM     18  N   UNL     1       6.903   4.833  14.010  0.00  0.00    +0.000 N 
ATOM     19  O   UNL     1       7.903   5.560  13.966  0.00  0.00    +0.000 OA
ENDBRANCH   1  18
TORSDOF 1
ENDMDL
MODEL 2
REMARK VINA RESULT:      -7.0      4.054      5.565
REMARK  Name = 
REMARK  1 active torsions:
REMARK  status: ('A' for Active; 'I' for Inactive)
REMARK    1  A    between atoms: N_2  and  C_4
REMARK                            x       y       z     vdW  Elec       q    Type
REMARK                         _______ _______ _______ _____ _____    ______ ____
ROOT
ATOM      1  C   UNL     1       3.439   3.309  19.798  0.00  0.00    +0.000 A 
ATOM      2  C   UNL     1       2.765   3.514  20.990  0.00  0.00    +0.000 A 
ATOM      3  N   UNL     1       2.164   4.689  21.309  0.00  0.00    +0.000 NA
ATOM      4  C   UNL     1       2.231   5.704  20.411  0.00  0.00    +0.000 A 
ATOM      5  C   UNL     1       2.892   5.567  19.182  0.00  0.00    +0.000 A 
ATOM      6  C   UNL     1       3.505   4.349  18.876  0.00  0.00    +0.000 A 
ATOM      7  S   UNL     1       3.000   6.865  17.973  0.00  0.00    +0.000 S 
ATOM      8  C   UNL     1       2.122   8.204  18.763  0.00  0.00    +0.000 A 
ATOM      9  C   UNL     1       2.040   9.404  18.041  0.00  0.00    +0.000 A 
ATOM     10  C   UNL     1       1.380  10.507  18.572  0.00  0.00    +0.000 A 
ATOM     11  C   UNL     1       0.796  10.419  19.831  0.00  0.00    +0.000 A 
ATOM     12  C   UNL     1       0.873   9.224  20.556  0.00  0.00    +0.000 A 
ATOM     13 BR   UNL     1       0.051   9.183  22.271  0.00  0.00    +0.000 Br
ATOM     14  C   UNL     1       1.535   8.093  20.039  0.00  0.00    +0.000 A 
ATOM     15  N   UNL     1       1.609   6.897  20.771  0.00  0.00    +0.000 N 
ATOM     16  H   UNL     1       1.171   6.867  21.682  0.00  0.00    +0.000 HD
ENDROOT
BRANCH   1  18
ATOM     17  O   UNL     1       4.992   1.665  20.252  0.00  0.00    +0.000 OA
ATOM     18  N   UNL     1       4.067   2.026  19.514  0.00  0.00    +0.000 N 
ATOM     19  O   UNL     1       3.637   1.378  18.551  0.00  0.00    +0.000 OA
ENDBRANCH   1  18
TORSDOF 1
ENDMDL
MODEL 3
REMARK VINA RESULT:      -7.0      1.958      2.771
REMARK  Name = 
REMARK  1 active torsions:
REMARK  status: ('A' for Active; 'I' for Inactive)
REMARK    1  A    between atoms: N_2  and  C_4
REMARK                            x       y       z     vdW  Elec       q    Type
REMARK                         _______ _______ _______ _____ _____    ______ ____
ROOT
ATOM      1  C   UNL     1       5.965   4.725  15.234  0.00  0.00    +0.000 A 
ATOM      2  C   UNL     1       5.674   3.526  15.862  0.00  0.00    +0.000 A 
ATOM      3  N   UNL     1       4.855   3.435  16.942  0.00  0.00    +0.000 NA
ATOM      4  C   UNL     1       4.302   4.577  17.420  0.00  0.00    +0.000 A 
ATOM      5  C   UNL     1       4.549   5.826  16.833  0.00  0.00    +0.000 A 
ATOM      6  C   UNL     1       5.396   5.896  15.724  0.00  0.00    +0.000 A 
ATOM      7  S   UNL     1       3.841   7.347  17.420  0.00  0.00    +0.000 S 
ATOM      8  C   UNL     1       2.872   6.809  18.819  0.00  0.00    +0.000 A 
ATOM      9  C   UNL     1       2.181   7.808  19.518  0.00  0.00    +0.000 A 
ATOM     10  C   UNL     1       1.400   7.491  20.624  0.00  0.00    +0.000 A 
ATOM     11  C   UNL     1       1.304   6.168  21.042  0.00  0.00    +0.000 A 
ATOM     12  C   UNL     1       1.990   5.164  20.348  0.00  0.00    +0.000 A 
ATOM     13 BR   UNL     1       1.811   3.379  20.981  0.00  0.00    +0.000 Br
ATOM     14  C   UNL     1       2.786   5.461  19.224  0.00  0.00    +0.000 A 
ATOM     15  N   UNL     1       3.472   4.450  18.532  0.00  0.00    +0.000 N 
ATOM     16  H   UNL     1       3.378   3.498  18.860  0.00  0.00    +0.000 HD
ENDROOT
BRANCH   1  18
ATOM     17  O   UNL     1       7.833   5.513  14.133  0.00  0.00    +0.000 OA
ATOM     18  N   UNL     1       6.854   4.759  14.080  0.00  0.00    +0.000 N 
ATOM     19  O   UNL     1       6.573   4.031  13.119  0.00  0.00    +0.000 OA
ENDBRANCH   1  18
TORSDOF 1
ENDMDL
MODEL 4
REMARK VINA RESULT:      -6.7      2.038      2.654
REMARK  Name = 
REMARK  1 active torsions:
REMARK  status: ('A' for Active; 'I' for Inactive)
REMARK    1  A    between atoms: N_2  and  C_4
REMARK                            x       y       z     vdW  Elec       q    Type
REMARK                         _______ _______ _______ _____ _____    ______ ____
ROOT
ATOM      1  C   UNL     1       6.650   4.849  14.423  0.00  0.00    +0.000 A 
ATOM      2  C   UNL     1       6.245   3.540  14.625  0.00  0.00    +0.000 A 
ATOM      3  N   UNL     1       5.350   3.182  15.582  0.00  0.00    +0.000 NA
ATOM      4  C   UNL     1       4.834   4.158  16.370  0.00  0.00    +0.000 A 
ATOM      5  C   UNL     1       5.194   5.504  16.219  0.00  0.00    +0.000 A 
ATOM      6  C   UNL     1       6.118   5.849  15.230  0.00  0.00    +0.000 A 
ATOM      7  S   UNL     1       4.539   6.816  17.223  0.00  0.00    +0.000 S 
ATOM      8  C   UNL     1       3.445   5.946  18.333  0.00  0.00    +0.000 A 
ATOM      9  C   UNL     1       2.768   6.729  19.278  0.00  0.00    +0.000 A 
ATOM     10  C   UNL     1       1.895   6.145  20.190  0.00  0.00    +0.000 A 
ATOM     11  C   UNL     1       1.693   4.769  20.163  0.00  0.00    +0.000 A 
ATOM     12  C   UNL     1       2.364   3.982  19.221  0.00  0.00    +0.000 A 
ATOM     13 BR   UNL     1       2.036   2.108  19.249  0.00  0.00    +0.000 Br
ATOM     14  C   UNL     1       3.252   4.551  18.287  0.00  0.00    +0.000 A 
ATOM     15  N   UNL     1       3.923   3.755  17.344  0.00  0.00    +0.000 N 
ATOM     16  H   UNL     1       3.750   2.759  17.350  0.00  0.00    +0.000 HD
ENDROOT
BRANCH   1  18
ATOM     17  O   UNL     1       7.408   4.724  12.248  0.00  0.00    +0.000 OA
ATOM     18  N   UNL     1       7.616   5.171  13.381  0.00  0.00    +0.000 N 
ATOM     19  O   UNL     1       8.587   5.871  13.698  0.00  0.00    +0.000 OA
ENDBRANCH   1  18
TORSDOF 1
ENDMDL
MODEL 5
REMARK VINA RESULT:      -6.4      4.221      5.578
REMARK  Name = 
REMARK  1 active torsions:
REMARK  status: ('A' for Active; 'I' for Inactive)
REMARK    1  A    between atoms: N_2  and  C_4
REMARK                            x       y       z     vdW  Elec       q    Type
REMARK                         _______ _______ _______ _____ _____    ______ ____
ROOT
ATOM      1  C   UNL     1       3.329   4.531  18.769  0.00  0.00    +0.000 A 
ATOM      2  C   UNL     1       2.891   4.422  20.078  0.00  0.00    +0.000 A 
ATOM      3  N   UNL     1       2.283   5.439  20.742  0.00  0.00    +0.000 NA
ATOM      4  C   UNL     1       2.100   6.611  20.084  0.00  0.00    +0.000 A 
ATOM      5  C   UNL     1       2.514   6.791  18.756  0.00  0.00    +0.000 A 
ATOM      6  C   UNL     1       3.139   5.732  18.094  0.00  0.00    +0.000 A 
ATOM      7  S   UNL     1       2.289   8.304  17.852  0.00  0.00    +0.000 S 
ATOM      8  C   UNL     1       1.491   9.358  19.052  0.00  0.00    +0.000 A 
ATOM      9  C   UNL     1       1.184  10.659  18.630  0.00  0.00    +0.000 A 
ATOM     10  C   UNL     1       0.565  11.558  19.492  0.00  0.00    +0.000 A 
ATOM     11  C   UNL     1       0.248  11.162  20.787  0.00  0.00    +0.000 A 
ATOM     12  C   UNL     1       0.551   9.864  21.215  0.00  0.00    +0.000 A 
ATOM     13 BR   UNL     1       0.088   9.397  23.000  0.00  0.00    +0.000 Br
ATOM     14  C   UNL     1       1.176   8.936  20.359  0.00  0.00    +0.000 A 
ATOM     15  N   UNL     1       1.478   7.635  20.795  0.00  0.00    +0.000 N 
ATOM     16  H   UNL     1       1.231   7.379  21.741  0.00  0.00    +0.000 HD
ENDROOT
BRANCH   1  18
ATOM     17  O   UNL     1       4.770   3.655  17.195  0.00  0.00    +0.000 OA
ATOM     18  N   UNL     1       3.979   3.405  18.112  0.00  0.00    +0.000 N 
ATOM     19  O   UNL     1       3.697   2.267  18.511  0.00  0.00    +0.000 OA
ENDBRANCH   1  18
TORSDOF 1
ENDMDL
MODEL 6
REMARK VINA RESULT:      -6.2      5.354      6.939
REMARK  Name = 
REMARK  1 active torsions:
REMARK  status: ('A' for Active; 'I' for Inactive)
REMARK    1  A    between atoms: N_2  and  C_4
REMARK                            x       y       z     vdW  Elec       q    Type
REMARK                         _______ _______ _______ _____ _____    ______ ____
ROOT
ATOM      1  C   UNL     1       0.785  10.270  20.509  0.00  0.00    +0.000 A 
ATOM      2  C   UNL     1       0.522   9.462  21.602  0.00  0.00    +0.000 A 
ATOM      3  N   UNL     1       0.870   8.150  21.653  0.00  0.00    +0.000 NA
ATOM      4  C   UNL     1       1.503   7.616  20.580  0.00  0.00    +0.000 A 
ATOM      5  C   UNL     1       1.805   8.375  19.440  0.00  0.00    +0.000 A 
ATOM      6  C   UNL     1       1.437   9.723  19.410  0.00  0.00    +0.000 A 
ATOM      7  S   UNL     1       2.639   7.721  18.014  0.00  0.00    +0.000 S 
ATOM      8  C   UNL     1       2.898   6.013  18.466  0.00  0.00    +0.000 A 
ATOM      9  C   UNL     1       3.544   5.210  17.516  0.00  0.00    +0.000 A 
ATOM     10  C   UNL     1       3.790   3.865  17.771  0.00  0.00    +0.000 A 
ATOM     11  C   UNL     1       3.390   3.312  18.983  0.00  0.00    +0.000 A 
ATOM     12  C   UNL     1       2.745   4.108  19.937  0.00  0.00    +0.000 A 
ATOM     13 BR   UNL     1       2.227   3.278  21.569  0.00  0.00    +0.000 Br
ATOM     14  C   UNL     1       2.487   5.473  19.701  0.00  0.00    +0.000 A 
ATOM     15  N   UNL     1       1.841   6.267  20.662  0.00  0.00    +0.000 N 
ATOM     16  H   UNL     1       1.566   5.833  21.534  0.00  0.00    +0.000 HD
ENDROOT
BRANCH   1  18
ATOM     17  O   UNL     1       0.547  12.311  21.558  0.00  0.00    +0.000 OA
ATOM     18  N   UNL     1       0.384  11.671  20.513  0.00  0.00    +0.000 N 
ATOM     19  O   UNL     1      -0.095  12.132  19.469  0.00  0.00    +0.000 OA
ENDBRANCH   1  18
TORSDOF 1
ENDMDL
MODEL 7
REMARK VINA RESULT:      -6.1      4.536      5.773
REMARK  Name = 
REMARK  1 active torsions:
REMARK  status: ('A' for Active; 'I' for Inactive)
REMARK    1  A    between atoms: N_2  and  C_4
REMARK                            x       y       z     vdW  Elec       q    Type
REMARK                         _______ _______ _______ _____ _____    ______ ____
ROOT
ATOM      1  C   UNL     1       3.547   5.523  18.531  0.00  0.00    +0.000 A 
ATOM      2  C   UNL     1       3.132   5.243  19.822  0.00  0.00    +0.000 A 
ATOM      3  N   UNL     1       2.393   6.106  20.566  0.00  0.00    +0.000 NA
ATOM      4  C   UNL     1       2.050   7.295  20.010  0.00  0.00    +0.000 A 
ATOM      5  C   UNL     1       2.432   7.645  18.707  0.00  0.00    +0.000 A 
ATOM      6  C   UNL     1       3.193   6.741  17.961  0.00  0.00    +0.000 A 
ATOM      7  S   UNL     1       2.000   9.186  17.936  0.00  0.00    +0.000 S 
ATOM      8  C   UNL     1       1.070  10.013  19.216  0.00  0.00    +0.000 A 
ATOM      9  C   UNL     1       0.588  11.292  18.905  0.00  0.00    +0.000 A 
ATOM     10  C   UNL     1      -0.146  12.020  19.837  0.00  0.00    +0.000 A 
ATOM     11  C   UNL     1      -0.401  11.473  21.089  0.00  0.00    +0.000 A 
ATOM     12  C   UNL     1       0.077  10.196  21.406  0.00  0.00    +0.000 A 
ATOM     13 BR   UNL     1      -0.313   9.517  23.140  0.00  0.00    +0.000 Br
ATOM     14  C   UNL     1       0.820   9.440  20.478  0.00  0.00    +0.000 A 
ATOM     15  N   UNL     1       1.297   8.159  20.802  0.00  0.00    +0.000 N 
ATOM     16  H   UNL     1       1.090   7.790  21.721  0.00  0.00    +0.000 HD
ENDROOT
BRANCH   1  18
ATOM     17  O   UNL     1       4.827   3.608  18.410  0.00  0.00    +0.000 OA
ATOM     18  N   UNL     1       4.342   4.557  17.784  0.00  0.00    +0.000 N 
ATOM     19  O   UNL     1       4.482   4.749  16.569  0.00  0.00    +0.000 OA
ENDBRANCH   1  18
TORSDOF 1
ENDMDL
MODEL 8
REMARK VINA RESULT:      -6.1      4.910      6.375
REMARK  Name = 
REMARK  1 active torsions:
REMARK  status: ('A' for Active; 'I' for Inactive)
REMARK    1  A    between atoms: N_2  and  C_4
REMARK                            x       y       z     vdW  Elec       q    Type
REMARK                         _______ _______ _______ _____ _____    ______ ____
ROOT
ATOM      1  C   UNL     1       1.110   9.824  19.907  0.00  0.00    +0.000 A 
ATOM      2  C   UNL     1       0.728   9.105  21.028  0.00  0.00    +0.000 A 
ATOM      3  N   UNL     1       1.024   7.791  21.200  0.00  0.00    +0.000 NA
ATOM      4  C   UNL     1       1.727   7.162  20.225  0.00  0.00    +0.000 A 
ATOM      5  C   UNL     1       2.150   7.827  19.066  0.00  0.00    +0.000 A 
ATOM      6  C   UNL     1       1.833   9.179  18.909  0.00  0.00    +0.000 A 
ATOM      7  S   UNL     1       3.077   7.046  17.767  0.00  0.00    +0.000 S 
ATOM      8  C   UNL     1       3.237   5.369  18.358  0.00  0.00    +0.000 A 
ATOM      9  C   UNL     1       3.932   4.481  17.526  0.00  0.00    +0.000 A 
ATOM     10  C   UNL     1       4.108   3.151  17.896  0.00  0.00    +0.000 A 
ATOM     11  C   UNL     1       3.588   2.700  19.104  0.00  0.00    +0.000 A 
ATOM     12  C   UNL     1       2.894   3.582  19.940  0.00  0.00    +0.000 A 
ATOM     13 BR   UNL     1       2.212   2.889  21.575  0.00  0.00    +0.000 Br
ATOM     14  C   UNL     1       2.705   4.933  19.588  0.00  0.00    +0.000 A 
ATOM     15  N   UNL     1       2.008   5.813  20.431  0.00  0.00    +0.000 N 
ATOM     16  H   UNL     1       1.646   5.452  21.304  0.00  0.00    +0.000 HD
ENDROOT
BRANCH   1  18
ATOM     17  O   UNL     1       0.173  11.584  18.748  0.00  0.00    +0.000 OA
ATOM     18  N   UNL     1       0.760  11.232  19.778  0.00  0.00    +0.000 N 
ATOM     19  O   UNL     1       1.073  11.988  20.706  0.00  0.00    +0.000 OA
ENDBRANCH   1  18
TORSDOF 1
ENDMDL
MODEL 9
REMARK VINA RESULT:      -5.9      7.160      9.069
REMARK  Name = 
REMARK  1 active torsions:
REMARK  status: ('A' for Active; 'I' for Inactive)
REMARK    1  A    between atoms: N_2  and  C_4
REMARK                            x       y       z     vdW  Elec       q    Type
REMARK                         _______ _______ _______ _____ _____    ______ ____
ROOT
ATOM      1  C   UNL     1      -0.872  11.209  22.517  0.00  0.00    +0.000 A 
ATOM      2  C   UNL     1      -0.736  10.048  23.260  0.00  0.00    +0.000 A 
ATOM      3  N   UNL     1      -0.066   8.955  22.811  0.00  0.00    +0.000 NA
ATOM      4  C   UNL     1       0.494   9.013  21.577  0.00  0.00    +0.000 A 
ATOM      5  C   UNL     1       0.401  10.156  20.770  0.00  0.00    +0.000 A 
ATOM      6  C   UNL     1      -0.295  11.268  21.252  0.00  0.00    +0.000 A 
ATOM      7  S   UNL     1       1.123  10.281  19.152  0.00  0.00    +0.000 S 
ATOM      8  C   UNL     1       1.876   8.676  18.939  0.00  0.00    +0.000 A 
ATOM      9  C   UNL     1       2.535   8.456  17.722  0.00  0.00    +0.000 A 
ATOM     10  C   UNL     1       3.151   7.236  17.458  0.00  0.00    +0.000 A 
ATOM     11  C   UNL     1       3.111   6.225  18.413  0.00  0.00    +0.000 A 
ATOM     12  C   UNL     1       2.455   6.439  19.631  0.00  0.00    +0.000 A 
ATOM     13 BR   UNL     1       2.441   5.008  20.884  0.00  0.00    +0.000 Br
ATOM     14  C   UNL     1       1.825   7.666  19.920  0.00  0.00    +0.000 A 
ATOM     15  N   UNL     1       1.169   7.874  21.144  0.00  0.00    +0.000 N 
ATOM     16  H   UNL     1       1.161   7.119  21.817  0.00  0.00    +0.000 HD
ENDROOT
BRANCH   1  18
ATOM     17  O   UNL     1      -0.978  13.396  23.242  0.00  0.00    +0.000 OA
ATOM     18  N   UNL     1      -1.606  12.347  23.052  0.00  0.00    +0.000 N 
ATOM     19  O   UNL     1      -2.812  12.194  23.284  0.00  0.00    +0.000 OA
ENDBRANCH   1  18
TORSDOF 1
ENDMDL
