MODEL 1
REMARK VINA RESULT:      -8.9      0.000      0.000
REMARK  Name = 
REMARK  6 active torsions:
REMARK  status: ('A' for Active; 'I' for Inactive)
REMARK    1  A    between atoms: C_10  and  O_11
REMARK    2  A    between atoms: O_11  and  C_12
REMARK    3  A    between atoms: C_12  and  C_13
REMARK    4  A    between atoms: N_16  and  C_17
REMARK    5  A    between atoms: C_22  and  C_23
REMARK    6  A    between atoms: C_23  and  O_25
REMARK                            x       y       z     vdW  Elec       q    Type
REMARK                         _______ _______ _______ _____ _____    ______ ____
ROOT
ATOM      1  O   UNL     1       2.099   7.115  19.921  0.00  0.00    +0.000 OA
ENDROOT
BRANCH   1  11
ATOM      2  N   UNL     1      -1.875  11.674  16.886  0.00  0.00    +0.000 NA
ATOM      3  C   UNL     1      -2.253  11.891  18.099  0.00  0.00    +0.000 C 
ATOM      4  N   UNL     1      -3.615  12.224  18.349  0.00  0.00    +0.000 N 
ATOM      5  N   UNL     1      -1.299  11.822  19.175  0.00  0.00    +0.000 N 
ATOM      6  C   UNL     1      -1.730  11.996  20.576  0.00  0.00    +0.000 C 
ATOM      7  C   UNL     1      -0.548  11.835  21.566  0.00  0.00    +0.000 C 
ATOM      8  C   UNL     1       0.182  10.575  21.198  0.00  0.00    +0.000 A 
ATOM      9  C   UNL     1       0.498   9.568  22.119  0.00  0.00    +0.000 A 
ATOM     10  C   UNL     1       1.155   8.407  21.681  0.00  0.00    +0.000 A 
ATOM     11  C   UNL     1       1.473   8.247  20.322  0.00  0.00    +0.000 A 
ATOM     12  C   UNL     1       1.138   9.261  19.406  0.00  0.00    +0.000 A 
ATOM     13  C   UNL     1       0.510  10.416  19.848  0.00  0.00    +0.000 A 
ATOM     14  C   UNL     1       0.106  11.513  18.911  0.00  0.00    +0.000 C 
ATOM     15  H   UNL     1      -2.531  11.728  16.094  0.00  0.00    +0.000 HD
ATOM     16  H   UNL     1      -4.284  12.294  17.567  0.00  0.00    +0.000 HD
ATOM     17  H   UNL     1      -3.960  12.422  19.296  0.00  0.00    +0.000 HD
ENDBRANCH   1  11
BRANCH   1  18
ATOM     18  C   UNL     1       1.966   5.899  20.564  0.00  0.00    +0.000 C 
BRANCH  18  19
ATOM     19  C   UNL     1       2.035   4.762  19.547  0.00  0.00    +0.000 C 
ATOM     20  C   UNL     1       3.282   3.880  19.755  0.00  0.00    +0.000 C 
ATOM     21  C   UNL     1       4.580   4.588  19.287  0.00  0.00    +0.000 C 
ATOM     22  N   UNL     1       4.432   5.104  17.921  0.00  0.00    +0.000 N 
ATOM     23  C   UNL     1       3.308   6.024  17.742  0.00  0.00    +0.000 C 
ATOM     24  C   UNL     1       2.005   5.299  18.101  0.00  0.00    +0.000 C 
BRANCH  22  25
ATOM     25  C   UNL     1       5.394   4.863  16.850  0.00  0.00    +0.000 A 
ATOM     26  C   UNL     1       4.938   4.230  15.664  0.00  0.00    +0.000 A 
ATOM     27  C   UNL     1       5.783   4.032  14.577  0.00  0.00    +0.000 A 
ATOM     28  N   UNL     1       7.061   4.465  14.621  0.00  0.00    +0.000 NA
ATOM     29  C   UNL     1       7.561   5.083  15.716  0.00  0.00    +0.000 A 
ATOM     30  C   UNL     1       6.772   5.286  16.866  0.00  0.00    +0.000 A 
BRANCH  30  31
ATOM     31  C   UNL     1       7.488   5.856  18.035  0.00  0.00    +0.000 C 
ATOM     32  O   UNL     1       7.748   7.049  18.079  0.00  0.00    +0.000 OA
BRANCH  31  33
ATOM     33  O   UNL     1       8.035   5.047  18.956  0.00  0.00    +0.000 OA
ATOM     34  H   UNL     1       8.890   5.272  19.345  0.00  0.00    +0.000 HD
ENDBRANCH  31  33
ENDBRANCH  30  31
ENDBRANCH  22  25
ENDBRANCH  18  19
ENDBRANCH   1  18
TORSDOF 6
ENDMDL
MODEL 2
REMARK VINA RESULT:      -8.8      0.889      1.218
REMARK  Name = 
REMARK  6 active torsions:
REMARK  status: ('A' for Active; 'I' for Inactive)
REMARK    1  A    between atoms: C_10  and  O_11
REMARK    2  A    between atoms: O_11  and  C_12
REMARK    3  A    between atoms: C_12  and  C_13
REMARK    4  A    between atoms: N_16  and  C_17
REMARK    5  A    between atoms: C_22  and  C_23
REMARK    6  A    between atoms: C_23  and  O_25
REMARK                            x       y       z     vdW  Elec       q    Type
REMARK                         _______ _______ _______ _____ _____    ______ ____
ROOT
ATOM      1  O   UNL     1       1.101   7.677  21.302  0.00  0.00    +0.000 OA
ENDROOT
BRANCH   1  11
ATOM      2  N   UNL     1      -2.135  11.274  16.571  0.00  0.00    +0.000 NA
ATOM      3  C   UNL     1      -2.735  11.760  17.602  0.00  0.00    +0.000 C 
ATOM      4  N   UNL     1      -4.114  12.102  17.501  0.00  0.00    +0.000 N 
ATOM      5  N   UNL     1      -2.008  11.975  18.826  0.00  0.00    +0.000 N 
ATOM      6  C   UNL     1      -2.697  12.462  20.037  0.00  0.00    +0.000 C 
ATOM      7  C   UNL     1      -1.730  12.573  21.243  0.00  0.00    +0.000 C 
ATOM      8  C   UNL     1      -0.965  11.283  21.332  0.00  0.00    +0.000 A 
ATOM      9  C   UNL     1      -0.850  10.532  22.508  0.00  0.00    +0.000 A 
ATOM     10  C   UNL     1      -0.142   9.320  22.491  0.00  0.00    +0.000 A 
ATOM     11  C   UNL     1       0.429   8.853  21.296  0.00  0.00    +0.000 A 
ATOM     12  C   UNL     1       0.295   9.612  20.119  0.00  0.00    +0.000 A 
ATOM     13  C   UNL     1      -0.387  10.819  20.146  0.00  0.00    +0.000 A 
ATOM     14  C   UNL     1      -0.583  11.652  18.916  0.00  0.00    +0.000 C 
ATOM     15  H   UNL     1      -2.625  11.120  15.678  0.00  0.00    +0.000 HD
ATOM     16  H   UNL     1      -4.619  11.967  16.612  0.00  0.00    +0.000 HD
ATOM     17  H   UNL     1      -4.631  12.508  18.291  0.00  0.00    +0.000 HD
ENDBRANCH   1  11
BRANCH   1  18
ATOM     18  C   UNL     1       2.239   7.443  20.556  0.00  0.00    +0.000 C 
BRANCH  18  19
ATOM     19  C   UNL     1       1.981   6.328  19.545  0.00  0.00    +0.000 C 
ATOM     20  C   UNL     1       2.830   5.076  19.842  0.00  0.00    +0.000 C 
ATOM     21  C   UNL     1       4.322   5.283  19.471  0.00  0.00    +0.000 C 
ATOM     22  N   UNL     1       4.455   5.786  18.098  0.00  0.00    +0.000 N 
ATOM     23  C   UNL     1       3.733   7.032  17.840  0.00  0.00    +0.000 C 
ATOM     24  C   UNL     1       2.238   6.808  18.102  0.00  0.00    +0.000 C 
BRANCH  22  25
ATOM     25  C   UNL     1       5.346   5.203  17.100  0.00  0.00    +0.000 A 
ATOM     26  C   UNL     1       4.770   4.509  16.004  0.00  0.00    +0.000 A 
ATOM     27  C   UNL     1       5.555   3.990  14.981  0.00  0.00    +0.000 A 
ATOM     28  N   UNL     1       6.894   4.159  14.998  0.00  0.00    +0.000 NA
ATOM     29  C   UNL     1       7.511   4.816  16.007  0.00  0.00    +0.000 A 
ATOM     30  C   UNL     1       6.781   5.339  17.093  0.00  0.00    +0.000 A 
BRANCH  30  31
ATOM     31  C   UNL     1       7.600   5.918  18.188  0.00  0.00    +0.000 C 
ATOM     32  O   UNL     1       7.939   5.229  19.137  0.00  0.00    +0.000 OA
BRANCH  31  33
ATOM     33  O   UNL     1       7.807   7.243  18.252  0.00  0.00    +0.000 OA
ATOM     34  H   UNL     1       7.064   7.837  18.418  0.00  0.00    +0.000 HD
ENDBRANCH  31  33
ENDBRANCH  30  31
ENDBRANCH  22  25
ENDBRANCH  18  19
ENDBRANCH   1  18
TORSDOF 6
ENDMDL
MODEL 3
REMARK VINA RESULT:      -8.7      4.900      7.193
REMARK  Name = 
REMARK  6 active torsions:
REMARK  status: ('A' for Active; 'I' for Inactive)
REMARK    1  A    between atoms: C_10  and  O_11
REMARK    2  A    between atoms: O_11  and  C_12
REMARK    3  A    between atoms: C_12  and  C_13
REMARK    4  A    between atoms: N_16  and  C_17
REMARK    5  A    between atoms: C_22  and  C_23
REMARK    6  A    between atoms: C_23  and  O_25
REMARK                            x       y       z     vdW  Elec       q    Type
REMARK                         _______ _______ _______ _____ _____    ______ ____
ROOT
ATOM      1  O   UNL     1       7.958   8.653  17.589  0.00  0.00    +0.000 OA
ENDROOT
BRANCH   1  11
ATOM      2  N   UNL     1       5.801  15.064  17.804  0.00  0.00    +0.000 NA
ATOM      3  C   UNL     1       6.573  15.104  18.834  0.00  0.00    +0.000 C 
ATOM      4  N   UNL     1       6.193  15.901  19.951  0.00  0.00    +0.000 N 
ATOM      5  N   UNL     1       7.812  14.371  18.836  0.00  0.00    +0.000 N 
ATOM      6  C   UNL     1       8.672  14.348  20.036  0.00  0.00    +0.000 C 
ATOM      7  C   UNL     1       9.926  13.460  19.827  0.00  0.00    +0.000 C 
ATOM      8  C   UNL     1       9.464  12.149  19.258  0.00  0.00    +0.000 A 
ATOM      9  C   UNL     1       9.827  10.905  19.790  0.00  0.00    +0.000 A 
ATOM     10  C   UNL     1       9.321   9.729  19.214  0.00  0.00    +0.000 A 
ATOM     11  C   UNL     1       8.439   9.801  18.123  0.00  0.00    +0.000 A 
ATOM     12  C   UNL     1       8.074  11.058  17.607  0.00  0.00    +0.000 A 
ATOM     13  C   UNL     1       8.593  12.216  18.166  0.00  0.00    +0.000 A 
ATOM     14  C   UNL     1       8.215  13.579  17.673  0.00  0.00    +0.000 C 
ATOM     15  H   UNL     1       4.914  15.587  17.768  0.00  0.00    +0.000 HD
ATOM     16  H   UNL     1       5.315  16.441  19.929  0.00  0.00    +0.000 HD
ATOM     17  H   UNL     1       6.784  15.978  20.789  0.00  0.00    +0.000 HD
ENDBRANCH   1  11
BRANCH   1  18
ATOM     18  C   UNL     1       7.969   7.439  18.248  0.00  0.00    +0.000 C 
BRANCH  18  19
ATOM     19  C   UNL     1       7.510   6.330  17.305  0.00  0.00    +0.000 C 
ATOM     20  C   UNL     1       6.254   6.736  16.508  0.00  0.00    +0.000 C 
ATOM     21  C   UNL     1       4.979   6.731  17.391  0.00  0.00    +0.000 C 
ATOM     22  N   UNL     1       4.845   5.459  18.112  0.00  0.00    +0.000 N 
ATOM     23  C   UNL     1       5.995   5.119  18.952  0.00  0.00    +0.000 C 
ATOM     24  C   UNL     1       7.246   5.016  18.071  0.00  0.00    +0.000 C 
BRANCH  22  25
ATOM     25  C   UNL     1       3.626   4.659  18.134  0.00  0.00    +0.000 A 
ATOM     26  C   UNL     1       3.556   3.513  17.299  0.00  0.00    +0.000 A 
ATOM     27  C   UNL     1       2.453   2.666  17.320  0.00  0.00    +0.000 A 
ATOM     28  N   UNL     1       1.426   2.907  18.163  0.00  0.00    +0.000 NA
ATOM     29  C   UNL     1       1.429   3.976  18.993  0.00  0.00    +0.000 A 
ATOM     30  C   UNL     1       2.498   4.894  19.000  0.00  0.00    +0.000 A 
BRANCH  30  31
ATOM     31  C   UNL     1       2.304   6.086  19.864  0.00  0.00    +0.000 C 
ATOM     32  O   UNL     1       2.406   7.210  19.398  0.00  0.00    +0.000 OA
BRANCH  31  33
ATOM     33  O   UNL     1       2.218   5.950  21.197  0.00  0.00    +0.000 OA
ATOM     34  H   UNL     1       2.566   5.155  21.622  0.00  0.00    +0.000 HD
ENDBRANCH  31  33
ENDBRANCH  30  31
ENDBRANCH  22  25
ENDBRANCH  18  19
ENDBRANCH   1  18
TORSDOF 6
ENDMDL
MODEL 4
REMARK VINA RESULT:      -8.6      2.806      9.562
REMARK  Name = 
REMARK  6 active torsions:
REMARK  status: ('A' for Active; 'I' for Inactive)
REMARK    1  A    between atoms: C_10  and  O_11
REMARK    2  A    between atoms: O_11  and  C_12
REMARK    3  A    between atoms: C_12  and  C_13
REMARK    4  A    between atoms: N_16  and  C_17
REMARK    5  A    between atoms: C_22  and  C_23
REMARK    6  A    between atoms: C_23  and  O_25
REMARK                            x       y       z     vdW  Elec       q    Type
REMARK                         _______ _______ _______ _____ _____    ______ ____
ROOT
ATOM      1  O   UNL     1       2.489   9.012  17.431  0.00  0.00    +0.000 OA
ENDROOT
BRANCH   1  11
ATOM      2  N   UNL     1       0.451   3.160  20.149  0.00  0.00    +0.000 NA
ATOM      3  C   UNL     1       1.504   2.719  19.552  0.00  0.00    +0.000 C 
ATOM      4  N   UNL     1       1.482   1.411  18.989  0.00  0.00    +0.000 N 
ATOM      5  N   UNL     1       2.689   3.533  19.483  0.00  0.00    +0.000 N 
ATOM      6  C   UNL     1       3.878   3.072  18.739  0.00  0.00    +0.000 C 
ATOM      7  C   UNL     1       5.013   4.128  18.759  0.00  0.00    +0.000 C 
ATOM      8  C   UNL     1       4.409   5.451  18.383  0.00  0.00    +0.000 A 
ATOM      9  C   UNL     1       4.928   6.282  17.382  0.00  0.00    +0.000 A 
ATOM     10  C   UNL     1       4.279   7.487  17.074  0.00  0.00    +0.000 A 
ATOM     11  C   UNL     1       3.102   7.848  17.751  0.00  0.00    +0.000 A 
ATOM     12  C   UNL     1       2.585   6.998  18.745  0.00  0.00    +0.000 A 
ATOM     13  C   UNL     1       3.242   5.818  19.061  0.00  0.00    +0.000 A 
ATOM     14  C   UNL     1       2.719   4.864  20.091  0.00  0.00    +0.000 C 
ATOM     15  H   UNL     1      -0.408   2.596  20.226  0.00  0.00    +0.000 HD
ATOM     16  H   UNL     1       0.635   0.826  19.066  0.00  0.00    +0.000 HD
ATOM     17  H   UNL     1       2.301   1.009  18.518  0.00  0.00    +0.000 HD
ENDBRANCH   1  11
BRANCH   1  18
ATOM     18  C   UNL     1       1.244   9.376  17.906  0.00  0.00    +0.000 C 
BRANCH  18  19
ATOM     19  C   UNL     1       1.394  10.341  19.079  0.00  0.00    +0.000 C 
ATOM     20  C   UNL     1       0.683   9.822  20.345  0.00  0.00    +0.000 C 
ATOM     21  C   UNL     1      -0.860   9.943  20.236  0.00  0.00    +0.000 C 
ATOM     22  N   UNL     1      -1.253  11.301  19.844  0.00  0.00    +0.000 N 
ATOM     23  C   UNL     1      -0.660  11.761  18.587  0.00  0.00    +0.000 C 
ATOM     24  C   UNL     1       0.868  11.747  18.720  0.00  0.00    +0.000 C 
BRANCH  22  25
ATOM     25  C   UNL     1      -2.264  12.091  20.540  0.00  0.00    +0.000 A 
ATOM     26  C   UNL     1      -3.418  12.494  19.819  0.00  0.00    +0.000 A 
ATOM     27  C   UNL     1      -4.453  13.188  20.437  0.00  0.00    +0.000 A 
ATOM     28  N   UNL     1      -4.390  13.473  21.755  0.00  0.00    +0.000 NA
ATOM     29  C   UNL     1      -3.323  13.112  22.506  0.00  0.00    +0.000 A 
ATOM     30  C   UNL     1      -2.224  12.437  21.939  0.00  0.00    +0.000 A 
BRANCH  30  31
ATOM     31  C   UNL     1      -1.072  12.222  22.850  0.00  0.00    +0.000 C 
ATOM     32  O   UNL     1      -0.209  13.078  22.968  0.00  0.00    +0.000 OA
BRANCH  31  33
ATOM     33  O   UNL     1      -0.857  11.015  23.398  0.00  0.00    +0.000 OA
ATOM     34  H   UNL     1      -1.590  10.533  23.802  0.00  0.00    +0.000 HD
ENDBRANCH  31  33
ENDBRANCH  30  31
ENDBRANCH  22  25
ENDBRANCH  18  19
ENDBRANCH   1  18
TORSDOF 6
ENDMDL
MODEL 5
REMARK VINA RESULT:      -8.6      4.118      9.502
REMARK  Name = 
REMARK  6 active torsions:
REMARK  status: ('A' for Active; 'I' for Inactive)
REMARK    1  A    between atoms: C_10  and  O_11
REMARK    2  A    between atoms: O_11  and  C_12
REMARK    3  A    between atoms: C_12  and  C_13
REMARK    4  A    between atoms: N_16  and  C_17
REMARK    5  A    between atoms: C_22  and  C_23
REMARK    6  A    between atoms: C_23  and  O_25
REMARK                            x       y       z     vdW  Elec       q    Type
REMARK                         _______ _______ _______ _____ _____    ______ ____
ROOT
ATOM      1  O   UNL     1       0.793   9.694  20.280  0.00  0.00    +0.000 OA
ENDROOT
BRANCH   1  11
ATOM      2  N   UNL     1       0.885   2.950  20.837  0.00  0.00    +0.000 NA
ATOM      3  C   UNL     1       1.335   3.033  19.633  0.00  0.00    +0.000 C 
ATOM      4  N   UNL     1       0.965   2.035  18.687  0.00  0.00    +0.000 N 
ATOM      5  N   UNL     1       2.220   4.108  19.266  0.00  0.00    +0.000 N 
ATOM      6  C   UNL     1       2.685   4.258  17.873  0.00  0.00    +0.000 C 
ATOM      7  C   UNL     1       3.587   5.508  17.700  0.00  0.00    +0.000 C 
ATOM      8  C   UNL     1       2.882   6.668  18.343  0.00  0.00    +0.000 A 
ATOM      9  C   UNL     1       2.666   7.893  17.700  0.00  0.00    +0.000 A 
ATOM     10  C   UNL     1       1.967   8.913  18.365  0.00  0.00    +0.000 A 
ATOM     11  C   UNL     1       1.470   8.698  19.661  0.00  0.00    +0.000 A 
ATOM     12  C   UNL     1       1.684   7.458  20.290  0.00  0.00    +0.000 A 
ATOM     13  C   UNL     1       2.393   6.461  19.636  0.00  0.00    +0.000 A 
ATOM     14  C   UNL     1       2.624   5.113  20.249  0.00  0.00    +0.000 C 
ATOM     15  H   UNL     1       0.261   2.186  21.133  0.00  0.00    +0.000 HD
ATOM     16  H   UNL     1       0.350   1.256  18.967  0.00  0.00    +0.000 HD
ATOM     17  H   UNL     1       1.312   2.049  17.720  0.00  0.00    +0.000 HD
ENDBRANCH   1  11
BRANCH   1  18
ATOM     18  C   UNL     1      -0.277  10.359  19.713  0.00  0.00    +0.000 C 
BRANCH  18  19
ATOM     19  C   UNL     1      -0.479  11.706  20.403  0.00  0.00    +0.000 C 
ATOM     20  C   UNL     1      -1.195  12.719  19.487  0.00  0.00    +0.000 C 
ATOM     21  C   UNL     1      -0.262  13.252  18.369  0.00  0.00    +0.000 C 
ATOM     22  N   UNL     1       1.002  13.743  18.930  0.00  0.00    +0.000 N 
ATOM     23  C   UNL     1       1.737  12.751  19.716  0.00  0.00    +0.000 C 
ATOM     24  C   UNL     1       0.863  12.294  20.890  0.00  0.00    +0.000 C 
BRANCH  22  25
ATOM     25  C   UNL     1       1.580  15.047  18.622  0.00  0.00    +0.000 A 
ATOM     26  C   UNL     1       2.862  15.090  18.012  0.00  0.00    +0.000 A 
ATOM     27  C   UNL     1       3.441  16.294  17.628  0.00  0.00    +0.000 A 
ATOM     28  N   UNL     1       2.779  17.456  17.806  0.00  0.00    +0.000 NA
ATOM     29  C   UNL     1       1.550  17.490  18.373  0.00  0.00    +0.000 A 
ATOM     30  C   UNL     1       0.917  16.312  18.817  0.00  0.00    +0.000 A 
BRANCH  30  31
ATOM     31  C   UNL     1      -0.366  16.514  19.536  0.00  0.00    +0.000 C 
ATOM     32  O   UNL     1      -0.446  16.288  20.733  0.00  0.00    +0.000 OA
BRANCH  31  33
ATOM     33  O   UNL     1      -1.497  16.749  18.852  0.00  0.00    +0.000 OA
ATOM     34  H   UNL     1      -1.558  16.491  17.923  0.00  0.00    +0.000 HD
ENDBRANCH  31  33
ENDBRANCH  30  31
ENDBRANCH  22  25
ENDBRANCH  18  19
ENDBRANCH   1  18
TORSDOF 6
ENDMDL
MODEL 6
REMARK VINA RESULT:      -8.6      1.359      1.774
REMARK  Name = 
REMARK  6 active torsions:
REMARK  status: ('A' for Active; 'I' for Inactive)
REMARK    1  A    between atoms: C_10  and  O_11
REMARK    2  A    between atoms: O_11  and  C_12
REMARK    3  A    between atoms: C_12  and  C_13
REMARK    4  A    between atoms: N_16  and  C_17
REMARK    5  A    between atoms: C_22  and  C_23
REMARK    6  A    between atoms: C_23  and  O_25
REMARK                            x       y       z     vdW  Elec       q    Type
REMARK                         _______ _______ _______ _____ _____    ______ ____
ROOT
ATOM      1  O   UNL     1       1.439   8.569  20.144  0.00  0.00    +0.000 OA
ENDROOT
BRANCH   1  11
ATOM      2  N   UNL     1      -3.848  12.608  18.910  0.00  0.00    +0.000 NA
ATOM      3  C   UNL     1      -4.024  12.472  20.179  0.00  0.00    +0.000 C 
ATOM      4  N   UNL     1      -5.351  12.418  20.690  0.00  0.00    +0.000 N 
ATOM      5  N   UNL     1      -2.888  12.403  21.061  0.00  0.00    +0.000 N 
ATOM      6  C   UNL     1      -3.071  12.174  22.508  0.00  0.00    +0.000 C 
ATOM      7  C   UNL     1      -1.714  12.089  23.252  0.00  0.00    +0.000 C 
ATOM      8  C   UNL     1      -0.836  11.139  22.488  0.00  0.00    +0.000 A 
ATOM      9  C   UNL     1      -0.161  10.064  23.079  0.00  0.00    +0.000 A 
ATOM     10  C   UNL     1       0.613   9.206  22.282  0.00  0.00    +0.000 A 
ATOM     11  C   UNL     1       0.693   9.414  20.895  0.00  0.00    +0.000 A 
ATOM     12  C   UNL     1      -0.000  10.491  20.313  0.00  0.00    +0.000 A 
ATOM     13  C   UNL     1      -0.746  11.348  21.108  0.00  0.00    +0.000 A 
ATOM     14  C   UNL     1      -1.526  12.493  20.535  0.00  0.00    +0.000 C 
ATOM     15  H   UNL     1      -4.640  12.673  18.254  0.00  0.00    +0.000 HD
ATOM     16  H   UNL     1      -6.158  12.492  20.051  0.00  0.00    +0.000 HD
ATOM     17  H   UNL     1      -5.542  12.326  21.695  0.00  0.00    +0.000 HD
ENDBRANCH   1  11
BRANCH   1  18
ATOM     18  C   UNL     1       1.867   7.331  20.584  0.00  0.00    +0.000 C 
BRANCH  18  19
ATOM     19  C   UNL     1       1.730   6.304  19.463  0.00  0.00    +0.000 C 
ATOM     20  C   UNL     1       2.460   4.987  19.798  0.00  0.00    +0.000 C 
ATOM     21  C   UNL     1       4.000   5.133  19.692  0.00  0.00    +0.000 C 
ATOM     22  N   UNL     1       4.384   5.718  18.402  0.00  0.00    +0.000 N 
ATOM     23  C   UNL     1       3.773   7.019  18.125  0.00  0.00    +0.000 C 
ATOM     24  C   UNL     1       2.247   6.865  18.121  0.00  0.00    +0.000 C 
BRANCH  22  25
ATOM     25  C   UNL     1       5.402   5.154  17.521  0.00  0.00    +0.000 A 
ATOM     26  C   UNL     1       4.980   4.514  16.326  0.00  0.00    +0.000 A 
ATOM     27  C   UNL     1       5.898   4.016  15.408  0.00  0.00    +0.000 A 
ATOM     28  N   UNL     1       7.222   4.154  15.626  0.00  0.00    +0.000 NA
ATOM     29  C   UNL     1       7.696   4.760  16.739  0.00  0.00    +0.000 A 
ATOM     30  C   UNL     1       6.824   5.258  17.728  0.00  0.00    +0.000 A 
BRANCH  30  31
ATOM     31  C   UNL     1       7.484   5.778  18.952  0.00  0.00    +0.000 C 
ATOM     32  O   UNL     1       7.262   5.266  20.039  0.00  0.00    +0.000 OA
BRANCH  31  33
ATOM     33  O   UNL     1       8.169   6.932  18.916  0.00  0.00    +0.000 OA
ATOM     34  H   UNL     1       7.949   7.641  19.535  0.00  0.00    +0.000 HD
ENDBRANCH  31  33
ENDBRANCH  30  31
ENDBRANCH  22  25
ENDBRANCH  18  19
ENDBRANCH   1  18
TORSDOF 6
ENDMDL
MODEL 7
REMARK VINA RESULT:      -8.5      5.917      8.419
REMARK  Name = 
REMARK  6 active torsions:
REMARK  status: ('A' for Active; 'I' for Inactive)
REMARK    1  A    between atoms: C_10  and  O_11
REMARK    2  A    between atoms: O_11  and  C_12
REMARK    3  A    between atoms: C_12  and  C_13
REMARK    4  A    between atoms: N_16  and  C_17
REMARK    5  A    between atoms: C_22  and  C_23
REMARK    6  A    between atoms: C_23  and  O_25
REMARK                            x       y       z     vdW  Elec       q    Type
REMARK                         _______ _______ _______ _____ _____    ______ ____
ROOT
ATOM      1  O   UNL     1       8.917   9.045  17.924  0.00  0.00    +0.000 OA
ENDROOT
BRANCH   1  11
ATOM      2  N   UNL     1      11.023  15.181  15.997  0.00  0.00    +0.000 NA
ATOM      3  C   UNL     1      10.701  15.478  17.208  0.00  0.00    +0.000 C 
ATOM      4  N   UNL     1      10.144  16.760  17.480  0.00  0.00    +0.000 N 
ATOM      5  N   UNL     1      10.929  14.531  18.269  0.00  0.00    +0.000 N 
ATOM      6  C   UNL     1      10.499  14.828  19.649  0.00  0.00    +0.000 C 
ATOM      7  C   UNL     1      10.802  13.651  20.612  0.00  0.00    +0.000 C 
ATOM      8  C   UNL     1      10.295  12.394  19.964  0.00  0.00    +0.000 A 
ATOM      9  C   UNL     1       9.457  11.476  20.609  0.00  0.00    +0.000 A 
ATOM     10  C   UNL     1       9.004  10.343  19.915  0.00  0.00    +0.000 A 
ATOM     11  C   UNL     1       9.372  10.142  18.575  0.00  0.00    +0.000 A 
ATOM     12  C   UNL     1      10.205  11.079  17.936  0.00  0.00    +0.000 A 
ATOM     13  C   UNL     1      10.667  12.186  18.632  0.00  0.00    +0.000 A 
ATOM     14  C   UNL     1      11.532  13.228  17.991  0.00  0.00    +0.000 C 
ATOM     15  H   UNL     1      10.884  15.841  15.219  0.00  0.00    +0.000 HD
ATOM     16  H   UNL     1      10.008  17.440  16.716  0.00  0.00    +0.000 HD
ATOM     17  H   UNL     1       9.887  17.049  18.432  0.00  0.00    +0.000 HD
ENDBRANCH   1  11
BRANCH   1  18
ATOM     18  C   UNL     1       7.805   8.328  18.320  0.00  0.00    +0.000 C 
BRANCH  18  19
ATOM     19  C   UNL     1       7.703   7.036  17.512  0.00  0.00    +0.000 C 
ATOM     20  C   UNL     1       6.509   7.061  16.537  0.00  0.00    +0.000 C 
ATOM     21  C   UNL     1       5.154   6.896  17.273  0.00  0.00    +0.000 C 
ATOM     22  N   UNL     1       5.178   5.726  18.159  0.00  0.00    +0.000 N 
ATOM     23  C   UNL     1       6.250   5.748  19.156  0.00  0.00    +0.000 C 
ATOM     24  C   UNL     1       7.602   5.803  18.436  0.00  0.00    +0.000 C 
BRANCH  22  25
ATOM     25  C   UNL     1       4.147   4.693  18.174  0.00  0.00    +0.000 A 
ATOM     26  C   UNL     1       4.361   3.516  17.410  0.00  0.00    +0.000 A 
ATOM     27  C   UNL     1       3.454   2.462  17.432  0.00  0.00    +0.000 A 
ATOM     28  N   UNL     1       2.352   2.529  18.209  0.00  0.00    +0.000 NA
ATOM     29  C   UNL     1       2.089   3.617  18.970  0.00  0.00    +0.000 A 
ATOM     30  C   UNL     1       2.946   4.735  18.970  0.00  0.00    +0.000 A 
BRANCH  30  31
ATOM     31  C   UNL     1       2.464   5.904  19.748  0.00  0.00    +0.000 C 
ATOM     32  O   UNL     1       2.330   6.992  19.209  0.00  0.00    +0.000 OA
BRANCH  31  33
ATOM     33  O   UNL     1       2.365   5.835  21.085  0.00  0.00    +0.000 OA
ATOM     34  H   UNL     1       3.059   5.397  21.596  0.00  0.00    +0.000 HD
ENDBRANCH  31  33
ENDBRANCH  30  31
ENDBRANCH  22  25
ENDBRANCH  18  19
ENDBRANCH   1  18
TORSDOF 6
ENDMDL
MODEL 8
REMARK VINA RESULT:      -8.5      6.252      8.595
REMARK  Name = 
REMARK  6 active torsions:
REMARK  status: ('A' for Active; 'I' for Inactive)
REMARK    1  A    between atoms: C_10  and  O_11
REMARK    2  A    between atoms: O_11  and  C_12
REMARK    3  A    between atoms: C_12  and  C_13
REMARK    4  A    between atoms: N_16  and  C_17
REMARK    5  A    between atoms: C_22  and  C_23
REMARK    6  A    between atoms: C_23  and  O_25
REMARK                            x       y       z     vdW  Elec       q    Type
REMARK                         _______ _______ _______ _____ _____    ______ ____
ROOT
ATOM      1  O   UNL     1       8.722   9.534  17.978  0.00  0.00    +0.000 OA
ENDROOT
BRANCH   1  11
ATOM      2  N   UNL     1      10.919  15.585  15.894  0.00  0.00    +0.000 NA
ATOM      3  C   UNL     1      10.884  15.837  17.157  0.00  0.00    +0.000 C 
ATOM      4  N   UNL     1      10.512  17.141  17.591  0.00  0.00    +0.000 N 
ATOM      5  N   UNL     1      11.243  14.816  18.106  0.00  0.00    +0.000 N 
ATOM      6  C   UNL     1      11.137  15.065  19.557  0.00  0.00    +0.000 C 
ATOM      7  C   UNL     1      11.528  13.814  20.385  0.00  0.00    +0.000 C 
ATOM      8  C   UNL     1      10.788  12.640  19.811  0.00  0.00    +0.000 A 
ATOM      9  C   UNL     1      10.024  11.755  20.582  0.00  0.00    +0.000 A 
ATOM     10  C   UNL     1       9.337  10.703  19.956  0.00  0.00    +0.000 A 
ATOM     11  C   UNL     1       9.399  10.551  18.561  0.00  0.00    +0.000 A 
ATOM     12  C   UNL     1      10.160  11.455  17.798  0.00  0.00    +0.000 A 
ATOM     13  C   UNL     1      10.854  12.481  18.423  0.00  0.00    +0.000 A 
ATOM     14  C   UNL     1      11.656  13.487  17.655  0.00  0.00    +0.000 C 
ATOM     15  H   UNL     1      10.680  16.299  15.190  0.00  0.00    +0.000 HD
ATOM     16  H   UNL     1      10.280  17.872  16.901  0.00  0.00    +0.000 HD
ATOM     17  H   UNL     1      10.485  17.394  18.586  0.00  0.00    +0.000 HD
ENDBRANCH   1  11
BRANCH   1  18
ATOM     18  C   UNL     1       8.180   8.475  18.681  0.00  0.00    +0.000 C 
BRANCH  18  19
ATOM     19  C   UNL     1       8.065   7.252  17.775  0.00  0.00    +0.000 C 
ATOM     20  C   UNL     1       6.834   7.335  16.850  0.00  0.00    +0.000 C 
ATOM     21  C   UNL     1       5.511   7.087  17.620  0.00  0.00    +0.000 C 
ATOM     22  N   UNL     1       5.586   5.850  18.406  0.00  0.00    +0.000 N 
ATOM     23  C   UNL     1       6.695   5.809  19.361  0.00  0.00    +0.000 C 
ATOM     24  C   UNL     1       8.018   5.947  18.597  0.00  0.00    +0.000 C 
BRANCH  22  25
ATOM     25  C   UNL     1       4.572   4.801  18.375  0.00  0.00    +0.000 A 
ATOM     26  C   UNL     1       3.723   4.650  19.504  0.00  0.00    +0.000 A 
ATOM     27  C   UNL     1       2.691   3.719  19.515  0.00  0.00    +0.000 A 
ATOM     28  N   UNL     1       2.457   2.948  18.431  0.00  0.00    +0.000 NA
ATOM     29  C   UNL     1       3.221   3.044  17.318  0.00  0.00    +0.000 A 
ATOM     30  C   UNL     1       4.305   3.941  17.249  0.00  0.00    +0.000 A 
BRANCH  30  31
ATOM     31  C   UNL     1       5.132   3.844  16.020  0.00  0.00    +0.000 C 
ATOM     32  O   UNL     1       4.945   4.610  15.088  0.00  0.00    +0.000 OA
BRANCH  31  33
ATOM     33  O   UNL     1       5.951   2.797  15.835  0.00  0.00    +0.000 OA
ATOM     34  H   UNL     1       5.673   1.915  16.115  0.00  0.00    +0.000 HD
ENDBRANCH  31  33
ENDBRANCH  30  31
ENDBRANCH  22  25
ENDBRANCH  18  19
ENDBRANCH   1  18
TORSDOF 6
ENDMDL
MODEL 9
REMARK VINA RESULT:      -8.5      1.155      1.671
REMARK  Name = 
REMARK  6 active torsions:
REMARK  status: ('A' for Active; 'I' for Inactive)
REMARK    1  A    between atoms: C_10  and  O_11
REMARK    2  A    between atoms: O_11  and  C_12
REMARK    3  A    between atoms: C_12  and  C_13
REMARK    4  A    between atoms: N_16  and  C_17
REMARK    5  A    between atoms: C_22  and  C_23
REMARK    6  A    between atoms: C_23  and  O_25
REMARK                            x       y       z     vdW  Elec       q    Type
REMARK                         _______ _______ _______ _____ _____    ______ ____
ROOT
ATOM      1  O   UNL     1       1.824   8.750  19.449  0.00  0.00    +0.000 OA
ENDROOT
BRANCH   1  11
ATOM      2  N   UNL     1      -3.222  11.180  15.651  0.00  0.00    +0.000 NA
ATOM      3  C   UNL     1      -3.747  11.406  16.805  0.00  0.00    +0.000 C 
ATOM      4  N   UNL     1      -5.155  11.267  16.963  0.00  0.00    +0.000 N 
ATOM      5  N   UNL     1      -2.916  11.819  17.907  0.00  0.00    +0.000 N 
ATOM      6  C   UNL     1      -3.491  12.011  19.253  0.00  0.00    +0.000 C 
ATOM      7  C   UNL     1      -2.408  12.407  20.289  0.00  0.00    +0.000 C 
ATOM      8  C   UNL     1      -1.261  11.448  20.136  0.00  0.00    +0.000 A 
ATOM      9  C   UNL     1      -0.692  10.747  21.206  0.00  0.00    +0.000 A 
ATOM     10  C   UNL     1       0.356   9.845  20.966  0.00  0.00    +0.000 A 
ATOM     11  C   UNL     1       0.817   9.631  19.657  0.00  0.00    +0.000 A 
ATOM     12  C   UNL     1       0.228  10.333  18.590  0.00  0.00    +0.000 A 
ATOM     13  C   UNL     1      -0.793  11.240  18.835  0.00  0.00    +0.000 A 
ATOM     14  C   UNL     1      -1.474  11.992  17.732  0.00  0.00    +0.000 C 
ATOM     15  H   UNL     1      -3.791  10.895  14.840  0.00  0.00    +0.000 HD
ATOM     16  H   UNL     1      -5.743  10.995  16.161  0.00  0.00    +0.000 HD
ATOM     17  H   UNL     1      -5.621  11.453  17.860  0.00  0.00    +0.000 HD
ENDBRANCH   1  11
BRANCH   1  18
ATOM     18  C   UNL     1       2.052   7.646  20.247  0.00  0.00    +0.000 C 
BRANCH  18  19
ATOM     19  C   UNL     1       1.925   6.369  19.420  0.00  0.00    +0.000 C 
ATOM     20  C   UNL     1       2.937   5.294  19.865  0.00  0.00    +0.000 C 
ATOM     21  C   UNL     1       4.382   5.633  19.413  0.00  0.00    +0.000 C 
ATOM     22  N   UNL     1       4.424   5.938  17.977  0.00  0.00    +0.000 N 
ATOM     23  C   UNL     1       3.539   7.029  17.567  0.00  0.00    +0.000 C 
ATOM     24  C   UNL     1       2.092   6.658  17.913  0.00  0.00    +0.000 C 
BRANCH  22  25
ATOM     25  C   UNL     1       5.367   5.332  17.043  0.00  0.00    +0.000 A 
ATOM     26  C   UNL     1       4.926   4.236  16.255  0.00  0.00    +0.000 A 
ATOM     27  C   UNL     1       5.749   3.656  15.296  0.00  0.00    +0.000 A 
ATOM     28  N   UNL     1       6.987   4.144  15.076  0.00  0.00    +0.000 NA
ATOM     29  C   UNL     1       7.470   5.192  15.783  0.00  0.00    +0.000 A 
ATOM     30  C   UNL     1       6.705   5.807  16.794  0.00  0.00    +0.000 A 
BRANCH  30  31
ATOM     31  C   UNL     1       7.410   6.855  17.574  0.00  0.00    +0.000 C 
ATOM     32  O   UNL     1       7.836   6.611  18.693  0.00  0.00    +0.000 OA
BRANCH  31  33
ATOM     33  O   UNL     1       7.411   8.130  17.152  0.00  0.00    +0.000 OA
ATOM     34  H   UNL     1       7.924   8.793  17.631  0.00  0.00    +0.000 HD
ENDBRANCH  31  33
ENDBRANCH  30  31
ENDBRANCH  22  25
ENDBRANCH  18  19
ENDBRANCH   1  18
TORSDOF 6
ENDMDL
