MODEL 1
REMARK VINA RESULT:      -8.0      0.000      0.000
REMARK  Name = 
REMARK  7 active torsions:
REMARK  status: ('A' for Active; 'I' for Inactive)
REMARK    1  A    between atoms: N_1  and  N_2
REMARK    2  A    between atoms: N_2  and  C_3
REMARK    3  A    between atoms: N_2  and  C_5
REMARK    4  A    between atoms: C_5  and  C_6
REMARK    5  A    between atoms: N_8  and  C_9
REMARK    6  A    between atoms: C_12  and  N_13
REMARK    7  A    between atoms: N_16  and  C_17
REMARK                            x       y       z     vdW  Elec       q    Type
REMARK                         _______ _______ _______ _____ _____    ______ ____
ROOT
ATOM      1  C   UNL     1       2.411   7.163  18.530  0.00  0.00    +0.000 A 
ATOM      2  C   UNL     1       2.084   8.230  17.693  0.00  0.00    +0.000 A 
ATOM      3  C   UNL     1       1.424   9.363  18.189  0.00  0.00    +0.000 A 
ATOM      4  C   UNL     1       1.083   9.496  19.539  0.00  0.00    +0.000 A 
ATOM      5  C   UNL     1       1.441   8.416  20.366  0.00  0.00    +0.000 A 
ATOM      6  F   UNL     1       1.232   8.471  21.693  0.00  0.00    +0.000 F 
ATOM      7  C   UNL     1       2.072   7.268  19.879  0.00  0.00    +0.000 A 
ENDROOT
BRANCH   1  10
ATOM      8  C   UNL     1       4.695   4.506  17.541  0.00  0.00    +0.000 C 
ATOM      9  C   UNL     1       4.399   5.987  17.564  0.00  0.00    +0.000 C 
ATOM     10  N   UNL     1       3.047   6.007  18.030  0.00  0.00    +0.000 N 
ATOM     11  C   UNL     1       2.468   4.765  17.816  0.00  0.00    +0.000 C 
ATOM     12  O   UNL     1       1.307   4.422  17.969  0.00  0.00    +0.000 OA
ATOM     13  O   UNL     1       3.416   3.899  17.326  0.00  0.00    +0.000 OA
BRANCH   8  14
ATOM     14  C   UNL     1       5.669   4.099  16.441  0.00  0.00    +0.000 C 
BRANCH  14  15
ATOM     15  N   UNL     1       7.008   4.678  16.562  0.00  0.00    +0.000 N 
BRANCH  15  16
ATOM     16  N   UNL     1       7.464   5.524  15.521  0.00  0.00    +0.000 NA
ATOM     17  H   UNL     1       7.178   5.098  14.629  0.00  0.00    +0.000 HD
ATOM     18  H   UNL     1       8.488   5.479  15.497  0.00  0.00    +0.000 HD
ENDBRANCH  15  16
BRANCH  15  19
ATOM     19  C   UNL     1       7.724   4.584  17.756  0.00  0.00    +0.000 C 
ATOM     20  S   UNL     1       7.841   5.769  18.930  0.00  0.00    +0.000 S 
ENDBRANCH  15  19
ENDBRANCH  14  15
ENDBRANCH   8  14
ENDBRANCH   1  10
BRANCH   4  21
ATOM     21  N   UNL     1       0.433  10.621  19.997  0.00  0.00    +0.000 N 
ATOM     22  C   UNL     1      -0.753  10.553  20.866  0.00  0.00    +0.000 C 
ATOM     23  C   UNL     1      -0.524  11.361  22.163  0.00  0.00    +0.000 C 
ATOM     24  N   UNL     1      -0.128  12.744  21.829  0.00  0.00    +0.000 N 
ATOM     25  C   UNL     1       1.052  12.834  20.943  0.00  0.00    +0.000 C 
ATOM     26  C   UNL     1       0.865  11.992  19.660  0.00  0.00    +0.000 C 
BRANCH  24  27
ATOM     27  C   UNL     1      -0.819  13.845  22.283  0.00  0.00    +0.000 A 
ATOM     28  C   UNL     1      -1.089  14.939  21.444  0.00  0.00    +0.000 A 
ATOM     29  C   UNL     1      -1.788  16.067  21.890  0.00  0.00    +0.000 A 
ATOM     30  C   UNL     1      -2.243  16.127  23.199  0.00  0.00    +0.000 A 
ATOM     31  C   UNL     1      -1.990  15.059  24.052  0.00  0.00    +0.000 A 
ATOM     32 CL   UNL     1      -2.540  15.123  25.684  0.00  0.00    +0.000 Cl
ATOM     33  C   UNL     1      -1.289  13.935  23.601  0.00  0.00    +0.000 A 
ENDBRANCH  24  27
ENDBRANCH   4  21
TORSDOF 7
ENDMDL
MODEL 2
REMARK VINA RESULT:      -7.9      1.945      2.303
REMARK  Name = 
REMARK  7 active torsions:
REMARK  status: ('A' for Active; 'I' for Inactive)
REMARK    1  A    between atoms: N_1  and  N_2
REMARK    2  A    between atoms: N_2  and  C_3
REMARK    3  A    between atoms: N_2  and  C_5
REMARK    4  A    between atoms: C_5  and  C_6
REMARK    5  A    between atoms: N_8  and  C_9
REMARK    6  A    between atoms: C_12  and  N_13
REMARK    7  A    between atoms: N_16  and  C_17
REMARK                            x       y       z     vdW  Elec       q    Type
REMARK                         _______ _______ _______ _____ _____    ______ ____
ROOT
ATOM      1  C   UNL     1       3.225   6.591  18.500  0.00  0.00    +0.000 A 
ATOM      2  C   UNL     1       2.677   6.465  19.777  0.00  0.00    +0.000 A 
ATOM      3  C   UNL     1       1.825   7.448  20.299  0.00  0.00    +0.000 A 
ATOM      4  C   UNL     1       1.462   8.585  19.568  0.00  0.00    +0.000 A 
ATOM      5  C   UNL     1       2.013   8.679  18.278  0.00  0.00    +0.000 A 
ATOM      6  F   UNL     1       1.669   9.689  17.460  0.00  0.00    +0.000 F 
ATOM      7  C   UNL     1       2.886   7.721  17.756  0.00  0.00    +0.000 A 
ENDROOT
BRANCH   1  10
ATOM      8  C   UNL     1       6.022   4.424  17.642  0.00  0.00    +0.000 C 
ATOM      9  C   UNL     1       5.513   5.835  17.823  0.00  0.00    +0.000 C 
ATOM     10  N   UNL     1       4.108   5.620  17.982  0.00  0.00    +0.000 N 
ATOM     11  C   UNL     1       3.771   4.379  17.462  0.00  0.00    +0.000 C 
ATOM     12  O   UNL     1       2.666   3.887  17.306  0.00  0.00    +0.000 OA
ATOM     13  O   UNL     1       4.913   3.726  17.065  0.00  0.00    +0.000 OA
BRANCH   8  14
ATOM     14  C   UNL     1       7.241   4.331  16.731  0.00  0.00    +0.000 C 
BRANCH  14  15
ATOM     15  N   UNL     1       6.976   4.618  15.321  0.00  0.00    +0.000 N 
BRANCH  15  16
ATOM     16  N   UNL     1       7.738   5.635  14.694  0.00  0.00    +0.000 NA
ATOM     17  H   UNL     1       8.484   5.911  15.348  0.00  0.00    +0.000 HD
ATOM     18  H   UNL     1       7.154   6.475  14.622  0.00  0.00    +0.000 HD
ENDBRANCH  15  16
BRANCH  15  19
ATOM     19  C   UNL     1       6.164   3.779  14.558  0.00  0.00    +0.000 C 
ATOM     20  S   UNL     1       6.169   3.653  12.891  0.00  0.00    +0.000 S 
ENDBRANCH  15  19
ENDBRANCH  14  15
ENDBRANCH   8  14
ENDBRANCH   1  10
BRANCH   4  21
ATOM     21  N   UNL     1       0.624   9.536  20.110  0.00  0.00    +0.000 N 
ATOM     22  C   UNL     1      -0.413   9.206  21.101  0.00  0.00    +0.000 C 
ATOM     23  C   UNL     1      -0.236  10.058  22.377  0.00  0.00    +0.000 C 
ATOM     24  N   UNL     1      -0.207  11.492  22.023  0.00  0.00    +0.000 N 
ATOM     25  C   UNL     1       0.818  11.841  21.016  0.00  0.00    +0.000 C 
ATOM     26  C   UNL     1       0.692  10.965  19.749  0.00  0.00    +0.000 C 
BRANCH  24  27
ATOM     27  C   UNL     1      -1.079  12.410  22.564  0.00  0.00    +0.000 A 
ATOM     28  C   UNL     1      -0.839  13.791  22.475  0.00  0.00    +0.000 A 
ATOM     29  C   UNL     1      -1.714  14.737  23.022  0.00  0.00    +0.000 A 
ATOM     30  C   UNL     1      -2.865  14.319  23.675  0.00  0.00    +0.000 A 
ATOM     31  C   UNL     1      -3.127  12.958  23.779  0.00  0.00    +0.000 A 
ATOM     32 CL   UNL     1      -4.548  12.424  24.596  0.00  0.00    +0.000 Cl
ATOM     33  C   UNL     1      -2.248  12.018  23.232  0.00  0.00    +0.000 A 
ENDBRANCH  24  27
ENDBRANCH   4  21
TORSDOF 7
ENDMDL
MODEL 3
REMARK VINA RESULT:      -7.9      1.427      1.971
REMARK  Name = 
REMARK  7 active torsions:
REMARK  status: ('A' for Active; 'I' for Inactive)
REMARK    1  A    between atoms: N_1  and  N_2
REMARK    2  A    between atoms: N_2  and  C_3
REMARK    3  A    between atoms: N_2  and  C_5
REMARK    4  A    between atoms: C_5  and  C_6
REMARK    5  A    between atoms: N_8  and  C_9
REMARK    6  A    between atoms: C_12  and  N_13
REMARK    7  A    between atoms: N_16  and  C_17
REMARK                            x       y       z     vdW  Elec       q    Type
REMARK                         _______ _______ _______ _____ _____    ______ ____
ROOT
ATOM      1  C   UNL     1       2.460   6.847  18.758  0.00  0.00    +0.000 A 
ATOM      2  C   UNL     1       2.109   6.724  20.102  0.00  0.00    +0.000 A 
ATOM      3  C   UNL     1       1.532   7.794  20.801  0.00  0.00    +0.000 A 
ATOM      4  C   UNL     1       1.256   9.021  20.188  0.00  0.00    +0.000 A 
ATOM      5  C   UNL     1       1.601   9.114  18.828  0.00  0.00    +0.000 A 
ATOM      6  F   UNL     1       1.309  10.220  18.122  0.00  0.00    +0.000 F 
ATOM      7  C   UNL     1       2.204   8.065  18.128  0.00  0.00    +0.000 A 
ENDROOT
BRANCH   1  10
ATOM      8  C   UNL     1       4.690   4.367  17.297  0.00  0.00    +0.000 C 
ATOM      9  C   UNL     1       4.416   5.827  17.576  0.00  0.00    +0.000 C 
ATOM     10  N   UNL     1       3.071   5.784  18.059  0.00  0.00    +0.000 N 
ATOM     11  C   UNL     1       2.470   4.604  17.645  0.00  0.00    +0.000 C 
ATOM     12  O   UNL     1       1.306   4.256  17.755  0.00  0.00    +0.000 OA
ATOM     13  O   UNL     1       3.398   3.822  17.001  0.00  0.00    +0.000 OA
BRANCH   8  14
ATOM     14  C   UNL     1       5.643   4.141  16.129  0.00  0.00    +0.000 C 
BRANCH  14  15
ATOM     15  N   UNL     1       7.003   4.637  16.343  0.00  0.00    +0.000 N 
BRANCH  15  16
ATOM     16  N   UNL     1       7.581   5.451  15.336  0.00  0.00    +0.000 NA
ATOM     17  H   UNL     1       7.058   6.337  15.317  0.00  0.00    +0.000 HD
ATOM     18  H   UNL     1       7.376   5.027  14.425  0.00  0.00    +0.000 HD
ENDBRANCH  15  16
BRANCH  15  19
ATOM     19  C   UNL     1       7.628   4.504  17.583  0.00  0.00    +0.000 C 
ATOM     20  S   UNL     1       7.789   5.703  18.738  0.00  0.00    +0.000 S 
ENDBRANCH  15  19
ENDBRANCH  14  15
ENDBRANCH   8  14
ENDBRANCH   1  10
BRANCH   4  21
ATOM     21  N   UNL     1       0.689  10.056  20.902  0.00  0.00    +0.000 N 
ATOM     22  C   UNL     1       0.141  11.259  20.254  0.00  0.00    +0.000 C 
ATOM     23  C   UNL     1      -1.331  11.475  20.667  0.00  0.00    +0.000 C 
ATOM     24  N   UNL     1      -1.439  11.510  22.140  0.00  0.00    +0.000 N 
ATOM     25  C   UNL     1      -0.879  10.317  22.811  0.00  0.00    +0.000 C 
ATOM     26  C   UNL     1       0.579  10.051  22.374  0.00  0.00    +0.000 C 
BRANCH  24  27
ATOM     27  C   UNL     1      -1.987  12.573  22.821  0.00  0.00    +0.000 A 
ATOM     28  C   UNL     1      -1.182  13.578  23.383  0.00  0.00    +0.000 A 
ATOM     29  C   UNL     1      -1.722  14.665  24.080  0.00  0.00    +0.000 A 
ATOM     30  C   UNL     1      -3.097  14.776  24.230  0.00  0.00    +0.000 A 
ATOM     31  C   UNL     1      -3.919  13.796  23.685  0.00  0.00    +0.000 A 
ATOM     32 CL   UNL     1      -5.628  13.915  23.873  0.00  0.00    +0.000 Cl
ATOM     33  C   UNL     1      -3.372  12.711  22.991  0.00  0.00    +0.000 A 
ENDBRANCH  24  27
ENDBRANCH   4  21
TORSDOF 7
ENDMDL
MODEL 4
REMARK VINA RESULT:      -7.8      0.939      1.253
REMARK  Name = 
REMARK  7 active torsions:
REMARK  status: ('A' for Active; 'I' for Inactive)
REMARK    1  A    between atoms: N_1  and  N_2
REMARK    2  A    between atoms: N_2  and  C_3
REMARK    3  A    between atoms: N_2  and  C_5
REMARK    4  A    between atoms: C_5  and  C_6
REMARK    5  A    between atoms: N_8  and  C_9
REMARK    6  A    between atoms: C_12  and  N_13
REMARK    7  A    between atoms: N_16  and  C_17
REMARK                            x       y       z     vdW  Elec       q    Type
REMARK                         _______ _______ _______ _____ _____    ______ ____
ROOT
ATOM      1  C   UNL     1       2.428   7.124  18.533  0.00  0.00    +0.000 A 
ATOM      2  C   UNL     1       2.086   8.196  17.709  0.00  0.00    +0.000 A 
ATOM      3  C   UNL     1       1.427   9.322  18.222  0.00  0.00    +0.000 A 
ATOM      4  C   UNL     1       1.102   9.443  19.577  0.00  0.00    +0.000 A 
ATOM      5  C   UNL     1       1.475   8.357  20.391  0.00  0.00    +0.000 A 
ATOM      6  F   UNL     1       1.282   8.402  21.720  0.00  0.00    +0.000 F 
ATOM      7  C   UNL     1       2.106   7.216  19.887  0.00  0.00    +0.000 A 
ENDROOT
BRANCH   1  10
ATOM      8  C   UNL     1       4.707   4.473  17.517  0.00  0.00    +0.000 C 
ATOM      9  C   UNL     1       4.421   5.956  17.570  0.00  0.00    +0.000 C 
ATOM     10  N   UNL     1       3.062   5.975  18.016  0.00  0.00    +0.000 N 
ATOM     11  C   UNL     1       2.478   4.742  17.764  0.00  0.00    +0.000 C 
ATOM     12  O   UNL     1       1.313   4.406  17.891  0.00  0.00    +0.000 OA
ATOM     13  O   UNL     1       3.427   3.881  17.268  0.00  0.00    +0.000 OA
BRANCH   8  14
ATOM     14  C   UNL     1       5.694   4.083  16.423  0.00  0.00    +0.000 C 
BRANCH  14  15
ATOM     15  N   UNL     1       7.028   4.671  16.564  0.00  0.00    +0.000 N 
BRANCH  15  16
ATOM     16  N   UNL     1       7.497   5.514  15.526  0.00  0.00    +0.000 NA
ATOM     17  H   UNL     1       8.057   4.935  14.885  0.00  0.00    +0.000 HD
ATOM     18  H   UNL     1       8.180   6.166  15.926  0.00  0.00    +0.000 HD
ENDBRANCH  15  16
BRANCH  15  19
ATOM     19  C   UNL     1       7.725   4.587  17.769  0.00  0.00    +0.000 C 
ATOM     20  S   UNL     1       7.823   5.782  18.934  0.00  0.00    +0.000 S 
ENDBRANCH  15  19
ENDBRANCH  14  15
ENDBRANCH   8  14
ENDBRANCH   1  10
BRANCH   4  21
ATOM     21  N   UNL     1       0.452  10.562  20.052  0.00  0.00    +0.000 N 
ATOM     22  C   UNL     1      -0.691  10.482  20.975  0.00  0.00    +0.000 C 
ATOM     23  C   UNL     1      -0.418  11.309  22.251  0.00  0.00    +0.000 C 
ATOM     24  N   UNL     1      -0.064  12.695  21.884  0.00  0.00    +0.000 N 
ATOM     25  C   UNL     1       1.073  12.796  20.945  0.00  0.00    +0.000 C 
ATOM     26  C   UNL     1       0.843  11.936  19.681  0.00  0.00    +0.000 C 
BRANCH  24  27
ATOM     27  C   UNL     1      -0.754  13.788  22.357  0.00  0.00    +0.000 A 
ATOM     28  C   UNL     1      -1.582  13.701  23.488  0.00  0.00    +0.000 A 
ATOM     29  C   UNL     1      -2.293  14.802  23.981  0.00  0.00    +0.000 A 
ATOM     30  C   UNL     1      -2.188  16.032  23.348  0.00  0.00    +0.000 A 
ATOM     31  C   UNL     1      -1.376  16.149  22.225  0.00  0.00    +0.000 A 
ATOM     32 CL   UNL     1      -1.244  17.668  21.423  0.00  0.00    +0.000 Cl
ATOM     33  C   UNL     1      -0.670  15.044  21.737  0.00  0.00    +0.000 A 
ENDBRANCH  24  27
ENDBRANCH   4  21
TORSDOF 7
ENDMDL
MODEL 5
REMARK VINA RESULT:      -7.6      1.900      2.444
REMARK  Name = 
REMARK  7 active torsions:
REMARK  status: ('A' for Active; 'I' for Inactive)
REMARK    1  A    between atoms: N_1  and  N_2
REMARK    2  A    between atoms: N_2  and  C_3
REMARK    3  A    between atoms: N_2  and  C_5
REMARK    4  A    between atoms: C_5  and  C_6
REMARK    5  A    between atoms: N_8  and  C_9
REMARK    6  A    between atoms: C_12  and  N_13
REMARK    7  A    between atoms: N_16  and  C_17
REMARK                            x       y       z     vdW  Elec       q    Type
REMARK                         _______ _______ _______ _____ _____    ______ ____
ROOT
ATOM      1  C   UNL     1       2.453   6.529  18.822  0.00  0.00    +0.000 A 
ATOM      2  C   UNL     1       2.075   6.381  20.156  0.00  0.00    +0.000 A 
ATOM      3  C   UNL     1       1.541   7.456  20.880  0.00  0.00    +0.000 A 
ATOM      4  C   UNL     1       1.337   8.715  20.305  0.00  0.00    +0.000 A 
ATOM      5  C   UNL     1       1.709   8.834  18.954  0.00  0.00    +0.000 A 
ATOM      6  F   UNL     1       1.484   9.975  18.280  0.00  0.00    +0.000 F 
ATOM      7  C   UNL     1       2.270   7.778  18.229  0.00  0.00    +0.000 A 
ENDROOT
BRANCH   1  10
ATOM      8  C   UNL     1       4.592   4.147  17.087  0.00  0.00    +0.000 C 
ATOM      9  C   UNL     1       4.190   5.591  17.282  0.00  0.00    +0.000 C 
ATOM     10  N   UNL     1       3.022   5.460  18.098  0.00  0.00    +0.000 N 
ATOM     11  C   UNL     1       2.513   4.176  17.970  0.00  0.00    +0.000 C 
ATOM     12  O   UNL     1       1.472   3.716  18.410  0.00  0.00    +0.000 OA
ATOM     13  O   UNL     1       3.359   3.426  17.189  0.00  0.00    +0.000 OA
BRANCH   8  14
ATOM     14  C   UNL     1       5.256   3.879  15.742  0.00  0.00    +0.000 C 
BRANCH  14  15
ATOM     15  N   UNL     1       6.599   4.443  15.597  0.00  0.00    +0.000 N 
BRANCH  15  16
ATOM     16  N   UNL     1       7.496   4.314  16.687  0.00  0.00    +0.000 NA
ATOM     17  H   UNL     1       7.138   3.565  17.296  0.00  0.00    +0.000 HD
ATOM     18  H   UNL     1       7.421   5.157  17.266  0.00  0.00    +0.000 HD
ENDBRANCH  15  16
BRANCH  15  19
ATOM     19  C   UNL     1       7.057   4.895  14.360  0.00  0.00    +0.000 C 
ATOM     20  S   UNL     1       6.894   4.098  12.899  0.00  0.00    +0.000 S 
ENDBRANCH  15  19
ENDBRANCH  14  15
ENDBRANCH   8  14
ENDBRANCH   1  10
BRANCH   4  21
ATOM     21  N   UNL     1       0.812   9.753  21.044  0.00  0.00    +0.000 N 
ATOM     22  C   UNL     1       0.358  11.012  20.430  0.00  0.00    +0.000 C 
ATOM     23  C   UNL     1      -1.111  11.303  20.809  0.00  0.00    +0.000 C 
ATOM     24  N   UNL     1      -1.263  11.285  22.278  0.00  0.00    +0.000 N 
ATOM     25  C   UNL     1      -0.798  10.035  22.915  0.00  0.00    +0.000 C 
ATOM     26  C   UNL     1       0.655   9.698  22.510  0.00  0.00    +0.000 C 
BRANCH  24  27
ATOM     27  C   UNL     1      -1.767  12.353  22.986  0.00  0.00    +0.000 A 
ATOM     28  C   UNL     1      -3.065  12.330  23.524  0.00  0.00    +0.000 A 
ATOM     29  C   UNL     1      -3.593  13.408  24.245  0.00  0.00    +0.000 A 
ATOM     30  C   UNL     1      -2.827  14.546  24.448  0.00  0.00    +0.000 A 
ATOM     31  C   UNL     1      -1.540  14.598  23.926  0.00  0.00    +0.000 A 
ATOM     32 CL   UNL     1      -0.579  16.009  24.163  0.00  0.00    +0.000 Cl
ATOM     33  C   UNL     1      -1.018  13.518  23.206  0.00  0.00    +0.000 A 
ENDBRANCH  24  27
ENDBRANCH   4  21
TORSDOF 7
ENDMDL
MODEL 6
REMARK VINA RESULT:      -7.6      1.916      2.366
REMARK  Name = 
REMARK  7 active torsions:
REMARK  status: ('A' for Active; 'I' for Inactive)
REMARK    1  A    between atoms: N_1  and  N_2
REMARK    2  A    between atoms: N_2  and  C_3
REMARK    3  A    between atoms: N_2  and  C_5
REMARK    4  A    between atoms: C_5  and  C_6
REMARK    5  A    between atoms: N_8  and  C_9
REMARK    6  A    between atoms: C_12  and  N_13
REMARK    7  A    between atoms: N_16  and  C_17
REMARK                            x       y       z     vdW  Elec       q    Type
REMARK                         _______ _______ _______ _____ _____    ______ ____
ROOT
ATOM      1  C   UNL     1       3.161   6.562  18.486  0.00  0.00    +0.000 A 
ATOM      2  C   UNL     1       2.643   6.460  19.777  0.00  0.00    +0.000 A 
ATOM      3  C   UNL     1       1.814   7.459  20.306  0.00  0.00    +0.000 A 
ATOM      4  C   UNL     1       1.445   8.588  19.568  0.00  0.00    +0.000 A 
ATOM      5  C   UNL     1       1.963   8.659  18.263  0.00  0.00    +0.000 A 
ATOM      6  F   UNL     1       1.609   9.660  17.439  0.00  0.00    +0.000 F 
ATOM      7  C   UNL     1       2.815   7.684  17.734  0.00  0.00    +0.000 A 
ENDROOT
BRANCH   1  10
ATOM      8  C   UNL     1       5.923   4.374  17.568  0.00  0.00    +0.000 C 
ATOM      9  C   UNL     1       5.415   5.789  17.721  0.00  0.00    +0.000 C 
ATOM     10  N   UNL     1       4.021   5.575  17.961  0.00  0.00    +0.000 N 
ATOM     11  C   UNL     1       3.665   4.313  17.507  0.00  0.00    +0.000 C 
ATOM     12  O   UNL     1       2.556   3.812  17.428  0.00  0.00    +0.000 OA
ATOM     13  O   UNL     1       4.789   3.650  17.077  0.00  0.00    +0.000 OA
BRANCH   8  14
ATOM     14  C   UNL     1       7.093   4.250  16.600  0.00  0.00    +0.000 C 
BRANCH  14  15
ATOM     15  N   UNL     1       6.839   4.782  15.260  0.00  0.00    +0.000 N 
BRANCH  15  16
ATOM     16  N   UNL     1       7.743   5.743  14.743  0.00  0.00    +0.000 NA
ATOM     17  H   UNL     1       7.613   5.774  13.722  0.00  0.00    +0.000 HD
ATOM     18  H   UNL     1       8.696   5.381  14.856  0.00  0.00    +0.000 HD
ENDBRANCH  15  16
BRANCH  15  19
ATOM     19  C   UNL     1       5.876   4.206  14.431  0.00  0.00    +0.000 C 
ATOM     20  S   UNL     1       6.124   3.647  12.874  0.00  0.00    +0.000 S 
ENDBRANCH  15  19
ENDBRANCH  14  15
ENDBRANCH   8  14
ENDBRANCH   1  10
BRANCH   4  21
ATOM     21  N   UNL     1       0.629   9.555  20.116  0.00  0.00    +0.000 N 
ATOM     22  C   UNL     1      -0.456   9.237  21.059  0.00  0.00    +0.000 C 
ATOM     23  C   UNL     1      -0.287  10.035  22.370  0.00  0.00    +0.000 C 
ATOM     24  N   UNL     1      -0.184  11.478  22.070  0.00  0.00    +0.000 N 
ATOM     25  C   UNL     1       0.889  11.817  21.112  0.00  0.00    +0.000 C 
ATOM     26  C   UNL     1       0.770  10.993  19.810  0.00  0.00    +0.000 C 
BRANCH  24  27
ATOM     27  C   UNL     1      -1.035  12.413  22.616  0.00  0.00    +0.000 A 
ATOM     28  C   UNL     1      -2.308  12.058  23.093  0.00  0.00    +0.000 A 
ATOM     29  C   UNL     1      -3.185  12.996  23.648  0.00  0.00    +0.000 A 
ATOM     30  C   UNL     1      -2.805  14.327  23.743  0.00  0.00    +0.000 A 
ATOM     31  C   UNL     1      -1.552  14.708  23.278  0.00  0.00    +0.000 A 
ATOM     32 CL   UNL     1      -1.070  16.359  23.381  0.00  0.00    +0.000 Cl
ATOM     33  C   UNL     1      -0.680  13.766  22.723  0.00  0.00    +0.000 A 
ENDBRANCH  24  27
ENDBRANCH   4  21
TORSDOF 7
ENDMDL
MODEL 7
REMARK VINA RESULT:      -7.6      2.979      3.713
REMARK  Name = 
REMARK  7 active torsions:
REMARK  status: ('A' for Active; 'I' for Inactive)
REMARK    1  A    between atoms: N_1  and  N_2
REMARK    2  A    between atoms: N_2  and  C_3
REMARK    3  A    between atoms: N_2  and  C_5
REMARK    4  A    between atoms: C_5  and  C_6
REMARK    5  A    between atoms: N_8  and  C_9
REMARK    6  A    between atoms: C_12  and  N_13
REMARK    7  A    between atoms: N_16  and  C_17
REMARK                            x       y       z     vdW  Elec       q    Type
REMARK                         _______ _______ _______ _____ _____    ______ ____
ROOT
ATOM      1  C   UNL     1       2.360   7.216  18.748  0.00  0.00    +0.000 A 
ATOM      2  C   UNL     1       2.337   8.224  17.784  0.00  0.00    +0.000 A 
ATOM      3  C   UNL     1       1.845   9.501  18.084  0.00  0.00    +0.000 A 
ATOM      4  C   UNL     1       1.378   9.840  19.360  0.00  0.00    +0.000 A 
ATOM      5  C   UNL     1       1.430   8.812  20.319  0.00  0.00    +0.000 A 
ATOM      6  F   UNL     1       1.081   9.050  21.595  0.00  0.00    +0.000 F 
ATOM      7  C   UNL     1       1.891   7.526  20.024  0.00  0.00    +0.000 A 
ENDROOT
BRANCH   1  10
ATOM      8  C   UNL     1       3.024   3.904  17.387  0.00  0.00    +0.000 C 
ATOM      9  C   UNL     1       1.996   4.895  17.883  0.00  0.00    +0.000 C 
ATOM     10  N   UNL     1       2.825   5.919  18.442  0.00  0.00    +0.000 N 
ATOM     11  C   UNL     1       4.082   5.398  18.712  0.00  0.00    +0.000 C 
ATOM     12  O   UNL     1       5.019   5.919  19.293  0.00  0.00    +0.000 OA
ATOM     13  O   UNL     1       4.146   4.104  18.255  0.00  0.00    +0.000 OA
BRANCH   8  14
ATOM     14  C   UNL     1       2.552   2.457  17.452  0.00  0.00    +0.000 C 
BRANCH  14  15
ATOM     15  N   UNL     1       2.879   1.760  18.697  0.00  0.00    +0.000 N 
BRANCH  15  16
ATOM     16  N   UNL     1       4.166   1.178  18.816  0.00  0.00    +0.000 NA
ATOM     17  H   UNL     1       4.133   0.257  18.357  0.00  0.00    +0.000 HD
ATOM     18  H   UNL     1       4.326   0.953  19.803  0.00  0.00    +0.000 HD
ENDBRANCH  15  16
BRANCH  15  19
ATOM     19  C   UNL     1       2.045   1.853  19.811  0.00  0.00    +0.000 C 
ATOM     20  S   UNL     1       2.256   2.877  21.116  0.00  0.00    +0.000 S 
ENDBRANCH  15  19
ENDBRANCH  14  15
ENDBRANCH   8  14
ENDBRANCH   1  10
BRANCH   4  21
ATOM     21  N   UNL     1       0.898  11.104  19.625  0.00  0.00    +0.000 N 
ATOM     22  C   UNL     1       1.728  12.312  19.486  0.00  0.00    +0.000 C 
ATOM     23  C   UNL     1       1.057  13.327  18.535  0.00  0.00    +0.000 C 
ATOM     24  N   UNL     1      -0.316  13.616  18.997  0.00  0.00    +0.000 N 
ATOM     25  C   UNL     1      -1.162  12.414  19.158  0.00  0.00    +0.000 C 
ATOM     26  C   UNL     1      -0.486  11.362  20.067  0.00  0.00    +0.000 C 
BRANCH  24  27
ATOM     27  C   UNL     1      -0.753  14.891  19.279  0.00  0.00    +0.000 A 
ATOM     28  C   UNL     1      -1.670  15.141  20.314  0.00  0.00    +0.000 A 
ATOM     29  C   UNL     1      -2.125  16.430  20.612  0.00  0.00    +0.000 A 
ATOM     30  C   UNL     1      -1.668  17.513  19.875  0.00  0.00    +0.000 A 
ATOM     31  C   UNL     1      -0.761  17.296  18.844  0.00  0.00    +0.000 A 
ATOM     32 CL   UNL     1      -0.191  18.631  17.915  0.00  0.00    +0.000 Cl
ATOM     33  C   UNL     1      -0.311  16.005  18.550  0.00  0.00    +0.000 A 
ENDBRANCH  24  27
ENDBRANCH   4  21
TORSDOF 7
ENDMDL
MODEL 8
REMARK VINA RESULT:      -7.5      2.070      2.520
REMARK  Name = 
REMARK  7 active torsions:
REMARK  status: ('A' for Active; 'I' for Inactive)
REMARK    1  A    between atoms: N_1  and  N_2
REMARK    2  A    between atoms: N_2  and  C_3
REMARK    3  A    between atoms: N_2  and  C_5
REMARK    4  A    between atoms: C_5  and  C_6
REMARK    5  A    between atoms: N_8  and  C_9
REMARK    6  A    between atoms: C_12  and  N_13
REMARK    7  A    between atoms: N_16  and  C_17
REMARK                            x       y       z     vdW  Elec       q    Type
REMARK                         _______ _______ _______ _____ _____    ______ ____
ROOT
ATOM      1  C   UNL     1       2.518   7.212  18.516  0.00  0.00    +0.000 A 
ATOM      2  C   UNL     1       2.258   8.228  17.596  0.00  0.00    +0.000 A 
ATOM      3  C   UNL     1       1.611   9.409  17.985  0.00  0.00    +0.000 A 
ATOM      4  C   UNL     1       1.215   9.641  19.307  0.00  0.00    +0.000 A 
ATOM      5  C   UNL     1       1.504   8.610  20.219  0.00  0.00    +0.000 A 
ATOM      6  F   UNL     1       1.240   8.760  21.528  0.00  0.00    +0.000 F 
ATOM      7  C   UNL     1       2.123   7.416  19.838  0.00  0.00    +0.000 A 
ENDROOT
BRANCH   1  10
ATOM      8  C   UNL     1       3.398   3.895  17.299  0.00  0.00    +0.000 C 
ATOM      9  C   UNL     1       2.496   4.732  18.176  0.00  0.00    +0.000 C 
ATOM     10  N   UNL     1       3.140   6.009  18.123  0.00  0.00    +0.000 N 
ATOM     11  C   UNL     1       4.460   5.842  17.730  0.00  0.00    +0.000 C 
ATOM     12  O   UNL     1       5.356   6.668  17.681  0.00  0.00    +0.000 OA
ATOM     13  O   UNL     1       4.680   4.521  17.421  0.00  0.00    +0.000 OA
BRANCH   8  14
ATOM     14  C   UNL     1       3.476   2.435  17.726  0.00  0.00    +0.000 C 
BRANCH  14  15
ATOM     15  N   UNL     1       3.619   2.225  19.168  0.00  0.00    +0.000 N 
BRANCH  15  16
ATOM     16  N   UNL     1       4.906   2.385  19.739  0.00  0.00    +0.000 NA
ATOM     17  H   UNL     1       5.417   3.067  19.163  0.00  0.00    +0.000 HD
ATOM     18  H   UNL     1       5.427   1.512  19.605  0.00  0.00    +0.000 HD
ENDBRANCH  15  16
BRANCH  15  19
ATOM     19  C   UNL     1       2.498   2.090  19.987  0.00  0.00    +0.000 C 
ATOM     20  S   UNL     1       2.280   2.808  21.482  0.00  0.00    +0.000 S 
ENDBRANCH  15  19
ENDBRANCH  14  15
ENDBRANCH   8  14
ENDBRANCH   1  10
BRANCH   4  21
ATOM     21  N   UNL     1       0.578  10.812  19.660  0.00  0.00    +0.000 N 
ATOM     22  C   UNL     1      -0.816  10.844  20.132  0.00  0.00    +0.000 C 
ATOM     23  C   UNL     1      -0.906  11.536  21.510  0.00  0.00    +0.000 C 
ATOM     24  N   UNL     1      -0.286  12.875  21.441  0.00  0.00    +0.000 N 
ATOM     25  C   UNL     1       1.110  12.866  20.953  0.00  0.00    +0.000 C 
ATOM     26  C   UNL     1       1.233  12.133  19.597  0.00  0.00    +0.000 C 
BRANCH  24  27
ATOM     27  C   UNL     1      -0.962  14.026  21.775  0.00  0.00    +0.000 A 
ATOM     28  C   UNL     1      -1.596  14.814  20.800  0.00  0.00    +0.000 A 
ATOM     29  C   UNL     1      -2.287  15.989  21.122  0.00  0.00    +0.000 A 
ATOM     30  C   UNL     1      -2.363  16.406  22.443  0.00  0.00    +0.000 A 
ATOM     31  C   UNL     1      -1.744  15.647  23.430  0.00  0.00    +0.000 A 
ATOM     32 CL   UNL     1      -1.822  16.158  25.074  0.00  0.00    +0.000 Cl
ATOM     33  C   UNL     1      -1.055  14.475  23.101  0.00  0.00    +0.000 A 
ENDBRANCH  24  27
ENDBRANCH   4  21
TORSDOF 7
ENDMDL
MODEL 9
REMARK VINA RESULT:      -7.5      1.688      1.923
REMARK  Name = 
REMARK  7 active torsions:
REMARK  status: ('A' for Active; 'I' for Inactive)
REMARK    1  A    between atoms: N_1  and  N_2
REMARK    2  A    between atoms: N_2  and  C_3
REMARK    3  A    between atoms: N_2  and  C_5
REMARK    4  A    between atoms: C_5  and  C_6
REMARK    5  A    between atoms: N_8  and  C_9
REMARK    6  A    between atoms: C_12  and  N_13
REMARK    7  A    between atoms: N_16  and  C_17
REMARK                            x       y       z     vdW  Elec       q    Type
REMARK                         _______ _______ _______ _____ _____    ______ ____
ROOT
ATOM      1  C   UNL     1       2.566   6.913  18.497  0.00  0.00    +0.000 A 
ATOM      2  C   UNL     1       2.254   7.928  17.592  0.00  0.00    +0.000 A 
ATOM      3  C   UNL     1       1.614   9.102  18.014  0.00  0.00    +0.000 A 
ATOM      4  C   UNL     1       1.280   9.328  19.354  0.00  0.00    +0.000 A 
ATOM      5  C   UNL     1       1.623   8.299  20.249  0.00  0.00    +0.000 A 
ATOM      6  F   UNL     1       1.420   8.445  21.569  0.00  0.00    +0.000 F 
ATOM      7  C   UNL     1       2.234   7.111  19.837  0.00  0.00    +0.000 A 
ENDROOT
BRANCH   1  10
ATOM      8  C   UNL     1       4.812   4.240  17.462  0.00  0.00    +0.000 C 
ATOM      9  C   UNL     1       4.377   5.677  17.289  0.00  0.00    +0.000 C 
ATOM     10  N   UNL     1       3.181   5.716  18.072  0.00  0.00    +0.000 N 
ATOM     11  C   UNL     1       2.700   4.426  18.243  0.00  0.00    +0.000 C 
ATOM     12  O   UNL     1       1.651   4.059  18.746  0.00  0.00    +0.000 OA
ATOM     13  O   UNL     1       3.589   3.533  17.695  0.00  0.00    +0.000 OA
BRANCH   8  14
ATOM     14  C   UNL     1       5.532   3.672  16.245  0.00  0.00    +0.000 C 
BRANCH  14  15
ATOM     15  N   UNL     1       6.750   4.389  15.864  0.00  0.00    +0.000 N 
BRANCH  15  16
ATOM     16  N   UNL     1       7.767   4.541  16.840  0.00  0.00    +0.000 NA
ATOM     17  H   UNL     1       8.640   4.769  16.344  0.00  0.00    +0.000 HD
ATOM     18  H   UNL     1       7.953   3.622  17.253  0.00  0.00    +0.000 HD
ENDBRANCH  15  16
BRANCH  15  19
ATOM     19  C   UNL     1       7.001   4.718  14.531  0.00  0.00    +0.000 C 
ATOM     20  S   UNL     1       6.347   3.962  13.191  0.00  0.00    +0.000 S 
ENDBRANCH  15  19
ENDBRANCH  14  15
ENDBRANCH   8  14
ENDBRANCH   1  10
BRANCH   4  21
ATOM     21  N   UNL     1       0.650  10.492  19.739  0.00  0.00    +0.000 N 
ATOM     22  C   UNL     1      -0.661  10.500  20.409  0.00  0.00    +0.000 C 
ATOM     23  C   UNL     1      -0.581  11.262  21.750  0.00  0.00    +0.000 C 
ATOM     24  N   UNL     1      -0.037  12.617  21.525  0.00  0.00    +0.000 N 
ATOM     25  C   UNL     1       1.272  12.632  20.838  0.00  0.00    +0.000 C 
ATOM     26  C   UNL     1       1.229  11.832  19.516  0.00  0.00    +0.000 C 
BRANCH  24  27
ATOM     27  C   UNL     1      -0.708  13.760  21.898  0.00  0.00    +0.000 A 
ATOM     28  C   UNL     1      -1.013  14.025  23.243  0.00  0.00    +0.000 A 
ATOM     29  C   UNL     1      -1.697  15.181  23.640  0.00  0.00    +0.000 A 
ATOM     30  C   UNL     1      -2.094  16.110  22.689  0.00  0.00    +0.000 A 
ATOM     31  C   UNL     1      -1.808  15.873  21.350  0.00  0.00    +0.000 A 
ATOM     32 CL   UNL     1      -2.304  17.014  20.157  0.00  0.00    +0.000 Cl
ATOM     33  C   UNL     1      -1.125  14.716  20.960  0.00  0.00    +0.000 A 
ENDBRANCH  24  27
ENDBRANCH   4  21
TORSDOF 7
ENDMDL
