MODEL 1
REMARK VINA RESULT:      -3.7      0.000      0.000
REMARK  Name = 
REMARK  0 active torsions:
REMARK  status: ('A' for Active; 'I' for Inactive)
REMARK                            x       y       z     vdW  Elec       q    Type
REMARK                         _______ _______ _______ _____ _____    ______ ____
ROOT
ATOM      1  O   UNL     1      10.346   3.828  27.386  0.00  0.00    +0.000 OA
ATOM      2  C   UNL     1       9.254   4.321  27.613  0.00  0.00    +0.000 C 
ATOM      3  O   UNL     1       9.060   5.484  28.305  0.00  0.00    +0.000 OA
ATOM      4  C   UNL     1       7.670   5.583  28.552  0.00  0.00    +0.000 C 
ATOM      5  C   UNL     1       7.071   4.761  27.458  0.00  0.00    +0.000 C 
ATOM      6  O   UNL     1       8.064   3.784  27.210  0.00  0.00    +0.000 OA
ENDROOT
TORSDOF 0
ENDMDL
MODEL 2
REMARK VINA RESULT:      -3.5     10.461     10.998
REMARK  Name = 
REMARK  0 active torsions:
REMARK  status: ('A' for Active; 'I' for Inactive)
REMARK                            x       y       z     vdW  Elec       q    Type
REMARK                         _______ _______ _______ _____ _____    ______ ____
ROOT
ATOM      1  O   UNL     1       7.460   8.015  17.199  0.00  0.00    +0.000 OA
ATOM      2  C   UNL     1       7.422   6.796  17.184  0.00  0.00    +0.000 C 
ATOM      3  O   UNL     1       7.386   6.037  16.048  0.00  0.00    +0.000 OA
ATOM      4  C   UNL     1       7.111   4.710  16.453  0.00  0.00    +0.000 C 
ATOM      5  C   UNL     1       7.602   4.677  17.864  0.00  0.00    +0.000 C 
ATOM      6  O   UNL     1       7.409   6.009  18.301  0.00  0.00    +0.000 OA
ENDROOT
TORSDOF 0
ENDMDL
MODEL 3
REMARK VINA RESULT:      -3.5     10.459     10.931
REMARK  Name = 
REMARK  0 active torsions:
REMARK  status: ('A' for Active; 'I' for Inactive)
REMARK                            x       y       z     vdW  Elec       q    Type
REMARK                         _______ _______ _______ _____ _____    ______ ____
ROOT
ATOM      1  O   UNL     1       7.487   8.011  17.226  0.00  0.00    +0.000 OA
ATOM      2  C   UNL     1       7.440   6.793  17.194  0.00  0.00    +0.000 C 
ATOM      3  O   UNL     1       7.418   5.992  18.302  0.00  0.00    +0.000 OA
ATOM      4  C   UNL     1       7.602   4.665  17.849  0.00  0.00    +0.000 C 
ATOM      5  C   UNL     1       7.117   4.718  16.436  0.00  0.00    +0.000 C 
ATOM      6  O   UNL     1       7.403   6.049  16.049  0.00  0.00    +0.000 OA
ENDROOT
TORSDOF 0
ENDMDL
MODEL 4
REMARK VINA RESULT:      -3.5     10.663     11.234
REMARK  Name = 
REMARK  0 active torsions:
REMARK  status: ('A' for Active; 'I' for Inactive)
REMARK                            x       y       z     vdW  Elec       q    Type
REMARK                         _______ _______ _______ _____ _____    ______ ____
ROOT
ATOM      1  O   UNL     1       7.890   4.674  18.513  0.00  0.00    +0.000 OA
ATOM      2  C   UNL     1       7.294   4.543  17.458  0.00  0.00    +0.000 C 
ATOM      3  O   UNL     1       5.942   4.367  17.350  0.00  0.00    +0.000 OA
ATOM      4  C   UNL     1       5.683   4.023  16.003  0.00  0.00    +0.000 C 
ATOM      5  C   UNL     1       6.845   4.612  15.272  0.00  0.00    +0.000 C 
ATOM      6  O   UNL     1       7.888   4.553  16.227  0.00  0.00    +0.000 OA
ENDROOT
TORSDOF 0
ENDMDL
MODEL 5
REMARK VINA RESULT:      -3.4      9.123      9.682
REMARK  Name = 
REMARK  0 active torsions:
REMARK  status: ('A' for Active; 'I' for Inactive)
REMARK                            x       y       z     vdW  Elec       q    Type
REMARK                         _______ _______ _______ _____ _____    ______ ____
ROOT
ATOM      1  O   UNL     1       7.797   5.430  20.382  0.00  0.00    +0.000 OA
ATOM      2  C   UNL     1       7.594   5.489  19.181  0.00  0.00    +0.000 C 
ATOM      3  O   UNL     1       7.130   4.449  18.424  0.00  0.00    +0.000 OA
ATOM      4  C   UNL     1       7.256   4.843  17.071  0.00  0.00    +0.000 C 
ATOM      5  C   UNL     1       7.230   6.335  17.148  0.00  0.00    +0.000 C 
ATOM      6  O   UNL     1       7.801   6.601  18.415  0.00  0.00    +0.000 OA
ENDROOT
TORSDOF 0
ENDMDL
MODEL 6
REMARK VINA RESULT:      -3.4     10.320     10.874
REMARK  Name = 
REMARK  0 active torsions:
REMARK  status: ('A' for Active; 'I' for Inactive)
REMARK                            x       y       z     vdW  Elec       q    Type
REMARK                         _______ _______ _______ _____ _____    ______ ____
ROOT
ATOM      1  O   UNL     1       7.957   4.837  18.827  0.00  0.00    +0.000 OA
ATOM      2  C   UNL     1       7.339   4.652  17.792  0.00  0.00    +0.000 C 
ATOM      3  O   UNL     1       7.918   4.488  16.565  0.00  0.00    +0.000 OA
ATOM      4  C   UNL     1       6.874   4.538  15.612  0.00  0.00    +0.000 C 
ATOM      5  C   UNL     1       5.674   4.126  16.401  0.00  0.00    +0.000 C 
ATOM      6  O   UNL     1       5.977   4.581  17.707  0.00  0.00    +0.000 OA
ENDROOT
TORSDOF 0
ENDMDL
MODEL 7
REMARK VINA RESULT:      -3.4      1.782      3.252
REMARK  Name = 
REMARK  0 active torsions:
REMARK  status: ('A' for Active; 'I' for Inactive)
REMARK                            x       y       z     vdW  Elec       q    Type
REMARK                         _______ _______ _______ _____ _____    ______ ____
ROOT
ATOM      1  O   UNL     1       8.679   3.883  27.287  0.00  0.00    +0.000 OA
ATOM      2  C   UNL     1       9.833   4.117  27.607  0.00  0.00    +0.000 C 
ATOM      3  O   UNL     1      10.815   3.171  27.705  0.00  0.00    +0.000 OA
ATOM      4  C   UNL     1      11.923   3.798  28.320  0.00  0.00    +0.000 C 
ATOM      5  C   UNL     1      11.721   5.242  27.994  0.00  0.00    +0.000 C 
ATOM      6  O   UNL     1      10.313   5.359  27.913  0.00  0.00    +0.000 OA
ENDROOT
TORSDOF 0
ENDMDL
MODEL 8
REMARK VINA RESULT:      -3.4     10.948     11.415
REMARK  Name = 
REMARK  0 active torsions:
REMARK  status: ('A' for Active; 'I' for Inactive)
REMARK                            x       y       z     vdW  Elec       q    Type
REMARK                         _______ _______ _______ _____ _____    ______ ____
ROOT
ATOM      1  O   UNL     1       7.401   5.199  14.587  0.00  0.00    +0.000 OA
ATOM      2  C   UNL     1       7.403   5.334  15.799  0.00  0.00    +0.000 C 
ATOM      3  O   UNL     1       6.924   6.433  16.455  0.00  0.00    +0.000 OA
ATOM      4  C   UNL     1       7.319   6.305  17.807  0.00  0.00    +0.000 C 
ATOM      5  C   UNL     1       7.491   4.830  17.972  0.00  0.00    +0.000 C 
ATOM      6  O   UNL     1       7.884   4.406  16.680  0.00  0.00    +0.000 OA
ENDROOT
TORSDOF 0
ENDMDL
MODEL 9
REMARK VINA RESULT:      -3.4     11.117     11.652
REMARK  Name = 
REMARK  0 active torsions:
REMARK  status: ('A' for Active; 'I' for Inactive)
REMARK                            x       y       z     vdW  Elec       q    Type
REMARK                         _______ _______ _______ _____ _____    ______ ____
ROOT
ATOM      1  O   UNL     1       7.030   5.202  14.427  0.00  0.00    +0.000 OA
ATOM      2  C   UNL     1       7.174   5.304  15.634  0.00  0.00    +0.000 C 
ATOM      3  O   UNL     1       7.805   4.378  16.417  0.00  0.00    +0.000 OA
ATOM      4  C   UNL     1       7.556   4.744  17.760  0.00  0.00    +0.000 C 
ATOM      5  C   UNL     1       7.292   6.212  17.669  0.00  0.00    +0.000 C 
ATOM      6  O   UNL     1       6.726   6.357  16.380  0.00  0.00    +0.000 OA
ENDROOT
TORSDOF 0
ENDMDL
