MODEL 1
REMARK VINA RESULT:      -7.9      0.000      0.000
REMARK  Name = 
REMARK  8 active torsions:
REMARK  status: ('A' for Active; 'I' for Inactive)
REMARK    1  A    between atoms: C_2  and  O_3
REMARK    2  A    between atoms: C_2  and  C_4
REMARK    3  A    between atoms: N_8  and  C_9
REMARK    4  A    between atoms: C_9  and  C_10
REMARK    5  A    between atoms: C_10  and  O_11
REMARK    6  A    between atoms: O_11  and  C_12
REMARK    7  A    between atoms: C_12  and  C_13
REMARK    8  A    between atoms: C_12  and  C_20
REMARK                            x       y       z     vdW  Elec       q    Type
REMARK                         _______ _______ _______ _____ _____    ______ ____
ROOT
ATOM      1  C   UNL     1       2.711   6.053  17.925  0.00  0.00    +0.000 C 
ENDROOT
BRANCH   1   2
ATOM      2  C   UNL     1       4.063   5.640  17.378  0.00  0.00    +0.000 A 
ATOM      3  C   UNL     1       5.135   6.546  17.317  0.00  0.00    +0.000 A 
ATOM      4  C   UNL     1       6.349   6.154  16.740  0.00  0.00    +0.000 A 
ATOM      5  C   UNL     1       6.501   4.860  16.225  0.00  0.00    +0.000 A 
ATOM      6  F   UNL     1       7.671   4.488  15.651  0.00  0.00    +0.000 F 
ATOM      7  C   UNL     1       5.439   3.955  16.290  0.00  0.00    +0.000 A 
ATOM      8  C   UNL     1       4.228   4.339  16.864  0.00  0.00    +0.000 A 
ENDBRANCH   1   2
BRANCH   1   9
ATOM      9  C   UNL     1       2.207   5.100  18.996  0.00  0.00    +0.000 A 
ATOM     10  C   UNL     1       1.335   4.031  18.694  0.00  0.00    +0.000 A 
ATOM     11  C   UNL     1       0.932   3.141  19.695  0.00  0.00    +0.000 A 
ATOM     12  C   UNL     1       1.386   3.307  21.005  0.00  0.00    +0.000 A 
ATOM     13  F   UNL     1       0.998   2.438  21.971  0.00  0.00    +0.000 F 
ATOM     14  C   UNL     1       2.243   4.364  21.318  0.00  0.00    +0.000 A 
ATOM     15  C   UNL     1       2.654   5.253  20.321  0.00  0.00    +0.000 A 
ENDBRANCH   1   9
BRANCH   1  16
ATOM     16  O   UNL     1       2.763   7.381  18.425  0.00  0.00    +0.000 OA
BRANCH  16  17
ATOM     17  C   UNL     1       1.851   8.261  17.778  0.00  0.00    +0.000 C 
BRANCH  17  18
ATOM     18  C   UNL     1       2.081   9.744  18.133  0.00  0.00    +0.000 C 
BRANCH  18  23
ATOM     19  C   UNL     1       0.003  12.277  20.056  0.00  0.00    +0.000 C 
ATOM     20  C   UNL     1      -1.339  12.059  19.324  0.00  0.00    +0.000 C 
ATOM     21  C   UNL     1      -1.523  10.586  18.929  0.00  0.00    +0.000 C 
ATOM     22  C   UNL     1      -0.316  10.101  18.116  0.00  0.00    +0.000 C 
ATOM     23  N   UNL     1       0.938  10.315  18.873  0.00  0.00    +0.000 NA
ATOM     24  C   UNL     1       1.125  11.761  19.144  0.00  0.00    +0.000 C 
BRANCH  19  26
ATOM     25  O   UNL     1      -0.755  11.872  22.292  0.00  0.00    +0.000 OA
ATOM     26  C   UNL     1       0.074  11.622  21.433  0.00  0.00    +0.000 C 
BRANCH  26  27
ATOM     27  O   UNL     1       1.081  10.773  21.737  0.00  0.00    +0.000 OA
ATOM     28  H   UNL     1       1.967  10.862  21.362  0.00  0.00    +0.000 HD
ENDBRANCH  26  27
ENDBRANCH  19  26
ENDBRANCH  18  23
ENDBRANCH  17  18
ENDBRANCH  16  17
ENDBRANCH   1  16
TORSDOF 8
ENDMDL
MODEL 2
REMARK VINA RESULT:      -7.8      1.153      1.492
REMARK  Name = 
REMARK  8 active torsions:
REMARK  status: ('A' for Active; 'I' for Inactive)
REMARK    1  A    between atoms: C_2  and  O_3
REMARK    2  A    between atoms: C_2  and  C_4
REMARK    3  A    between atoms: N_8  and  C_9
REMARK    4  A    between atoms: C_9  and  C_10
REMARK    5  A    between atoms: C_10  and  O_11
REMARK    6  A    between atoms: O_11  and  C_12
REMARK    7  A    between atoms: C_12  and  C_13
REMARK    8  A    between atoms: C_12  and  C_20
REMARK                            x       y       z     vdW  Elec       q    Type
REMARK                         _______ _______ _______ _____ _____    ______ ____
ROOT
ATOM      1  C   UNL     1       2.675   5.765  18.096  0.00  0.00    +0.000 C 
ENDROOT
BRANCH   1   2
ATOM      2  C   UNL     1       4.085   5.416  17.663  0.00  0.00    +0.000 A 
ATOM      3  C   UNL     1       4.327   4.463  16.660  0.00  0.00    +0.000 A 
ATOM      4  C   UNL     1       5.641   4.110  16.333  0.00  0.00    +0.000 A 
ATOM      5  C   UNL     1       6.719   4.705  17.002  0.00  0.00    +0.000 A 
ATOM      6  F   UNL     1       7.991   4.351  16.696  0.00  0.00    +0.000 F 
ATOM      7  C   UNL     1       6.482   5.659  17.995  0.00  0.00    +0.000 A 
ATOM      8  C   UNL     1       5.175   6.014  18.324  0.00  0.00    +0.000 A 
ENDBRANCH   1   2
BRANCH   1   9
ATOM      9  C   UNL     1       2.158   4.834  19.180  0.00  0.00    +0.000 A 
ATOM     10  C   UNL     1       1.279   3.767  18.892  0.00  0.00    +0.000 A 
ATOM     11  C   UNL     1       0.863   2.898  19.907  0.00  0.00    +0.000 A 
ATOM     12  C   UNL     1       1.312   3.083  21.216  0.00  0.00    +0.000 A 
ATOM     13  F   UNL     1       0.913   2.234  22.195  0.00  0.00    +0.000 F 
ATOM     14  C   UNL     1       2.176   4.138  21.514  0.00  0.00    +0.000 A 
ATOM     15  C   UNL     1       2.599   5.006  20.505  0.00  0.00    +0.000 A 
ENDBRANCH   1   9
BRANCH   1  16
ATOM     16  O   UNL     1       2.607   7.117  18.526  0.00  0.00    +0.000 OA
BRANCH  16  17
ATOM     17  C   UNL     1       2.424   8.037  17.457  0.00  0.00    +0.000 C 
BRANCH  17  18
ATOM     18  C   UNL     1       2.236   9.492  17.933  0.00  0.00    +0.000 C 
BRANCH  18  23
ATOM     19  C   UNL     1       0.261  10.456  21.032  0.00  0.00    +0.000 C 
ATOM     20  C   UNL     1      -0.999  11.002  20.327  0.00  0.00    +0.000 C 
ATOM     21  C   UNL     1      -1.310  10.204  19.052  0.00  0.00    +0.000 C 
ATOM     22  C   UNL     1      -0.082  10.173  18.133  0.00  0.00    +0.000 C 
ATOM     23  N   UNL     1       1.089   9.623  18.854  0.00  0.00    +0.000 NA
ATOM     24  C   UNL     1       1.415  10.481  20.019  0.00  0.00    +0.000 C 
BRANCH  19  26
ATOM     25  O   UNL     1      -0.686   8.863  22.549  0.00  0.00    +0.000 OA
ATOM     26  C   UNL     1       0.088   9.062  21.627  0.00  0.00    +0.000 C 
BRANCH  26  27
ATOM     27  O   UNL     1       0.814   8.022  21.161  0.00  0.00    +0.000 OA
ATOM     28  H   UNL     1       0.515   7.465  20.430  0.00  0.00    +0.000 HD
ENDBRANCH  26  27
ENDBRANCH  19  26
ENDBRANCH  18  23
ENDBRANCH  17  18
ENDBRANCH  16  17
ENDBRANCH   1  16
TORSDOF 8
ENDMDL
MODEL 3
REMARK VINA RESULT:      -7.8      1.652      2.444
REMARK  Name = 
REMARK  8 active torsions:
REMARK  status: ('A' for Active; 'I' for Inactive)
REMARK    1  A    between atoms: C_2  and  O_3
REMARK    2  A    between atoms: C_2  and  C_4
REMARK    3  A    between atoms: N_8  and  C_9
REMARK    4  A    between atoms: C_9  and  C_10
REMARK    5  A    between atoms: C_10  and  O_11
REMARK    6  A    between atoms: O_11  and  C_12
REMARK    7  A    between atoms: C_12  and  C_13
REMARK    8  A    between atoms: C_12  and  C_20
REMARK                            x       y       z     vdW  Elec       q    Type
REMARK                         _______ _______ _______ _____ _____    ______ ____
ROOT
ATOM      1  C   UNL     1       2.748   6.058  17.993  0.00  0.00    +0.000 C 
ENDROOT
BRANCH   1   2
ATOM      2  C   UNL     1       4.017   5.620  17.289  0.00  0.00    +0.000 A 
ATOM      3  C   UNL     1       4.163   4.315  16.790  0.00  0.00    +0.000 A 
ATOM      4  C   UNL     1       5.374   3.920  16.209  0.00  0.00    +0.000 A 
ATOM      5  C   UNL     1       6.442   4.822  16.120  0.00  0.00    +0.000 A 
ATOM      6  F   UNL     1       7.620   4.434  15.573  0.00  0.00    +0.000 F 
ATOM      7  C   UNL     1       6.298   6.123  16.609  0.00  0.00    +0.000 A 
ATOM      8  C   UNL     1       5.094   6.522  17.188  0.00  0.00    +0.000 A 
ENDBRANCH   1   2
BRANCH   1   9
ATOM      9  C   UNL     1       2.302   5.061  19.049  0.00  0.00    +0.000 A 
ATOM     10  C   UNL     1       2.753   5.136  20.385  0.00  0.00    +0.000 A 
ATOM     11  C   UNL     1       2.283   4.233  21.344  0.00  0.00    +0.000 A 
ATOM     12  C   UNL     1       1.364   3.244  20.985  0.00  0.00    +0.000 A 
ATOM     13  F   UNL     1       0.905   2.374  21.918  0.00  0.00    +0.000 F 
ATOM     14  C   UNL     1       0.916   3.155  19.665  0.00  0.00    +0.000 A 
ATOM     15  C   UNL     1       1.378   4.057  18.704  0.00  0.00    +0.000 A 
ENDBRANCH   1   9
BRANCH   1  16
ATOM     16  O   UNL     1       2.917   7.347  18.565  0.00  0.00    +0.000 OA
BRANCH  16  17
ATOM     17  C   UNL     1       1.890   8.261  18.201  0.00  0.00    +0.000 C 
BRANCH  17  18
ATOM     18  C   UNL     1       1.474   9.199  19.353  0.00  0.00    +0.000 C 
BRANCH  18  23
ATOM     19  C   UNL     1      -1.725  11.201  18.912  0.00  0.00    +0.000 C 
ATOM     20  C   UNL     1      -1.132  12.610  19.132  0.00  0.00    +0.000 C 
ATOM     21  C   UNL     1       0.291  12.708  18.564  0.00  0.00    +0.000 C 
ATOM     22  C   UNL     1       1.172  11.595  19.146  0.00  0.00    +0.000 C 
ATOM     23  N   UNL     1       0.567  10.268  18.889  0.00  0.00    +0.000 NA
ATOM     24  C   UNL     1      -0.762  10.183  19.540  0.00  0.00    +0.000 C 
BRANCH  19  26
ATOM     25  O   UNL     1      -2.738  11.556  16.771  0.00  0.00    +0.000 OA
ATOM     26  C   UNL     1      -1.999  10.862  17.450  0.00  0.00    +0.000 C 
BRANCH  26  27
ATOM     27  O   UNL     1      -1.450   9.764  16.886  0.00  0.00    +0.000 OA
ATOM     28  H   UNL     1      -1.322   9.679  15.931  0.00  0.00    +0.000 HD
ENDBRANCH  26  27
ENDBRANCH  19  26
ENDBRANCH  18  23
ENDBRANCH  17  18
ENDBRANCH  16  17
ENDBRANCH   1  16
TORSDOF 8
ENDMDL
MODEL 4
REMARK VINA RESULT:      -7.8      1.482      1.870
REMARK  Name = 
REMARK  8 active torsions:
REMARK  status: ('A' for Active; 'I' for Inactive)
REMARK    1  A    between atoms: C_2  and  O_3
REMARK    2  A    between atoms: C_2  and  C_4
REMARK    3  A    between atoms: N_8  and  C_9
REMARK    4  A    between atoms: C_9  and  C_10
REMARK    5  A    between atoms: C_10  and  O_11
REMARK    6  A    between atoms: O_11  and  C_12
REMARK    7  A    between atoms: C_12  and  C_13
REMARK    8  A    between atoms: C_12  and  C_20
REMARK                            x       y       z     vdW  Elec       q    Type
REMARK                         _______ _______ _______ _____ _____    ______ ____
ROOT
ATOM      1  C   UNL     1       2.763   6.070  18.075  0.00  0.00    +0.000 C 
ENDROOT
BRANCH   1   2
ATOM      2  C   UNL     1       4.061   5.621  17.433  0.00  0.00    +0.000 A 
ATOM      3  C   UNL     1       5.160   6.488  17.322  0.00  0.00    +0.000 A 
ATOM      4  C   UNL     1       6.319   6.066  16.659  0.00  0.00    +0.000 A 
ATOM      5  C   UNL     1       6.388   4.780  16.107  0.00  0.00    +0.000 A 
ATOM      6  F   UNL     1       7.504   4.379  15.451  0.00  0.00    +0.000 F 
ATOM      7  C   UNL     1       5.299   3.913  16.222  0.00  0.00    +0.000 A 
ATOM      8  C   UNL     1       4.143   4.328  16.881  0.00  0.00    +0.000 A 
ENDBRANCH   1   2
BRANCH   1   9
ATOM      9  C   UNL     1       2.253   5.073  19.102  0.00  0.00    +0.000 A 
ATOM     10  C   UNL     1       1.341   4.050  18.761  0.00  0.00    +0.000 A 
ATOM     11  C   UNL     1       0.932   3.117  19.720  0.00  0.00    +0.000 A 
ATOM     12  C   UNL     1       1.420   3.194  21.026  0.00  0.00    +0.000 A 
ATOM     13  F   UNL     1       1.027   2.283  21.950  0.00  0.00    +0.000 F 
ATOM     14  C   UNL     1       2.317   4.204  21.377  0.00  0.00    +0.000 A 
ATOM     15  C   UNL     1       2.734   5.136  20.423  0.00  0.00    +0.000 A 
ENDBRANCH   1   9
BRANCH   1  16
ATOM     16  O   UNL     1       2.919   7.354  18.662  0.00  0.00    +0.000 OA
BRANCH  16  17
ATOM     17  C   UNL     1       1.758   8.169  18.545  0.00  0.00    +0.000 C 
BRANCH  17  18
ATOM     18  C   UNL     1       2.041   9.541  17.899  0.00  0.00    +0.000 C 
BRANCH  18  23
ATOM     19  C   UNL     1      -1.144  10.975  19.394  0.00  0.00    +0.000 C 
ATOM     20  C   UNL     1      -0.562  12.309  19.909  0.00  0.00    +0.000 C 
ATOM     21  C   UNL     1       0.524  12.843  18.963  0.00  0.00    +0.000 C 
ATOM     22  C   UNL     1       1.600  11.774  18.734  0.00  0.00    +0.000 C 
ATOM     23  N   UNL     1       0.989  10.526  18.222  0.00  0.00    +0.000 NA
ATOM     24  C   UNL     1       0.022   9.993  19.212  0.00  0.00    +0.000 C 
BRANCH  19  26
ATOM     25  O   UNL     1      -3.022  11.695  18.092  0.00  0.00    +0.000 OA
ATOM     26  C   UNL     1      -1.954  11.105  18.107  0.00  0.00    +0.000 C 
BRANCH  26  27
ATOM     27  O   UNL     1      -1.516  10.539  16.960  0.00  0.00    +0.000 OA
ATOM     28  H   UNL     1      -1.232   9.616  16.912  0.00  0.00    +0.000 HD
ENDBRANCH  26  27
ENDBRANCH  19  26
ENDBRANCH  18  23
ENDBRANCH  17  18
ENDBRANCH  16  17
ENDBRANCH   1  16
TORSDOF 8
ENDMDL
MODEL 5
REMARK VINA RESULT:      -7.7      0.461      1.040
REMARK  Name = 
REMARK  8 active torsions:
REMARK  status: ('A' for Active; 'I' for Inactive)
REMARK    1  A    between atoms: C_2  and  O_3
REMARK    2  A    between atoms: C_2  and  C_4
REMARK    3  A    between atoms: N_8  and  C_9
REMARK    4  A    between atoms: C_9  and  C_10
REMARK    5  A    between atoms: C_10  and  O_11
REMARK    6  A    between atoms: O_11  and  C_12
REMARK    7  A    between atoms: C_12  and  C_13
REMARK    8  A    between atoms: C_12  and  C_20
REMARK                            x       y       z     vdW  Elec       q    Type
REMARK                         _______ _______ _______ _____ _____    ______ ____
ROOT
ATOM      1  C   UNL     1       2.817   5.983  17.806  0.00  0.00    +0.000 C 
ENDROOT
BRANCH   1   2
ATOM      2  C   UNL     1       4.177   5.592  17.261  0.00  0.00    +0.000 A 
ATOM      3  C   UNL     1       5.259   6.487  17.288  0.00  0.00    +0.000 A 
ATOM      4  C   UNL     1       6.482   6.122  16.713  0.00  0.00    +0.000 A 
ATOM      5  C   UNL     1       6.633   4.866  16.112  0.00  0.00    +0.000 A 
ATOM      6  F   UNL     1       7.812   4.520  15.540  0.00  0.00    +0.000 F 
ATOM      7  C   UNL     1       5.560   3.971  16.090  0.00  0.00    +0.000 A 
ATOM      8  C   UNL     1       4.340   4.329  16.662  0.00  0.00    +0.000 A 
ENDBRANCH   1   2
BRANCH   1   9
ATOM      9  C   UNL     1       2.353   5.056  18.917  0.00  0.00    +0.000 A 
ATOM     10  C   UNL     1       2.798   5.207  20.249  0.00  0.00    +0.000 A 
ATOM     11  C   UNL     1       2.312   4.368  21.258  0.00  0.00    +0.000 A 
ATOM     12  C   UNL     1       1.385   3.369  20.953  0.00  0.00    +0.000 A 
ATOM     13  F   UNL     1       0.910   2.563  21.934  0.00  0.00    +0.000 F 
ATOM     14  C   UNL     1       0.943   3.206  19.639  0.00  0.00    +0.000 A 
ATOM     15  C   UNL     1       1.420   4.044  18.628  0.00  0.00    +0.000 A 
ENDBRANCH   1   9
BRANCH   1  16
ATOM     16  O   UNL     1       2.829   7.330  18.254  0.00  0.00    +0.000 OA
BRANCH  16  17
ATOM     17  C   UNL     1       1.581   7.991  18.080  0.00  0.00    +0.000 C 
BRANCH  17  18
ATOM     18  C   UNL     1       1.702   9.529  18.083  0.00  0.00    +0.000 C 
BRANCH  18  23
ATOM     19  C   UNL     1       0.281  11.915  20.675  0.00  0.00    +0.000 C 
ATOM     20  C   UNL     1      -1.058  12.229  19.973  0.00  0.00    +0.000 C 
ATOM     21  C   UNL     1      -1.594  10.998  19.228  0.00  0.00    +0.000 C 
ATOM     22  C   UNL     1      -0.531  10.456  18.264  0.00  0.00    +0.000 C 
ATOM     23  N   UNL     1       0.722  10.154  18.994  0.00  0.00    +0.000 NA
ATOM     24  C   UNL     1       1.258  11.390  19.613  0.00  0.00    +0.000 C 
BRANCH  19  26
ATOM     25  O   UNL     1      -0.380  11.259  22.882  0.00  0.00    +0.000 OA
ATOM     26  C   UNL     1       0.160  10.933  21.837  0.00  0.00    +0.000 C 
BRANCH  26  27
ATOM     27  O   UNL     1       0.678   9.689  21.741  0.00  0.00    +0.000 OA
ATOM     28  H   UNL     1       0.128   8.906  21.604  0.00  0.00    +0.000 HD
ENDBRANCH  26  27
ENDBRANCH  19  26
ENDBRANCH  18  23
ENDBRANCH  17  18
ENDBRANCH  16  17
ENDBRANCH   1  16
TORSDOF 8
ENDMDL
MODEL 6
REMARK VINA RESULT:      -7.7      1.157      1.847
REMARK  Name = 
REMARK  8 active torsions:
REMARK  status: ('A' for Active; 'I' for Inactive)
REMARK    1  A    between atoms: C_2  and  O_3
REMARK    2  A    between atoms: C_2  and  C_4
REMARK    3  A    between atoms: N_8  and  C_9
REMARK    4  A    between atoms: C_9  and  C_10
REMARK    5  A    between atoms: C_10  and  O_11
REMARK    6  A    between atoms: O_11  and  C_12
REMARK    7  A    between atoms: C_12  and  C_13
REMARK    8  A    between atoms: C_12  and  C_20
REMARK                            x       y       z     vdW  Elec       q    Type
REMARK                         _______ _______ _______ _____ _____    ______ ____
ROOT
ATOM      1  C   UNL     1       2.773   5.921  17.857  0.00  0.00    +0.000 C 
ENDROOT
BRANCH   1   2
ATOM      2  C   UNL     1       4.119   5.530  17.281  0.00  0.00    +0.000 A 
ATOM      3  C   UNL     1       5.181   6.448  17.217  0.00  0.00    +0.000 A 
ATOM      4  C   UNL     1       6.389   6.079  16.614  0.00  0.00    +0.000 A 
ATOM      5  C   UNL     1       6.545   4.796  16.074  0.00  0.00    +0.000 A 
ATOM      6  F   UNL     1       7.709   4.445  15.474  0.00  0.00    +0.000 F 
ATOM      7  C   UNL     1       5.493   3.878  16.141  0.00  0.00    +0.000 A 
ATOM      8  C   UNL     1       4.289   4.241  16.742  0.00  0.00    +0.000 A 
ENDBRANCH   1   2
BRANCH   1   9
ATOM      9  C   UNL     1       2.328   4.983  18.968  0.00  0.00    +0.000 A 
ATOM     10  C   UNL     1       2.816   5.103  20.287  0.00  0.00    +0.000 A 
ATOM     11  C   UNL     1       2.347   4.256  21.297  0.00  0.00    +0.000 A 
ATOM     12  C   UNL     1       1.393   3.279  21.004  0.00  0.00    +0.000 A 
ATOM     13  F   UNL     1       0.936   2.464  21.987  0.00  0.00    +0.000 F 
ATOM     14  C   UNL     1       0.908   3.145  19.702  0.00  0.00    +0.000 A 
ATOM     15  C   UNL     1       1.368   3.992  18.691  0.00  0.00    +0.000 A 
ENDBRANCH   1   9
BRANCH   1  16
ATOM     16  O   UNL     1       2.801   7.263  18.321  0.00  0.00    +0.000 OA
BRANCH  16  17
ATOM     17  C   UNL     1       1.513   7.865  18.374  0.00  0.00    +0.000 C 
BRANCH  17  18
ATOM     18  C   UNL     1       1.564   9.389  18.611  0.00  0.00    +0.000 C 
BRANCH  18  23
ATOM     19  C   UNL     1      -0.770  10.606  21.351  0.00  0.00    +0.000 C 
ATOM     20  C   UNL     1      -0.487   9.497  22.387  0.00  0.00    +0.000 C 
ATOM     21  C   UNL     1       0.982   9.053  22.337  0.00  0.00    +0.000 C 
ATOM     22  C   UNL     1       1.364   8.642  20.909  0.00  0.00    +0.000 C 
ATOM     23  N   UNL     1       1.091   9.749  19.963  0.00  0.00    +0.000 NA
ATOM     24  C   UNL     1      -0.355  10.077  19.971  0.00  0.00    +0.000 C 
BRANCH  19  26
ATOM     25  O   UNL     1      -0.275  12.516  22.710  0.00  0.00    +0.000 OA
ATOM     26  C   UNL     1      -0.080  11.933  21.656  0.00  0.00    +0.000 C 
BRANCH  26  27
ATOM     27  O   UNL     1       0.739  12.506  20.746  0.00  0.00    +0.000 OA
ATOM     28  H   UNL     1       1.604  12.868  20.981  0.00  0.00    +0.000 HD
ENDBRANCH  26  27
ENDBRANCH  19  26
ENDBRANCH  18  23
ENDBRANCH  17  18
ENDBRANCH  16  17
ENDBRANCH   1  16
TORSDOF 8
ENDMDL
MODEL 7
REMARK VINA RESULT:      -7.7      1.246      2.053
REMARK  Name = 
REMARK  8 active torsions:
REMARK  status: ('A' for Active; 'I' for Inactive)
REMARK    1  A    between atoms: C_2  and  O_3
REMARK    2  A    between atoms: C_2  and  C_4
REMARK    3  A    between atoms: N_8  and  C_9
REMARK    4  A    between atoms: C_9  and  C_10
REMARK    5  A    between atoms: C_10  and  O_11
REMARK    6  A    between atoms: O_11  and  C_12
REMARK    7  A    between atoms: C_12  and  C_13
REMARK    8  A    between atoms: C_12  and  C_20
REMARK                            x       y       z     vdW  Elec       q    Type
REMARK                         _______ _______ _______ _____ _____    ______ ____
ROOT
ATOM      1  C   UNL     1       2.624   5.880  18.025  0.00  0.00    +0.000 C 
ENDROOT
BRANCH   1   2
ATOM      2  C   UNL     1       3.963   5.523  17.411  0.00  0.00    +0.000 A 
ATOM      3  C   UNL     1       4.173   4.283  16.787  0.00  0.00    +0.000 A 
ATOM      4  C   UNL     1       5.441   3.954  16.293  0.00  0.00    +0.000 A 
ATOM      5  C   UNL     1       6.503   4.859  16.418  0.00  0.00    +0.000 A 
ATOM      6  F   UNL     1       7.735   4.534  15.955  0.00  0.00    +0.000 F 
ATOM      7  C   UNL     1       6.296   6.097  17.032  0.00  0.00    +0.000 A 
ATOM      8  C   UNL     1       5.035   6.429  17.524  0.00  0.00    +0.000 A 
ENDBRANCH   1   2
BRANCH   1   9
ATOM      9  C   UNL     1       2.220   4.916  19.128  0.00  0.00    +0.000 A 
ATOM     10  C   UNL     1       2.750   5.009  20.433  0.00  0.00    +0.000 A 
ATOM     11  C   UNL     1       2.318   4.137  21.438  0.00  0.00    +0.000 A 
ATOM     12  C   UNL     1       1.360   3.161  21.155  0.00  0.00    +0.000 A 
ATOM     13  F   UNL     1       0.938   2.322  22.133  0.00  0.00    +0.000 F 
ATOM     14  C   UNL     1       0.833   3.054  19.866  0.00  0.00    +0.000 A 
ATOM     15  C   UNL     1       1.256   3.926  18.860  0.00  0.00    +0.000 A 
ENDBRANCH   1   9
BRANCH   1  16
ATOM     16  O   UNL     1       2.641   7.214  18.512  0.00  0.00    +0.000 OA
BRANCH  16  17
ATOM     17  C   UNL     1       1.711   8.065  17.851  0.00  0.00    +0.000 C 
BRANCH  17  18
ATOM     18  C   UNL     1       2.091   9.558  17.929  0.00  0.00    +0.000 C 
BRANCH  18  23
ATOM     19  C   UNL     1      -1.151  11.145  19.113  0.00  0.00    +0.000 C 
ATOM     20  C   UNL     1      -1.083  10.705  20.591  0.00  0.00    +0.000 C 
ATOM     21  C   UNL     1       0.365  10.697  21.101  0.00  0.00    +0.000 C 
ATOM     22  C   UNL     1       1.246   9.838  20.184  0.00  0.00    +0.000 C 
ATOM     23  N   UNL     1       1.158  10.317  18.785  0.00  0.00    +0.000 NA
ATOM     24  C   UNL     1      -0.240  10.213  18.302  0.00  0.00    +0.000 C 
BRANCH  19  26
ATOM     25  O   UNL     1      -1.284  13.497  19.545  0.00  0.00    +0.000 OA
ATOM     26  C   UNL     1      -0.780  12.607  18.880  0.00  0.00    +0.000 C 
BRANCH  26  27
ATOM     27  O   UNL     1       0.095  12.947  17.908  0.00  0.00    +0.000 OA
ATOM     28  H   UNL     1       1.049  12.817  17.999  0.00  0.00    +0.000 HD
ENDBRANCH  26  27
ENDBRANCH  19  26
ENDBRANCH  18  23
ENDBRANCH  17  18
ENDBRANCH  16  17
ENDBRANCH   1  16
TORSDOF 8
ENDMDL
MODEL 8
REMARK VINA RESULT:      -7.6      1.364      4.606
REMARK  Name = 
REMARK  8 active torsions:
REMARK  status: ('A' for Active; 'I' for Inactive)
REMARK    1  A    between atoms: C_2  and  O_3
REMARK    2  A    between atoms: C_2  and  C_4
REMARK    3  A    between atoms: N_8  and  C_9
REMARK    4  A    between atoms: C_9  and  C_10
REMARK    5  A    between atoms: C_10  and  O_11
REMARK    6  A    between atoms: O_11  and  C_12
REMARK    7  A    between atoms: C_12  and  C_13
REMARK    8  A    between atoms: C_12  and  C_20
REMARK                            x       y       z     vdW  Elec       q    Type
REMARK                         _______ _______ _______ _____ _____    ______ ____
ROOT
ATOM      1  C   UNL     1       3.594   6.118  18.621  0.00  0.00    +0.000 C 
ENDROOT
BRANCH   1   2
ATOM      2  C   UNL     1       3.033   4.977  19.448  0.00  0.00    +0.000 A 
ATOM      3  C   UNL     1       1.719   5.010  19.941  0.00  0.00    +0.000 A 
ATOM      4  C   UNL     1       1.254   3.975  20.762  0.00  0.00    +0.000 A 
ATOM      5  C   UNL     1       2.095   2.904  21.092  0.00  0.00    +0.000 A 
ATOM      6  F   UNL     1       1.651   1.911  21.901  0.00  0.00    +0.000 F 
ATOM      7  C   UNL     1       3.402   2.866  20.598  0.00  0.00    +0.000 A 
ATOM      8  C   UNL     1       3.868   3.893  19.780  0.00  0.00    +0.000 A 
ENDBRANCH   1   2
BRANCH   1   9
ATOM      9  C   UNL     1       4.629   5.644  17.614  0.00  0.00    +0.000 A 
ATOM     10  C   UNL     1       4.319   4.699  16.612  0.00  0.00    +0.000 A 
ATOM     11  C   UNL     1       5.282   4.324  15.669  0.00  0.00    +0.000 A 
ATOM     12  C   UNL     1       6.562   4.879  15.716  0.00  0.00    +0.000 A 
ATOM     13  F   UNL     1       7.491   4.518  14.796  0.00  0.00    +0.000 F 
ATOM     14  C   UNL     1       6.883   5.809  16.707  0.00  0.00    +0.000 A 
ATOM     15  C   UNL     1       5.924   6.192  17.648  0.00  0.00    +0.000 A 
ENDBRANCH   1   9
BRANCH   1  16
ATOM     16  O   UNL     1       2.546   6.817  17.966  0.00  0.00    +0.000 OA
BRANCH  16  17
ATOM     17  C   UNL     1       2.717   8.230  17.985  0.00  0.00    +0.000 C 
BRANCH  17  18
ATOM     18  C   UNL     1       1.382   9.004  17.992  0.00  0.00    +0.000 C 
BRANCH  18  23
ATOM     19  C   UNL     1      -0.368  11.084  20.646  0.00  0.00    +0.000 C 
ATOM     20  C   UNL     1      -0.243  10.089  21.821  0.00  0.00    +0.000 C 
ATOM     21  C   UNL     1       1.082   9.315  21.753  0.00  0.00    +0.000 C 
ATOM     22  C   UNL     1       1.232   8.639  20.384  0.00  0.00    +0.000 C 
ATOM     23  N   UNL     1       1.125   9.642  19.299  0.00  0.00    +0.000 NA
ATOM     24  C   UNL     1      -0.207  10.292  19.340  0.00  0.00    +0.000 C 
BRANCH  19  26
ATOM     25  O   UNL     1       0.771  12.892  21.729  0.00  0.00    +0.000 OA
ATOM     26  C   UNL     1       0.622  12.244  20.706  0.00  0.00    +0.000 C 
BRANCH  26  27
ATOM     27  O   UNL     1       1.332  12.597  19.612  0.00  0.00    +0.000 OA
ATOM     28  H   UNL     1       2.294  12.690  19.625  0.00  0.00    +0.000 HD
ENDBRANCH  26  27
ENDBRANCH  19  26
ENDBRANCH  18  23
ENDBRANCH  17  18
ENDBRANCH  16  17
ENDBRANCH   1  16
TORSDOF 8
ENDMDL
MODEL 9
REMARK VINA RESULT:      -7.6      1.339      1.730
REMARK  Name = 
REMARK  8 active torsions:
REMARK  status: ('A' for Active; 'I' for Inactive)
REMARK    1  A    between atoms: C_2  and  O_3
REMARK    2  A    between atoms: C_2  and  C_4
REMARK    3  A    between atoms: N_8  and  C_9
REMARK    4  A    between atoms: C_9  and  C_10
REMARK    5  A    between atoms: C_10  and  O_11
REMARK    6  A    between atoms: O_11  and  C_12
REMARK    7  A    between atoms: C_12  and  C_13
REMARK    8  A    between atoms: C_12  and  C_20
REMARK                            x       y       z     vdW  Elec       q    Type
REMARK                         _______ _______ _______ _____ _____    ______ ____
ROOT
ATOM      1  C   UNL     1       2.788   6.158  18.143  0.00  0.00    +0.000 C 
ENDROOT
BRANCH   1   2
ATOM      2  C   UNL     1       4.064   5.693  17.470  0.00  0.00    +0.000 A 
ATOM      3  C   UNL     1       5.159   6.557  17.305  0.00  0.00    +0.000 A 
ATOM      4  C   UNL     1       6.297   6.119  16.617  0.00  0.00    +0.000 A 
ATOM      5  C   UNL     1       6.349   4.822  16.091  0.00  0.00    +0.000 A 
ATOM      6  F   UNL     1       7.444   4.405  15.409  0.00  0.00    +0.000 F 
ATOM      7  C   UNL     1       5.263   3.958  16.259  0.00  0.00    +0.000 A 
ATOM      8  C   UNL     1       4.129   4.388  16.945  0.00  0.00    +0.000 A 
ENDBRANCH   1   2
BRANCH   1   9
ATOM      9  C   UNL     1       2.261   5.142  19.143  0.00  0.00    +0.000 A 
ATOM     10  C   UNL     1       1.348   4.131  18.771  0.00  0.00    +0.000 A 
ATOM     11  C   UNL     1       0.923   3.181  19.705  0.00  0.00    +0.000 A 
ATOM     12  C   UNL     1       1.397   3.228  21.018  0.00  0.00    +0.000 A 
ATOM     13  F   UNL     1       0.989   2.301  21.919  0.00  0.00    +0.000 F 
ATOM     14  C   UNL     1       2.295   4.227  21.400  0.00  0.00    +0.000 A 
ATOM     15  C   UNL     1       2.727   5.176  20.470  0.00  0.00    +0.000 A 
ENDBRANCH   1   9
BRANCH   1  16
ATOM     16  O   UNL     1       2.986   7.417  18.769  0.00  0.00    +0.000 OA
BRANCH  16  17
ATOM     17  C   UNL     1       1.825   8.239  18.758  0.00  0.00    +0.000 C 
BRANCH  17  18
ATOM     18  C   UNL     1       1.337   8.621  20.170  0.00  0.00    +0.000 C 
BRANCH  18  23
ATOM     19  C   UNL     1      -0.877  11.529  19.131  0.00  0.00    +0.000 C 
ATOM     20  C   UNL     1      -1.412  11.906  20.529  0.00  0.00    +0.000 C 
ATOM     21  C   UNL     1      -0.340  11.696  21.608  0.00  0.00    +0.000 C 
ATOM     22  C   UNL     1       0.200  10.261  21.547  0.00  0.00    +0.000 C 
ATOM     23  N   UNL     1       0.718   9.962  20.192  0.00  0.00    +0.000 NA
ATOM     24  C   UNL     1      -0.374  10.079  19.195  0.00  0.00    +0.000 C 
BRANCH  19  26
ATOM     25  O   UNL     1       0.032  13.666  18.542  0.00  0.00    +0.000 OA
ATOM     26  C   UNL     1       0.213  12.461  18.609  0.00  0.00    +0.000 C 
BRANCH  26  27
ATOM     27  O   UNL     1       1.394  11.963  18.178  0.00  0.00    +0.000 OA
ATOM     28  H   UNL     1       1.515  11.030  17.958  0.00  0.00    +0.000 HD
ENDBRANCH  26  27
ENDBRANCH  19  26
ENDBRANCH  18  23
ENDBRANCH  17  18
ENDBRANCH  16  17
ENDBRANCH   1  16
TORSDOF 8
ENDMDL
