MODEL 1
REMARK VINA RESULT:      -7.5      0.000      0.000
REMARK  Name = 
REMARK  4 active torsions:
REMARK  status: ('A' for Active; 'I' for Inactive)
REMARK    1  A    between atoms: C_4  and  C_5
REMARK    2  A    between atoms: C_5  and  N_6
REMARK    3  A    between atoms: C_7  and  C_8
REMARK    4  A    between atoms: C_18  and  C_19
REMARK                            x       y       z     vdW  Elec       q    Type
REMARK                         _______ _______ _______ _____ _____    ______ ____
ROOT
ATOM      1  N   UNL     1      -3.911  12.794  20.394  0.00  0.00    +0.000 NA
ATOM      2  C   UNL     1      -2.744  11.873  20.360  0.00  0.00    +0.000 C 
ATOM      3  C   UNL     1      -1.436  12.377  20.883  0.00  0.00    +0.000 C 
ATOM      4  C   UNL     1      -1.263  13.674  21.164  0.00  0.00    +0.000 C 
ATOM      5  N   UNL     1       0.069  13.899  21.352  0.00  0.00    +0.000 N 
ATOM      6  O   UNL     1       0.829  12.702  21.439  0.00  0.00    +0.000 OA
ATOM      7  C   UNL     1      -0.111  11.576  21.078  0.00  0.00    +0.000 C 
ATOM      8  C   UNL     1      -2.336  14.750  21.061  0.00  0.00    +0.000 C 
ATOM      9  C   UNL     1      -2.366  15.855  22.152  0.00  0.00    +0.000 C 
ATOM     10  C   UNL     1      -3.654  16.690  22.067  0.00  0.00    +0.000 C 
ATOM     11  C   UNL     1      -4.834  15.854  22.534  0.00  0.00    +0.000 C 
ATOM     12  C   UNL     1      -4.792  14.431  21.973  0.00  0.00    +0.000 C 
ATOM     13  C   UNL     1      -3.778  14.196  20.810  0.00  0.00    +0.000 C 
ATOM     14  H   UNL     1       0.390  14.704  21.879  0.00  0.00    +0.000 HD
ENDROOT
BRANCH   7  15
ATOM     15  C   UNL     1       0.569  10.680  19.952  0.00  0.00    +0.000 A 
ATOM     16  C   UNL     1       1.175  11.251  18.838  0.00  0.00    +0.000 A 
ATOM     17  N   UNL     1       1.225  10.294  17.874  0.00  0.00    +0.000 N 
ATOM     18  C   UNL     1       1.603   9.142  18.498  0.00  0.00    +0.000 A 
ATOM     19  C   UNL     1       2.230   8.006  17.937  0.00  0.00    +0.000 A 
ATOM     20  C   UNL     1       2.489   6.937  18.780  0.00  0.00    +0.000 A 
ATOM     21  C   UNL     1       2.080   6.999  20.107  0.00  0.00    +0.000 A 
ATOM     22  C   UNL     1       1.402   8.158  20.646  0.00  0.00    +0.000 A 
ATOM     23  C   UNL     1       1.160   9.290  19.830  0.00  0.00    +0.000 A 
ATOM     24  H   UNL     1       0.602  10.262  17.080  0.00  0.00    +0.000 HD
ENDBRANCH   7  15
BRANCH   2  25
ATOM     25  C   UNL     1      -2.432  11.358  18.974  0.00  0.00    +0.000 A 
ATOM     26  C   UNL     1      -2.680   9.999  18.656  0.00  0.00    +0.000 A 
ATOM     27  C   UNL     1      -2.618   9.590  17.334  0.00  0.00    +0.000 A 
ATOM     28  C   UNL     1      -2.278  10.492  16.338  0.00  0.00    +0.000 A 
ATOM     29  C   UNL     1      -1.959  11.816  16.666  0.00  0.00    +0.000 A 
ATOM     30  C   UNL     1      -2.025  12.262  17.973  0.00  0.00    +0.000 A 
ENDBRANCH   2  25
BRANCH   1  31
ATOM     31  C   UNL     1      -4.960  12.624  19.371  0.00  0.00    +0.000 C 
BRANCH  31  35
ATOM     32  C   UNL     1      -7.824   9.648  20.557  0.00  0.00    +0.000 A 
ATOM     33  C   UNL     1      -7.710  10.830  21.287  0.00  0.00    +0.000 A 
ATOM     34  C   UNL     1      -6.827  11.817  20.865  0.00  0.00    +0.000 A 
ATOM     35  C   UNL     1      -6.024  11.617  19.739  0.00  0.00    +0.000 A 
ATOM     36  C   UNL     1      -6.173  10.442  18.983  0.00  0.00    +0.000 A 
ATOM     37  C   UNL     1      -7.076   9.456  19.411  0.00  0.00    +0.000 A 
ENDBRANCH  31  35
ENDBRANCH   1  31
TORSDOF 4
ENDMDL
MODEL 2
REMARK VINA RESULT:      -7.3      2.212      7.709
REMARK  Name = 
REMARK  4 active torsions:
REMARK  status: ('A' for Active; 'I' for Inactive)
REMARK    1  A    between atoms: C_4  and  C_5
REMARK    2  A    between atoms: C_5  and  N_6
REMARK    3  A    between atoms: C_7  and  C_8
REMARK    4  A    between atoms: C_18  and  C_19
REMARK                            x       y       z     vdW  Elec       q    Type
REMARK                         _______ _______ _______ _____ _____    ______ ____
ROOT
ATOM      1  N   UNL     1      -1.742  11.364  19.345  0.00  0.00    +0.000 NA
ATOM      2  C   UNL     1      -2.520  11.883  20.502  0.00  0.00    +0.000 C 
ATOM      3  C   UNL     1      -3.945  12.274  20.271  0.00  0.00    +0.000 C 
ATOM      4  C   UNL     1      -4.440  12.365  19.031  0.00  0.00    +0.000 C 
ATOM      5  N   UNL     1      -5.648  12.994  19.096  0.00  0.00    +0.000 N 
ATOM      6  O   UNL     1      -6.129  13.140  20.424  0.00  0.00    +0.000 OA
ATOM      7  C   UNL     1      -5.000  12.716  21.333  0.00  0.00    +0.000 C 
ATOM      8  C   UNL     1      -3.682  12.036  17.752  0.00  0.00    +0.000 C 
ATOM      9  C   UNL     1      -4.455  11.324  16.609  0.00  0.00    +0.000 C 
ATOM     10  C   UNL     1      -3.499  10.818  15.516  0.00  0.00    +0.000 C 
ATOM     11  C   UNL     1      -2.702   9.638  16.044  0.00  0.00    +0.000 C 
ATOM     12  C   UNL     1      -2.197   9.872  17.470  0.00  0.00    +0.000 C 
ATOM     13  C   UNL     1      -2.299  11.341  17.987  0.00  0.00    +0.000 C 
ATOM     14  H   UNL     1      -6.332  12.883  18.354  0.00  0.00    +0.000 HD
ENDROOT
BRANCH   7  15
ATOM     15  C   UNL     1      -4.757  13.855  22.418  0.00  0.00    +0.000 A 
ATOM     16  C   UNL     1      -4.363  13.548  23.715  0.00  0.00    +0.000 A 
ATOM     17  N   UNL     1      -4.692  14.612  24.496  0.00  0.00    +0.000 N 
ATOM     18  C   UNL     1      -4.350  15.726  23.789  0.00  0.00    +0.000 A 
ATOM     19  C   UNL     1      -4.056  17.019  24.280  0.00  0.00    +0.000 A 
ATOM     20  C   UNL     1      -3.762  18.003  23.350  0.00  0.00    +0.000 A 
ATOM     21  C   UNL     1      -3.821  17.702  21.994  0.00  0.00    +0.000 A 
ATOM     22  C   UNL     1      -4.167  16.381  21.518  0.00  0.00    +0.000 A 
ATOM     23  C   UNL     1      -4.428  15.334  22.436  0.00  0.00    +0.000 A 
ATOM     24  H   UNL     1      -5.488  14.627  25.118  0.00  0.00    +0.000 HD
ENDBRANCH   7  15
BRANCH   2  25
ATOM     25  C   UNL     1      -1.888  13.094  21.148  0.00  0.00    +0.000 A 
ATOM     26  C   UNL     1      -1.402  13.009  22.477  0.00  0.00    +0.000 A 
ATOM     27  C   UNL     1      -0.620  14.035  22.979  0.00  0.00    +0.000 A 
ATOM     28  C   UNL     1      -0.346  15.151  22.204  0.00  0.00    +0.000 A 
ATOM     29  C   UNL     1      -0.891  15.265  20.919  0.00  0.00    +0.000 A 
ATOM     30  C   UNL     1      -1.665  14.253  20.381  0.00  0.00    +0.000 A 
ENDBRANCH   2  25
BRANCH   1  31
ATOM     31  C   UNL     1      -0.283  11.580  19.335  0.00  0.00    +0.000 C 
BRANCH  31  35
ATOM     32  C   UNL     1       1.831   7.924  20.127  0.00  0.00    +0.000 A 
ATOM     33  C   UNL     1       1.904   8.507  18.862  0.00  0.00    +0.000 A 
ATOM     34  C   UNL     1       1.270   9.721  18.627  0.00  0.00    +0.000 A 
ATOM     35  C   UNL     1       0.527  10.341  19.635  0.00  0.00    +0.000 A 
ATOM     36  C   UNL     1       0.492   9.771  20.919  0.00  0.00    +0.000 A 
ATOM     37  C   UNL     1       1.145   8.550  21.150  0.00  0.00    +0.000 A 
ENDBRANCH  31  35
ENDBRANCH   1  31
TORSDOF 4
ENDMDL
MODEL 3
REMARK VINA RESULT:      -7.2      2.289      7.513
REMARK  Name = 
REMARK  4 active torsions:
REMARK  status: ('A' for Active; 'I' for Inactive)
REMARK    1  A    between atoms: C_4  and  C_5
REMARK    2  A    between atoms: C_5  and  N_6
REMARK    3  A    between atoms: C_7  and  C_8
REMARK    4  A    between atoms: C_18  and  C_19
REMARK                            x       y       z     vdW  Elec       q    Type
REMARK                         _______ _______ _______ _____ _____    ______ ____
ROOT
ATOM      1  N   UNL     1      -1.335  11.320  18.922  0.00  0.00    +0.000 NA
ATOM      2  C   UNL     1      -1.979  12.012  20.069  0.00  0.00    +0.000 C 
ATOM      3  C   UNL     1      -3.406  12.437  19.922  0.00  0.00    +0.000 C 
ATOM      4  C   UNL     1      -4.015  12.397  18.732  0.00  0.00    +0.000 C 
ATOM      5  N   UNL     1      -5.189  13.084  18.827  0.00  0.00    +0.000 N 
ATOM      6  O   UNL     1      -5.534  13.415  20.164  0.00  0.00    +0.000 OA
ATOM      7  C   UNL     1      -4.337  13.053  21.012  0.00  0.00    +0.000 C 
ATOM      8  C   UNL     1      -3.395  11.879  17.441  0.00  0.00    +0.000 C 
ATOM      9  C   UNL     1      -4.299  11.068  16.473  0.00  0.00    +0.000 C 
ATOM     10  C   UNL     1      -3.471  10.389  15.370  0.00  0.00    +0.000 C 
ATOM     11  C   UNL     1      -2.667   9.247  15.968  0.00  0.00    +0.000 C 
ATOM     12  C   UNL     1      -2.019   9.631  17.300  0.00  0.00    +0.000 C 
ATOM     13  C   UNL     1      -2.020  11.156  17.634  0.00  0.00    +0.000 C 
ATOM     14  H   UNL     1      -5.944  12.914  18.171  0.00  0.00    +0.000 HD
ENDROOT
BRANCH   7  15
ATOM     15  C   UNL     1      -3.952  14.305  21.917  0.00  0.00    +0.000 A 
ATOM     16  C   UNL     1      -4.474  15.569  21.666  0.00  0.00    +0.000 A 
ATOM     17  N   UNL     1      -3.640  16.471  22.251  0.00  0.00    +0.000 N 
ATOM     18  C   UNL     1      -3.317  15.957  23.472  0.00  0.00    +0.000 A 
ATOM     19  C   UNL     1      -2.880  16.648  24.625  0.00  0.00    +0.000 A 
ATOM     20  C   UNL     1      -2.582  15.892  25.747  0.00  0.00    +0.000 A 
ATOM     21  C   UNL     1      -2.667  14.506  25.680  0.00  0.00    +0.000 A 
ATOM     22  C   UNL     1      -3.076  13.822  24.473  0.00  0.00    +0.000 A 
ATOM     23  C   UNL     1      -3.436  14.559  23.318  0.00  0.00    +0.000 A 
ATOM     24  H   UNL     1      -2.974  17.032  21.741  0.00  0.00    +0.000 HD
ENDBRANCH   7  15
BRANCH   2  25
ATOM     25  C   UNL     1      -1.247  13.263  20.496  0.00  0.00    +0.000 A 
ATOM     26  C   UNL     1      -1.346  14.440  19.712  0.00  0.00    +0.000 A 
ATOM     27  C   UNL     1      -0.873  15.637  20.223  0.00  0.00    +0.000 A 
ATOM     28  C   UNL     1      -0.276  15.677  21.473  0.00  0.00    +0.000 A 
ATOM     29  C   UNL     1      -0.111  14.499  22.213  0.00  0.00    +0.000 A 
ATOM     30  C   UNL     1      -0.583  13.288  21.739  0.00  0.00    +0.000 A 
ENDBRANCH   2  25
BRANCH   1  31
ATOM     31  C   UNL     1       0.123  11.466  18.750  0.00  0.00    +0.000 C 
BRANCH  31  35
ATOM     32  C   UNL     1       2.149   7.722  19.333  0.00  0.00    +0.000 A 
ATOM     33  C   UNL     1       2.256   8.385  18.111  0.00  0.00    +0.000 A 
ATOM     34  C   UNL     1       1.650   9.625  17.946  0.00  0.00    +0.000 A 
ATOM     35  C   UNL     1       0.903  10.193  18.981  0.00  0.00    +0.000 A 
ATOM     36  C   UNL     1       0.835   9.541  20.224  0.00  0.00    +0.000 A 
ATOM     37  C   UNL     1       1.459   8.294  20.384  0.00  0.00    +0.000 A 
ENDBRANCH  31  35
ENDBRANCH   1  31
TORSDOF 4
ENDMDL
MODEL 4
REMARK VINA RESULT:      -7.2      2.335      7.963
REMARK  Name = 
REMARK  4 active torsions:
REMARK  status: ('A' for Active; 'I' for Inactive)
REMARK    1  A    between atoms: C_4  and  C_5
REMARK    2  A    between atoms: C_5  and  N_6
REMARK    3  A    between atoms: C_7  and  C_8
REMARK    4  A    between atoms: C_18  and  C_19
REMARK                            x       y       z     vdW  Elec       q    Type
REMARK                         _______ _______ _______ _____ _____    ______ ____
ROOT
ATOM      1  N   UNL     1      -2.359  11.564  19.723  0.00  0.00    +0.000 NA
ATOM      2  C   UNL     1      -3.338  12.031  20.740  0.00  0.00    +0.000 C 
ATOM      3  C   UNL     1      -4.734  12.322  20.290  0.00  0.00    +0.000 C 
ATOM      4  C   UNL     1      -5.039  12.376  18.989  0.00  0.00    +0.000 C 
ATOM      5  N   UNL     1      -6.282  12.920  18.860  0.00  0.00    +0.000 N 
ATOM      6  O   UNL     1      -6.970  13.036  20.098  0.00  0.00    +0.000 OA
ATOM      7  C   UNL     1      -5.967  12.691  21.173  0.00  0.00    +0.000 C 
ATOM      8  C   UNL     1      -4.073  12.098  17.844  0.00  0.00    +0.000 C 
ATOM      9  C   UNL     1      -4.612  11.333  16.605  0.00  0.00    +0.000 C 
ATOM     10  C   UNL     1      -3.468  10.893  15.677  0.00  0.00    +0.000 C 
ATOM     11  C   UNL     1      -2.682   9.771  16.335  0.00  0.00    +0.000 C 
ATOM     12  C   UNL     1      -2.419  10.041  17.818  0.00  0.00    +0.000 C 
ATOM     13  C   UNL     1      -2.698  11.501  18.296  0.00  0.00    +0.000 C 
ATOM     14  H   UNL     1      -6.835  12.762  18.025  0.00  0.00    +0.000 HD
ENDROOT
BRANCH   7  15
ATOM     15  C   UNL     1      -5.970  13.846  22.269  0.00  0.00    +0.000 A 
ATOM     16  C   UNL     1      -5.769  13.569  23.616  0.00  0.00    +0.000 A 
ATOM     17  N   UNL     1      -6.284  14.611  24.322  0.00  0.00    +0.000 N 
ATOM     18  C   UNL     1      -5.904  15.743  23.664  0.00  0.00    +0.000 A 
ATOM     19  C   UNL     1      -5.773  17.053  24.179  0.00  0.00    +0.000 A 
ATOM     20  C   UNL     1      -5.397  18.052  23.295  0.00  0.00    +0.000 A 
ATOM     21  C   UNL     1      -5.221  17.744  21.950  0.00  0.00    +0.000 A 
ATOM     22  C   UNL     1      -5.404  16.402  21.442  0.00  0.00    +0.000 A 
ATOM     23  C   UNL     1      -5.741  15.343  22.320  0.00  0.00    +0.000 A 
ATOM     24  H   UNL     1      -7.167  14.577  24.810  0.00  0.00    +0.000 HD
ENDBRANCH   7  15
BRANCH   2  25
ATOM     25  C   UNL     1      -2.896  13.283  21.461  0.00  0.00    +0.000 A 
ATOM     26  C   UNL     1      -2.623  13.236  22.852  0.00  0.00    +0.000 A 
ATOM     27  C   UNL     1      -1.998  14.313  23.456  0.00  0.00    +0.000 A 
ATOM     28  C   UNL     1      -1.677  15.441  22.718  0.00  0.00    +0.000 A 
ATOM     29  C   UNL     1      -2.017  15.514  21.360  0.00  0.00    +0.000 A 
ATOM     30  C   UNL     1      -2.629  14.451  20.721  0.00  0.00    +0.000 A 
ENDBRANCH   2  25
BRANCH   1  31
ATOM     31  C   UNL     1      -0.933  11.881  19.932  0.00  0.00    +0.000 C 
BRANCH  31  35
ATOM     32  C   UNL     1       1.090   8.636  21.892  0.00  0.00    +0.000 A 
ATOM     33  C   UNL     1       1.218   8.801  20.513  0.00  0.00    +0.000 A 
ATOM     34  C   UNL     1       0.613   9.887  19.891  0.00  0.00    +0.000 A 
ATOM     35  C   UNL     1      -0.155  10.790  20.630  0.00  0.00    +0.000 A 
ATOM     36  C   UNL     1      -0.245  10.643  22.025  0.00  0.00    +0.000 A 
ATOM     37  C   UNL     1       0.379   9.549  22.645  0.00  0.00    +0.000 A 
ENDBRANCH  31  35
ENDBRANCH   1  31
TORSDOF 4
ENDMDL
MODEL 5
REMARK VINA RESULT:      -7.1      2.239      7.558
REMARK  Name = 
REMARK  4 active torsions:
REMARK  status: ('A' for Active; 'I' for Inactive)
REMARK    1  A    between atoms: C_4  and  C_5
REMARK    2  A    between atoms: C_5  and  N_6
REMARK    3  A    between atoms: C_7  and  C_8
REMARK    4  A    between atoms: C_18  and  C_19
REMARK                            x       y       z     vdW  Elec       q    Type
REMARK                         _______ _______ _______ _____ _____    ______ ____
ROOT
ATOM      1  N   UNL     1      -1.541  11.192  18.970  0.00  0.00    +0.000 NA
ATOM      2  C   UNL     1      -2.184  11.800  20.164  0.00  0.00    +0.000 C 
ATOM      3  C   UNL     1      -3.599  12.270  20.036  0.00  0.00    +0.000 C 
ATOM      4  C   UNL     1      -4.191  12.347  18.839  0.00  0.00    +0.000 C 
ATOM      5  N   UNL     1      -5.350  13.052  18.978  0.00  0.00    +0.000 N 
ATOM      6  O   UNL     1      -5.707  13.276  20.334  0.00  0.00    +0.000 OA
ATOM      7  C   UNL     1      -4.531  12.814  21.163  0.00  0.00    +0.000 C 
ATOM      8  C   UNL     1      -3.565  11.926  17.516  0.00  0.00    +0.000 C 
ATOM      9  C   UNL     1      -4.474  11.223  16.471  0.00  0.00    +0.000 C 
ATOM     10  C   UNL     1      -3.646  10.620  15.325  0.00  0.00    +0.000 C 
ATOM     11  C   UNL     1      -2.878   9.411  15.833  0.00  0.00    +0.000 C 
ATOM     12  C   UNL     1      -2.241   9.665  17.201  0.00  0.00    +0.000 C 
ATOM     13  C   UNL     1      -2.211  11.155  17.664  0.00  0.00    +0.000 C 
ATOM     14  H   UNL     1      -6.100  12.958  18.301  0.00  0.00    +0.000 HD
ENDROOT
BRANCH   7  15
ATOM     15  C   UNL     1      -4.130  13.975  22.176  0.00  0.00    +0.000 A 
ATOM     16  C   UNL     1      -3.651  13.691  23.450  0.00  0.00    +0.000 A 
ATOM     17  N   UNL     1      -3.848  14.802  24.210  0.00  0.00    +0.000 N 
ATOM     18  C   UNL     1      -3.496  15.865  23.432  0.00  0.00    +0.000 A 
ATOM     19  C   UNL     1      -3.083  17.153  23.842  0.00  0.00    +0.000 A 
ATOM     20  C   UNL     1      -2.805  18.081  22.851  0.00  0.00    +0.000 A 
ATOM     21  C   UNL     1      -2.994  17.734  21.518  0.00  0.00    +0.000 A 
ATOM     22  C   UNL     1      -3.459  16.421  21.127  0.00  0.00    +0.000 A 
ATOM     23  C   UNL     1      -3.709  15.428  22.106  0.00  0.00    +0.000 A 
ATOM     24  H   UNL     1      -4.587  14.892  24.891  0.00  0.00    +0.000 HD
ENDBRANCH   7  15
BRANCH   2  25
ATOM     25  C   UNL     1      -1.429  12.991  20.706  0.00  0.00    +0.000 A 
ATOM     26  C   UNL     1      -0.844  12.927  21.996  0.00  0.00    +0.000 A 
ATOM     27  C   UNL     1       0.037  13.919  22.390  0.00  0.00    +0.000 A 
ATOM     28  C   UNL     1       0.316  14.983  21.547  0.00  0.00    +0.000 A 
ATOM     29  C   UNL     1      -0.323  15.083  20.304  0.00  0.00    +0.000 A 
ATOM     30  C   UNL     1      -1.198  14.103  19.873  0.00  0.00    +0.000 A 
ENDBRANCH   2  25
BRANCH   1  31
ATOM     31  C   UNL     1      -0.077  11.317  18.829  0.00  0.00    +0.000 C 
BRANCH  31  35
ATOM     32  C   UNL     1       2.249   7.748  19.391  0.00  0.00    +0.000 A 
ATOM     33  C   UNL     1       1.510   8.268  20.453  0.00  0.00    +0.000 A 
ATOM     34  C   UNL     1       0.711   9.387  20.252  0.00  0.00    +0.000 A 
ATOM     35  C   UNL     1       0.673  10.017  19.005  0.00  0.00    +0.000 A 
ATOM     36  C   UNL     1       1.385   9.463  17.928  0.00  0.00    +0.000 A 
ATOM     37  C   UNL     1       2.182   8.327  18.139  0.00  0.00    +0.000 A 
ENDBRANCH  31  35
ENDBRANCH   1  31
TORSDOF 4
ENDMDL
MODEL 6
REMARK VINA RESULT:      -6.9      2.252      7.429
REMARK  Name = 
REMARK  4 active torsions:
REMARK  status: ('A' for Active; 'I' for Inactive)
REMARK    1  A    between atoms: C_4  and  C_5
REMARK    2  A    between atoms: C_5  and  N_6
REMARK    3  A    between atoms: C_7  and  C_8
REMARK    4  A    between atoms: C_18  and  C_19
REMARK                            x       y       z     vdW  Elec       q    Type
REMARK                         _______ _______ _______ _____ _____    ______ ____
ROOT
ATOM      1  N   UNL     1      -1.086  11.435  19.121  0.00  0.00    +0.000 NA
ATOM      2  C   UNL     1      -1.481  12.247  20.302  0.00  0.00    +0.000 C 
ATOM      3  C   UNL     1      -2.885  12.763  20.361  0.00  0.00    +0.000 C 
ATOM      4  C   UNL     1      -3.689  12.688  19.295  0.00  0.00    +0.000 C 
ATOM      5  N   UNL     1      -4.786  13.463  19.529  0.00  0.00    +0.000 N 
ATOM      6  O   UNL     1      -4.878  13.906  20.875  0.00  0.00    +0.000 OA
ATOM      7  C   UNL     1      -3.578  13.516  21.539  0.00  0.00    +0.000 C 
ATOM      8  C   UNL     1      -3.331  12.042  17.963  0.00  0.00    +0.000 C 
ATOM      9  C   UNL     1      -4.434  11.236  17.224  0.00  0.00    +0.000 C 
ATOM     10  C   UNL     1      -3.848  10.427  16.056  0.00  0.00    +0.000 C 
ATOM     11  C   UNL     1      -3.024   9.272  16.599  0.00  0.00    +0.000 C 
ATOM     12  C   UNL     1      -2.137   9.696  17.771  0.00  0.00    +0.000 C 
ATOM     13  C   UNL     1      -1.989  11.236  17.981  0.00  0.00    +0.000 C 
ATOM     14  H   UNL     1      -5.651  13.305  19.023  0.00  0.00    +0.000 HD
ENDROOT
BRANCH   7  15
ATOM     15  C   UNL     1      -2.969  14.795  22.267  0.00  0.00    +0.000 A 
ATOM     16  C   UNL     1      -3.178  16.078  21.774  0.00  0.00    +0.000 A 
ATOM     17  N   UNL     1      -2.195  16.868  22.283  0.00  0.00    +0.000 N 
ATOM     18  C   UNL     1      -2.063  16.517  23.594  0.00  0.00    +0.000 A 
ATOM     19  C   UNL     1      -1.545  17.288  24.660  0.00  0.00    +0.000 A 
ATOM     20  C   UNL     1      -1.487  16.692  25.910  0.00  0.00    +0.000 A 
ATOM     21  C   UNL     1      -1.880  15.366  26.054  0.00  0.00    +0.000 A 
ATOM     22  C   UNL     1      -2.366  14.586  24.937  0.00  0.00    +0.000 A 
ATOM     23  C   UNL     1      -2.487  15.171  23.653  0.00  0.00    +0.000 A 
ATOM     24  H   UNL     1      -1.392  17.176  21.755  0.00  0.00    +0.000 HD
ENDBRANCH   7  15
BRANCH   2  25
ATOM     25  C   UNL     1      -0.614  13.467  20.503  0.00  0.00    +0.000 A 
ATOM     26  C   UNL     1       0.267  13.530  21.613  0.00  0.00    +0.000 A 
ATOM     27  C   UNL     1       1.221  14.531  21.665  0.00  0.00    +0.000 A 
ATOM     28  C   UNL     1       1.291  15.486  20.662  0.00  0.00    +0.000 A 
ATOM     29  C   UNL     1       0.369  15.465  19.607  0.00  0.00    +0.000 A 
ATOM     30  C   UNL     1      -0.588  14.471  19.516  0.00  0.00    +0.000 A 
ENDBRANCH   2  25
BRANCH   1  31
ATOM     31  C   UNL     1       0.328  11.464  18.699  0.00  0.00    +0.000 C 
BRANCH  31  35
ATOM     32  C   UNL     1       2.232   7.653  19.256  0.00  0.00    +0.000 A 
ATOM     33  C   UNL     1       2.375   8.329  18.046  0.00  0.00    +0.000 A 
ATOM     34  C   UNL     1       1.810   9.589  17.890  0.00  0.00    +0.000 A 
ATOM     35  C   UNL     1       1.066  10.165  18.923  0.00  0.00    +0.000 A 
ATOM     36  C   UNL     1       0.960   9.498  20.155  0.00  0.00    +0.000 A 
ATOM     37  C   UNL     1       1.544   8.230  20.306  0.00  0.00    +0.000 A 
ENDBRANCH  31  35
ENDBRANCH   1  31
TORSDOF 4
ENDMDL
MODEL 7
REMARK VINA RESULT:      -6.8      2.577      8.282
REMARK  Name = 
REMARK  4 active torsions:
REMARK  status: ('A' for Active; 'I' for Inactive)
REMARK    1  A    between atoms: C_4  and  C_5
REMARK    2  A    between atoms: C_5  and  N_6
REMARK    3  A    between atoms: C_7  and  C_8
REMARK    4  A    between atoms: C_18  and  C_19
REMARK                            x       y       z     vdW  Elec       q    Type
REMARK                         _______ _______ _______ _____ _____    ______ ____
ROOT
ATOM      1  N   UNL     1      -2.944  11.781  20.029  0.00  0.00    +0.000 NA
ATOM      2  C   UNL     1      -4.143  12.181  20.811  0.00  0.00    +0.000 C 
ATOM      3  C   UNL     1      -5.440  12.334  20.080  0.00  0.00    +0.000 C 
ATOM      4  C   UNL     1      -5.478  12.329  18.743  0.00  0.00    +0.000 C 
ATOM      5  N   UNL     1      -6.712  12.755  18.347  0.00  0.00    +0.000 N 
ATOM      6  O   UNL     1      -7.642  12.837  19.417  0.00  0.00    +0.000 OA
ATOM      7  C   UNL     1      -6.852  12.611  20.684  0.00  0.00    +0.000 C 
ATOM      8  C   UNL     1      -4.281  12.112  17.826  0.00  0.00    +0.000 C 
ATOM      9  C   UNL     1      -4.493  11.271  16.538  0.00  0.00    +0.000 C 
ATOM     10  C   UNL     1      -3.152  10.914  15.876  0.00  0.00    +0.000 C 
ATOM     11  C   UNL     1      -2.424   9.884  16.723  0.00  0.00    +0.000 C 
ATOM     12  C   UNL     1      -2.490  10.214  18.216  0.00  0.00    +0.000 C 
ATOM     13  C   UNL     1      -2.981  11.653  18.567  0.00  0.00    +0.000 C 
ATOM     14  H   UNL     1      -7.069  12.526  17.426  0.00  0.00    +0.000 HD
ENDROOT
BRANCH   7  15
ATOM     15  C   UNL     1      -7.173  13.787  21.708  0.00  0.00    +0.000 A 
ATOM     16  C   UNL     1      -7.173  13.573  23.081  0.00  0.00    +0.000 A 
ATOM     17  N   UNL     1      -7.916  14.565  23.642  0.00  0.00    +0.000 N 
ATOM     18  C   UNL     1      -7.563  15.716  23.003  0.00  0.00    +0.000 A 
ATOM     19  C   UNL     1      -7.672  17.046  23.469  0.00  0.00    +0.000 A 
ATOM     20  C   UNL     1      -7.268  18.058  22.612  0.00  0.00    +0.000 A 
ATOM     21  C   UNL     1      -6.833  17.737  21.332  0.00  0.00    +0.000 A 
ATOM     22  C   UNL     1      -6.772  16.369  20.865  0.00  0.00    +0.000 A 
ATOM     23  C   UNL     1      -7.129  15.301  21.725  0.00  0.00    +0.000 A 
ATOM     24  H   UNL     1      -8.860  14.438  23.978  0.00  0.00    +0.000 HD
ENDBRANCH   7  15
BRANCH   2  25
ATOM     25  C   UNL     1      -3.963  13.485  21.552  0.00  0.00    +0.000 A 
ATOM     26  C   UNL     1      -3.927  13.491  22.970  0.00  0.00    +0.000 A 
ATOM     27  C   UNL     1      -3.529  14.639  23.633  0.00  0.00    +0.000 A 
ATOM     28  C   UNL     1      -3.207  15.783  22.920  0.00  0.00    +0.000 A 
ATOM     29  C   UNL     1      -3.317  15.797  21.524  0.00  0.00    +0.000 A 
ATOM     30  C   UNL     1      -3.698  14.664  20.828  0.00  0.00    +0.000 A 
ENDBRANCH   2  25
BRANCH   1  31
ATOM     31  C   UNL     1      -1.621  12.231  20.505  0.00  0.00    +0.000 C 
BRANCH  31  35
ATOM     32  C   UNL     1       0.713   9.420  22.767  0.00  0.00    +0.000 A 
ATOM     33  C   UNL     1      -0.393  10.035  23.354  0.00  0.00    +0.000 A 
ATOM     34  C   UNL     1      -1.182  10.896  22.601  0.00  0.00    +0.000 A 
ATOM     35  C   UNL     1      -0.852  11.182  21.274  0.00  0.00    +0.000 A 
ATOM     36  C   UNL     1       0.237  10.527  20.674  0.00  0.00    +0.000 A 
ATOM     37  C   UNL     1       1.022   9.651  21.440  0.00  0.00    +0.000 A 
ENDBRANCH  31  35
ENDBRANCH   1  31
TORSDOF 4
ENDMDL
MODEL 8
REMARK VINA RESULT:      -6.7      2.873      7.601
REMARK  Name = 
REMARK  4 active torsions:
REMARK  status: ('A' for Active; 'I' for Inactive)
REMARK    1  A    between atoms: C_4  and  C_5
REMARK    2  A    between atoms: C_5  and  N_6
REMARK    3  A    between atoms: C_7  and  C_8
REMARK    4  A    between atoms: C_18  and  C_19
REMARK                            x       y       z     vdW  Elec       q    Type
REMARK                         _______ _______ _______ _____ _____    ______ ____
ROOT
ATOM      1  N   UNL     1      -0.422  14.484  20.644  0.00  0.00    +0.000 NA
ATOM      2  C   UNL     1      -1.890  14.460  20.877  0.00  0.00    +0.000 C 
ATOM      3  C   UNL     1      -2.646  15.744  20.733  0.00  0.00    +0.000 C 
ATOM      4  C   UNL     1      -2.001  16.910  20.619  0.00  0.00    +0.000 C 
ATOM      5  N   UNL     1      -2.905  17.918  20.780  0.00  0.00    +0.000 N 
ATOM      6  O   UNL     1      -4.251  17.466  20.773  0.00  0.00    +0.000 OA
ATOM      7  C   UNL     1      -4.190  15.956  20.794  0.00  0.00    +0.000 C 
ATOM      8  C   UNL     1      -0.489  17.080  20.555  0.00  0.00    +0.000 C 
ATOM      9  C   UNL     1       0.083  18.157  19.593  0.00  0.00    +0.000 C 
ATOM     10  C   UNL     1       1.606  18.016  19.437  0.00  0.00    +0.000 C 
ATOM     11  C   UNL     1       1.922  16.771  18.626  0.00  0.00    +0.000 C 
ATOM     12  C   UNL     1       1.071  15.573  19.051  0.00  0.00    +0.000 C 
ATOM     13  C   UNL     1       0.302  15.738  20.399  0.00  0.00    +0.000 C 
ATOM     14  H   UNL     1      -2.716  18.848  20.421  0.00  0.00    +0.000 HD
ENDROOT
BRANCH   7  15
ATOM     15  C   UNL     1      -5.124  15.420  21.966  0.00  0.00    +0.000 A 
ATOM     16  C   UNL     1      -5.648  16.279  22.925  0.00  0.00    +0.000 A 
ATOM     17  N   UNL     1      -5.975  15.521  24.007  0.00  0.00    +0.000 N 
ATOM     18  C   UNL     1      -6.568  14.394  23.519  0.00  0.00    +0.000 A 
ATOM     19  C   UNL     1      -7.470  13.526  24.175  0.00  0.00    +0.000 A 
ATOM     20  C   UNL     1      -7.915  12.418  23.471  0.00  0.00    +0.000 A 
ATOM     21  C   UNL     1      -7.424  12.177  22.193  0.00  0.00    +0.000 A 
ATOM     22  C   UNL     1      -6.467  13.061  21.562  0.00  0.00    +0.000 A 
ATOM     23  C   UNL     1      -6.023  14.229  22.228  0.00  0.00    +0.000 A 
ATOM     24  H   UNL     1      -5.424  15.482  24.852  0.00  0.00    +0.000 HD
ENDBRANCH   7  15
BRANCH   2  25
ATOM     25  C   UNL     1      -2.267  13.942  22.245  0.00  0.00    +0.000 A 
ATOM     26  C   UNL     1      -2.125  14.780  23.380  0.00  0.00    +0.000 A 
ATOM     27  C   UNL     1      -2.686  14.391  24.584  0.00  0.00    +0.000 A 
ATOM     28  C   UNL     1      -3.347  13.178  24.689  0.00  0.00    +0.000 A 
ATOM     29  C   UNL     1      -3.420  12.318  23.585  0.00  0.00    +0.000 A 
ATOM     30  C   UNL     1      -2.882  12.680  22.364  0.00  0.00    +0.000 A 
ENDBRANCH   2  25
BRANCH   1  31
ATOM     31  C   UNL     1       0.413  13.503  21.363  0.00  0.00    +0.000 C 
BRANCH  31  35
ATOM     32  C   UNL     1       0.841   9.632  19.548  0.00  0.00    +0.000 A 
ATOM     33  C   UNL     1       0.346   9.737  20.847  0.00  0.00    +0.000 A 
ATOM     34  C   UNL     1       0.150  10.994  21.409  0.00  0.00    +0.000 A 
ATOM     35  C   UNL     1       0.484  12.148  20.697  0.00  0.00    +0.000 A 
ATOM     36  C   UNL     1       0.943  12.038  19.373  0.00  0.00    +0.000 A 
ATOM     37  C   UNL     1       1.127  10.765  18.811  0.00  0.00    +0.000 A 
ENDBRANCH  31  35
ENDBRANCH   1  31
TORSDOF 4
ENDMDL
MODEL 9
REMARK VINA RESULT:      -6.7      2.576      6.793
REMARK  Name = 
REMARK  4 active torsions:
REMARK  status: ('A' for Active; 'I' for Inactive)
REMARK    1  A    between atoms: C_4  and  C_5
REMARK    2  A    between atoms: C_5  and  N_6
REMARK    3  A    between atoms: C_7  and  C_8
REMARK    4  A    between atoms: C_18  and  C_19
REMARK                            x       y       z     vdW  Elec       q    Type
REMARK                         _______ _______ _______ _____ _____    ______ ____
ROOT
ATOM      1  N   UNL     1      -5.033  12.771  18.885  0.00  0.00    +0.000 NA
ATOM      2  C   UNL     1      -4.393  13.710  19.843  0.00  0.00    +0.000 C 
ATOM      3  C   UNL     1      -2.956  13.486  20.193  0.00  0.00    +0.000 C 
ATOM      4  C   UNL     1      -2.330  12.359  19.834  0.00  0.00    +0.000 C 
ATOM      5  N   UNL     1      -1.144  12.294  20.504  0.00  0.00    +0.000 N 
ATOM      6  O   UNL     1      -0.812  13.506  21.167  0.00  0.00    +0.000 OA
ATOM      7  C   UNL     1      -2.028  14.395  21.058  0.00  0.00    +0.000 C 
ATOM      8  C   UNL     1      -2.941  11.236  19.007  0.00  0.00    +0.000 C 
ATOM      9  C   UNL     1      -2.039  10.530  17.957  0.00  0.00    +0.000 C 
ATOM     10  C   UNL     1      -2.864   9.627  17.026  0.00  0.00    +0.000 C 
ATOM     11  C   UNL     1      -3.699  10.486  16.092  0.00  0.00    +0.000 C 
ATOM     12  C   UNL     1      -4.358  11.659  16.821  0.00  0.00    +0.000 C 
ATOM     13  C   UNL     1      -4.332  11.584  18.380  0.00  0.00    +0.000 C 
ATOM     14  H   UNL     1      -0.383  11.720  20.158  0.00  0.00    +0.000 HD
ENDROOT
BRANCH   7  15
ATOM     15  C   UNL     1      -2.402  14.934  22.508  0.00  0.00    +0.000 A 
ATOM     16  C   UNL     1      -1.778  14.442  23.648  0.00  0.00    +0.000 A 
ATOM     17  N   UNL     1      -2.594  14.712  24.702  0.00  0.00    +0.000 N 
ATOM     18  C   UNL     1      -3.051  15.983  24.516  0.00  0.00    +0.000 A 
ATOM     19  C   UNL     1      -3.535  16.891  25.485  0.00  0.00    +0.000 A 
ATOM     20  C   UNL     1      -3.975  18.127  25.039  0.00  0.00    +0.000 A 
ATOM     21  C   UNL     1      -3.978  18.400  23.676  0.00  0.00    +0.000 A 
ATOM     22  C   UNL     1      -3.517  17.435  22.701  0.00  0.00    +0.000 A 
ATOM     23  C   UNL     1      -3.014  16.179  23.118  0.00  0.00    +0.000 A 
ATOM     24  H   UNL     1      -3.178  14.021  25.152  0.00  0.00    +0.000 HD
ENDBRANCH   7  15
BRANCH   2  25
ATOM     25  C   UNL     1      -5.106  13.783  21.173  0.00  0.00    +0.000 A 
ATOM     26  C   UNL     1      -4.839  12.810  22.169  0.00  0.00    +0.000 A 
ATOM     27  C   UNL     1      -5.310  13.011  23.455  0.00  0.00    +0.000 A 
ATOM     28  C   UNL     1      -6.066  14.132  23.757  0.00  0.00    +0.000 A 
ATOM     29  C   UNL     1      -6.392  15.052  22.752  0.00  0.00    +0.000 A 
ATOM     30  C   UNL     1      -5.928  14.890  21.460  0.00  0.00    +0.000 A 
ENDBRANCH   2  25
BRANCH   1  31
ATOM     31  C   UNL     1      -6.485  12.539  19.004  0.00  0.00    +0.000 C 
BRANCH  31  35
ATOM     32  C   UNL     1      -7.734   8.818  20.754  0.00  0.00    +0.000 A 
ATOM     33  C   UNL     1      -7.091   8.821  19.516  0.00  0.00    +0.000 A 
ATOM     34  C   UNL     1      -6.633  10.020  18.982  0.00  0.00    +0.000 A 
ATOM     35  C   UNL     1      -6.849  11.225  19.655  0.00  0.00    +0.000 A 
ATOM     36  C   UNL     1      -7.459  11.211  20.921  0.00  0.00    +0.000 A 
ATOM     37  C   UNL     1      -7.908   9.994  21.457  0.00  0.00    +0.000 A 
ENDBRANCH  31  35
ENDBRANCH   1  31
TORSDOF 4
ENDMDL
