MODEL 1
REMARK VINA RESULT:      -6.5      0.000      0.000
REMARK  Name = 
REMARK  3 active torsions:
REMARK  status: ('A' for Active; 'I' for Inactive)
REMARK    1  A    between atoms: C_1  and  C_2
REMARK    2  A    between atoms: C_2  and  C_3
REMARK    3  A    between atoms: C_2  and  N_4
REMARK                            x       y       z     vdW  Elec       q    Type
REMARK                         _______ _______ _______ _____ _____    ______ ____
ROOT
ATOM      1  N   UNL     1       2.847   3.184  19.778  0.00  0.00    +0.000 N 
ATOM      2  C   UNL     1       3.372   2.941  18.537  0.00  0.00    +0.000 C 
ATOM      3  O   UNL     1       2.902   2.089  17.791  0.00  0.00    +0.000 OA
ATOM      4  N   UNL     1       4.463   3.717  18.190  0.00  0.00    +0.000 N 
ATOM      5  C   UNL     1       5.212   4.616  19.101  0.00  0.00    +0.000 C 
ATOM      6  C   UNL     1       5.907   5.798  18.387  0.00  0.00    +0.000 C 
ATOM      7  N   UNL     1       6.436   5.419  17.094  0.00  0.00    +0.000 N 
ATOM      8  C   UNL     1       7.264   6.190  16.325  0.00  0.00    +0.000 C 
ATOM      9  O   UNL     1       7.854   7.195  16.672  0.00  0.00    +0.000 OA
ATOM     10  O   UNL     1       7.323   5.657  15.061  0.00  0.00    +0.000 OA
ATOM     11  C   UNL     1       6.571   4.427  15.063  0.00  0.00    +0.000 C 
ATOM     12  C   UNL     1       5.644   4.598  16.235  0.00  0.00    +0.000 C 
ATOM     13  C   UNL     1       5.188   3.340  16.961  0.00  0.00    +0.000 C 
ATOM     14  H   UNL     1       2.984   4.104  20.156  0.00  0.00    +0.000 HD
ENDROOT
BRANCH   1  16
ATOM     15  C   UNL     1       1.662   2.545  21.801  0.00  0.00    +0.000 C 
ATOM     16  C   UNL     1       1.669   2.488  20.277  0.00  0.00    +0.000 C 
ATOM     17  C   UNL     1       0.405   3.126  19.705  0.00  0.00    +0.000 C 
ENDBRANCH   1  16
TORSDOF 1
ENDMDL
MODEL 2
REMARK VINA RESULT:      -6.0      2.279      6.279
REMARK  Name = 
REMARK  3 active torsions:
REMARK  status: ('A' for Active; 'I' for Inactive)
REMARK    1  A    between atoms: C_1  and  C_2
REMARK    2  A    between atoms: C_2  and  C_3
REMARK    3  A    between atoms: C_2  and  N_4
REMARK                            x       y       z     vdW  Elec       q    Type
REMARK                         _______ _______ _______ _____ _____    ______ ____
ROOT
ATOM      1  N   UNL     1       5.318   4.247  15.248  0.00  0.00    +0.000 N 
ATOM      2  C   UNL     1       4.860   5.177  16.142  0.00  0.00    +0.000 C 
ATOM      3  O   UNL     1       5.037   6.380  15.974  0.00  0.00    +0.000 OA
ATOM      4  N   UNL     1       4.193   4.668  17.242  0.00  0.00    +0.000 N 
ATOM      5  C   UNL     1       4.116   3.237  17.622  0.00  0.00    +0.000 C 
ATOM      6  C   UNL     1       2.853   2.870  18.435  0.00  0.00    +0.000 C 
ATOM      7  N   UNL     1       2.474   3.919  19.357  0.00  0.00    +0.000 N 
ATOM      8  C   UNL     1       1.526   3.803  20.337  0.00  0.00    +0.000 C 
ATOM      9  O   UNL     1       1.011   2.775  20.734  0.00  0.00    +0.000 OA
ATOM     10  O   UNL     1       1.220   5.054  20.812  0.00  0.00    +0.000 OA
ATOM     11  C   UNL     1       2.096   6.000  20.166  0.00  0.00    +0.000 C 
ATOM     12  C   UNL     1       2.514   5.277  18.916  0.00  0.00    +0.000 C 
ATOM     13  C   UNL     1       3.878   5.614  18.331  0.00  0.00    +0.000 C 
ATOM     14  H   UNL     1       4.824   3.374  15.209  0.00  0.00    +0.000 HD
ENDROOT
BRANCH   1  16
ATOM     15  C   UNL     1       7.472   4.867  14.311  0.00  0.00    +0.000 C 
ATOM     16  C   UNL     1       5.998   4.619  14.015  0.00  0.00    +0.000 C 
ATOM     17  C   UNL     1       5.833   3.514  12.974  0.00  0.00    +0.000 C 
ENDBRANCH   1  16
TORSDOF 1
ENDMDL
MODEL 3
REMARK VINA RESULT:      -5.8      1.542      2.407
REMARK  Name = 
REMARK  3 active torsions:
REMARK  status: ('A' for Active; 'I' for Inactive)
REMARK    1  A    between atoms: C_1  and  C_2
REMARK    2  A    between atoms: C_2  and  C_3
REMARK    3  A    between atoms: C_2  and  N_4
REMARK                            x       y       z     vdW  Elec       q    Type
REMARK                         _______ _______ _______ _____ _____    ______ ____
ROOT
ATOM      1  N   UNL     1       2.231   3.736  19.302  0.00  0.00    +0.000 N 
ATOM      2  C   UNL     1       2.996   4.871  19.305  0.00  0.00    +0.000 C 
ATOM      3  O   UNL     1       2.879   5.729  20.175  0.00  0.00    +0.000 OA
ATOM      4  N   UNL     1       3.899   4.984  18.263  0.00  0.00    +0.000 N 
ATOM      5  C   UNL     1       3.961   4.104  17.072  0.00  0.00    +0.000 C 
ATOM      6  C   UNL     1       5.366   4.008  16.433  0.00  0.00    +0.000 C 
ATOM      7  N   UNL     1       6.073   5.270  16.479  0.00  0.00    +0.000 N 
ATOM      8  C   UNL     1       7.244   5.542  15.826  0.00  0.00    +0.000 C 
ATOM      9  O   UNL     1       7.762   4.873  14.952  0.00  0.00    +0.000 OA
ATOM     10  O   UNL     1       7.772   6.707  16.324  0.00  0.00    +0.000 OA
ATOM     11  C   UNL     1       6.832   7.250  17.273  0.00  0.00    +0.000 C 
ATOM     12  C   UNL     1       6.023   6.048  17.676  0.00  0.00    +0.000 C 
ATOM     13  C   UNL     1       4.583   6.283  18.108  0.00  0.00    +0.000 C 
ATOM     14  H   UNL     1       2.620   2.928  18.850  0.00  0.00    +0.000 HD
ENDROOT
BRANCH   1  16
ATOM     15  C   UNL     1       0.212   2.484  19.810  0.00  0.00    +0.000 C 
ATOM     16  C   UNL     1       1.267   3.441  20.353  0.00  0.00    +0.000 C 
ATOM     17  C   UNL     1       1.979   2.835  21.560  0.00  0.00    +0.000 C 
ENDBRANCH   1  16
TORSDOF 1
ENDMDL
MODEL 4
REMARK VINA RESULT:      -5.8      1.918      6.419
REMARK  Name = 
REMARK  3 active torsions:
REMARK  status: ('A' for Active; 'I' for Inactive)
REMARK    1  A    between atoms: C_1  and  C_2
REMARK    2  A    between atoms: C_2  and  C_3
REMARK    3  A    between atoms: C_2  and  N_4
REMARK                            x       y       z     vdW  Elec       q    Type
REMARK                         _______ _______ _______ _____ _____    ______ ____
ROOT
ATOM      1  N   UNL     1       6.031   4.585  16.665  0.00  0.00    +0.000 N 
ATOM      2  C   UNL     1       5.850   4.270  17.985  0.00  0.00    +0.000 C 
ATOM      3  O   UNL     1       6.721   4.474  18.825  0.00  0.00    +0.000 OA
ATOM      4  N   UNL     1       4.626   3.707  18.301  0.00  0.00    +0.000 N 
ATOM      5  C   UNL     1       3.610   3.243  17.326  0.00  0.00    +0.000 C 
ATOM      6  C   UNL     1       2.161   3.277  17.866  0.00  0.00    +0.000 C 
ATOM      7  N   UNL     1       2.092   2.911  19.265  0.00  0.00    +0.000 N 
ATOM      8  C   UNL     1       0.939   2.663  19.958  0.00  0.00    +0.000 C 
ATOM      9  O   UNL     1      -0.172   2.498  19.490  0.00  0.00    +0.000 OA
ATOM     10  O   UNL     1       1.222   2.640  21.301  0.00  0.00    +0.000 OA
ATOM     11  C   UNL     1       2.649   2.781  21.456  0.00  0.00    +0.000 C 
ATOM     12  C   UNL     1       3.067   3.434  20.167  0.00  0.00    +0.000 C 
ATOM     13  C   UNL     1       4.475   3.155  19.662  0.00  0.00    +0.000 C 
ATOM     14  H   UNL     1       5.205   4.779  16.128  0.00  0.00    +0.000 HD
ENDROOT
BRANCH   1  16
ATOM     15  C   UNL     1       7.266   5.156  14.653  0.00  0.00    +0.000 C 
ATOM     16  C   UNL     1       7.243   5.228  16.175  0.00  0.00    +0.000 C 
ATOM     17  C   UNL     1       7.292   6.679  16.650  0.00  0.00    +0.000 C 
ENDBRANCH   1  16
TORSDOF 1
ENDMDL
MODEL 5
REMARK VINA RESULT:      -5.8      1.338      2.115
REMARK  Name = 
REMARK  3 active torsions:
REMARK  status: ('A' for Active; 'I' for Inactive)
REMARK    1  A    between atoms: C_1  and  C_2
REMARK    2  A    between atoms: C_2  and  C_3
REMARK    3  A    between atoms: C_2  and  N_4
REMARK                            x       y       z     vdW  Elec       q    Type
REMARK                         _______ _______ _______ _____ _____    ______ ____
ROOT
ATOM      1  N   UNL     1       2.656   3.046  19.206  0.00  0.00    +0.000 N 
ATOM      2  C   UNL     1       3.338   4.226  19.327  0.00  0.00    +0.000 C 
ATOM      3  O   UNL     1       3.219   4.945  20.314  0.00  0.00    +0.000 OA
ATOM      4  N   UNL     1       4.162   4.550  18.263  0.00  0.00    +0.000 N 
ATOM      5  C   UNL     1       4.206   3.847  16.959  0.00  0.00    +0.000 C 
ATOM      6  C   UNL     1       5.570   3.949  16.236  0.00  0.00    +0.000 C 
ATOM      7  N   UNL     1       6.189   5.245  16.420  0.00  0.00    +0.000 N 
ATOM      8  C   UNL     1       7.292   5.694  15.748  0.00  0.00    +0.000 C 
ATOM      9  O   UNL     1       7.798   5.194  14.762  0.00  0.00    +0.000 OA
ATOM     10  O   UNL     1       7.770   6.818  16.375  0.00  0.00    +0.000 OA
ATOM     11  C   UNL     1       6.858   7.152  17.441  0.00  0.00    +0.000 C 
ATOM     12  C   UNL     1       6.163   5.847  17.715  0.00  0.00    +0.000 C 
ATOM     13  C   UNL     1       4.741   5.907  18.255  0.00  0.00    +0.000 C 
ATOM     14  H   UNL     1       3.070   2.339  18.625  0.00  0.00    +0.000 HD
ENDROOT
BRANCH   1  16
ATOM     15  C   UNL     1       2.562   2.484  21.568  0.00  0.00    +0.000 C 
ATOM     16  C   UNL     1       1.785   2.536  20.258  0.00  0.00    +0.000 C 
ATOM     17  C   UNL     1       0.553   3.427  20.393  0.00  0.00    +0.000 C 
ENDBRANCH   1  16
TORSDOF 1
ENDMDL
MODEL 6
REMARK VINA RESULT:      -5.8      2.860      5.779
REMARK  Name = 
REMARK  3 active torsions:
REMARK  status: ('A' for Active; 'I' for Inactive)
REMARK    1  A    between atoms: C_1  and  C_2
REMARK    2  A    between atoms: C_2  and  C_3
REMARK    3  A    between atoms: C_2  and  N_4
REMARK                            x       y       z     vdW  Elec       q    Type
REMARK                         _______ _______ _______ _____ _____    ______ ____
ROOT
ATOM      1  N   UNL     1       5.210   3.398  13.195  0.00  0.00    +0.000 N 
ATOM      2  C   UNL     1       6.200   3.969  13.949  0.00  0.00    +0.000 C 
ATOM      3  O   UNL     1       7.239   4.385  13.445  0.00  0.00    +0.000 OA
ATOM      4  N   UNL     1       5.949   4.038  15.308  0.00  0.00    +0.000 N 
ATOM      5  C   UNL     1       4.824   3.382  16.015  0.00  0.00    +0.000 C 
ATOM      6  C   UNL     1       4.393   4.100  17.315  0.00  0.00    +0.000 C 
ATOM      7  N   UNL     1       5.524   4.648  18.035  0.00  0.00    +0.000 N 
ATOM      8  C   UNL     1       5.477   5.162  19.302  0.00  0.00    +0.000 C 
ATOM      9  O   UNL     1       4.564   5.054  20.098  0.00  0.00    +0.000 OA
ATOM     10  O   UNL     1       6.640   5.849  19.547  0.00  0.00    +0.000 OA
ATOM     11  C   UNL     1       7.507   5.674  18.409  0.00  0.00    +0.000 C 
ATOM     12  C   UNL     1       6.550   5.320  17.304  0.00  0.00    +0.000 C 
ATOM     13  C   UNL     1       7.073   4.443  16.176  0.00  0.00    +0.000 C 
ATOM     14  H   UNL     1       4.275   3.452  13.558  0.00  0.00    +0.000 HD
ENDROOT
BRANCH   1  16
ATOM     15  C   UNL     1       5.896   1.941  11.376  0.00  0.00    +0.000 C 
ATOM     16  C   UNL     1       5.295   3.293  11.745  0.00  0.00    +0.000 C 
ATOM     17  C   UNL     1       3.909   3.456  11.127  0.00  0.00    +0.000 C 
ENDBRANCH   1  16
TORSDOF 1
ENDMDL
MODEL 7
REMARK VINA RESULT:      -5.7      4.597      5.355
REMARK  Name = 
REMARK  3 active torsions:
REMARK  status: ('A' for Active; 'I' for Inactive)
REMARK    1  A    between atoms: C_1  and  C_2
REMARK    2  A    between atoms: C_2  and  C_3
REMARK    3  A    between atoms: C_2  and  N_4
REMARK                            x       y       z     vdW  Elec       q    Type
REMARK                         _______ _______ _______ _____ _____    ______ ____
ROOT
ATOM      1  N   UNL     1       1.203   9.156  19.390  0.00  0.00    +0.000 N 
ATOM      2  C   UNL     1       2.040   8.803  18.366  0.00  0.00    +0.000 C 
ATOM      3  O   UNL     1       2.238   9.543  17.407  0.00  0.00    +0.000 OA
ATOM      4  N   UNL     1       2.638   7.561  18.487  0.00  0.00    +0.000 N 
ATOM      5  C   UNL     1       2.299   6.532  19.498  0.00  0.00    +0.000 C 
ATOM      6  C   UNL     1       3.467   5.578  19.841  0.00  0.00    +0.000 C 
ATOM      7  N   UNL     1       4.271   5.262  18.679  0.00  0.00    +0.000 N 
ATOM      8  C   UNL     1       5.243   4.301  18.632  0.00  0.00    +0.000 C 
ATOM      9  O   UNL     1       5.447   3.429  19.455  0.00  0.00    +0.000 OA
ATOM     10  O   UNL     1       5.989   4.477  17.492  0.00  0.00    +0.000 OA
ATOM     11  C   UNL     1       5.390   5.545  16.731  0.00  0.00    +0.000 C 
ATOM     12  C   UNL     1       4.614   6.308  17.769  0.00  0.00    +0.000 C 
ATOM     13  C   UNL     1       3.369   7.053  17.309  0.00  0.00    +0.000 C 
ATOM     14  H   UNL     1       1.383   8.741  20.287  0.00  0.00    +0.000 HD
ENDROOT
BRANCH   1  16
ATOM     15  C   UNL     1      -0.890  10.296  18.916  0.00  0.00    +0.000 C 
ATOM     16  C   UNL     1       0.534  10.449  19.440  0.00  0.00    +0.000 C 
ATOM     17  C   UNL     1       0.530  10.980  20.872  0.00  0.00    +0.000 C 
ENDBRANCH   1  16
TORSDOF 1
ENDMDL
MODEL 8
REMARK VINA RESULT:      -5.7      2.027      2.416
REMARK  Name = 
REMARK  3 active torsions:
REMARK  status: ('A' for Active; 'I' for Inactive)
REMARK    1  A    between atoms: C_1  and  C_2
REMARK    2  A    between atoms: C_2  and  C_3
REMARK    3  A    between atoms: C_2  and  N_4
REMARK                            x       y       z     vdW  Elec       q    Type
REMARK                         _______ _______ _______ _____ _____    ______ ____
ROOT
ATOM      1  N   UNL     1       3.538   5.180  18.709  0.00  0.00    +0.000 N 
ATOM      2  C   UNL     1       3.575   4.457  17.547  0.00  0.00    +0.000 C 
ATOM      3  O   UNL     1       2.644   3.735  17.203  0.00  0.00    +0.000 OA
ATOM      4  N   UNL     1       4.729   4.594  16.796  0.00  0.00    +0.000 N 
ATOM      5  C   UNL     1       5.970   5.276  17.235  0.00  0.00    +0.000 C 
ATOM      6  C   UNL     1       6.814   5.852  16.073  0.00  0.00    +0.000 C 
ATOM      7  N   UNL     1       6.792   4.995  14.907  0.00  0.00    +0.000 N 
ATOM      8  C   UNL     1       7.593   5.141  13.807  0.00  0.00    +0.000 C 
ATOM      9  O   UNL     1       8.574   5.852  13.709  0.00  0.00    +0.000 OA
ATOM     10  O   UNL     1       7.105   4.355  12.793  0.00  0.00    +0.000 OA
ATOM     11  C   UNL     1       5.995   3.596  13.315  0.00  0.00    +0.000 C 
ATOM     12  C   UNL     1       5.555   4.411  14.500  0.00  0.00    +0.000 C 
ATOM     13  C   UNL     1       4.900   3.670  15.658  0.00  0.00    +0.000 C 
ATOM     14  H   UNL     1       4.093   6.017  18.740  0.00  0.00    +0.000 HD
ENDROOT
BRANCH   1  16
ATOM     15  C   UNL     1       2.611   4.206  20.732  0.00  0.00    +0.000 C 
ATOM     16  C   UNL     1       2.376   5.185  19.588  0.00  0.00    +0.000 C 
ATOM     17  C   UNL     1       2.133   6.595  20.122  0.00  0.00    +0.000 C 
ENDBRANCH   1  16
TORSDOF 1
ENDMDL
MODEL 9
REMARK VINA RESULT:      -5.6      3.474      3.659
REMARK  Name = 
REMARK  3 active torsions:
REMARK  status: ('A' for Active; 'I' for Inactive)
REMARK    1  A    between atoms: C_1  and  C_2
REMARK    2  A    between atoms: C_2  and  C_3
REMARK    3  A    between atoms: C_2  and  N_4
REMARK                            x       y       z     vdW  Elec       q    Type
REMARK                         _______ _______ _______ _____ _____    ______ ____
ROOT
ATOM      1  N   UNL     1       2.372   7.344  19.937  0.00  0.00    +0.000 N 
ATOM      2  C   UNL     1       2.715   7.135  18.629  0.00  0.00    +0.000 C 
ATOM      3  O   UNL     1       2.080   7.634  17.705  0.00  0.00    +0.000 OA
ATOM      4  N   UNL     1       3.818   6.325  18.424  0.00  0.00    +0.000 N 
ATOM      5  C   UNL     1       4.510   5.527  19.464  0.00  0.00    +0.000 C 
ATOM      6  C   UNL     1       6.004   5.260  19.161  0.00  0.00    +0.000 C 
ATOM      7  N   UNL     1       6.242   5.037  17.750  0.00  0.00    +0.000 N 
ATOM      8  C   UNL     1       7.417   4.588  17.212  0.00  0.00    +0.000 C 
ATOM      9  O   UNL     1       8.358   4.108  17.813  0.00  0.00    +0.000 OA
ATOM     10  O   UNL     1       7.384   4.777  15.852  0.00  0.00    +0.000 OA
ATOM     11  C   UNL     1       6.078   5.279  15.505  0.00  0.00    +0.000 C 
ATOM     12  C   UNL     1       5.590   5.876  16.797  0.00  0.00    +0.000 C 
ATOM     13  C   UNL     1       4.087   5.899  17.036  0.00  0.00    +0.000 C 
ATOM     14  H   UNL     1       3.109   7.272  20.616  0.00  0.00    +0.000 HD
ENDROOT
BRANCH   1  16
ATOM     15  C   UNL     1       1.402   8.559  21.804  0.00  0.00    +0.000 C 
ATOM     16  C   UNL     1       1.267   8.210  20.326  0.00  0.00    +0.000 C 
ATOM     17  C   UNL     1       1.267   9.474  19.468  0.00  0.00    +0.000 C 
ENDBRANCH   1  16
TORSDOF 1
ENDMDL
