MODEL 1
REMARK VINA RESULT:      -6.0      0.000      0.000
REMARK  Name = 
REMARK  6 active torsions:
REMARK  status: ('A' for Active; 'I' for Inactive)
REMARK    1  A    between atoms: C_1  and  C_2
REMARK    2  A    between atoms: C_2  and  C_3
REMARK    3  A    between atoms: C_3  and  N_4
REMARK    4  A    between atoms: C_7  and  C_8
REMARK    5  A    between atoms: C_18  and  C_19
REMARK    6  A    between atoms: C_25  and  C_26
REMARK                            x       y       z     vdW  Elec       q    Type
REMARK                         _______ _______ _______ _____ _____    ______ ____
ROOT
ATOM      1  C   UNL     1       4.298   3.603  17.678  0.00  0.00    +0.000 C 
ATOM      2  O   UNL     1       4.584   2.496  17.216  0.00  0.00    +0.000 OA
ATOM      3  N   UNL     1       3.075   3.753  18.311  0.00  0.00    +0.000 N 
ATOM      4  C   UNL     1       2.085   2.638  18.101  0.00  0.00    +0.000 C 
ATOM      5  C   UNL     1       0.657   2.873  18.705  0.00  0.00    +0.000 C 
ATOM      6  C   UNL     1       0.917   3.287  20.121  0.00  0.00    +0.000 A 
ATOM      7  N   UNL     1       0.725   2.516  21.226  0.00  0.00    +0.000 N 
ATOM      8  C   UNL     1       1.772   2.820  22.060  0.00  0.00    +0.000 A 
ATOM      9  N   UNL     1       2.465   3.870  21.633  0.00  0.00    +0.000 NA
ATOM     10  C   UNL     1       1.909   4.232  20.416  0.00  0.00    +0.000 A 
ATOM     11  C   UNL     1       2.588   4.862  19.181  0.00  0.00    +0.000 C 
ATOM     12  H   UNL     1       0.133   1.693  21.281  0.00  0.00    +0.000 HD
ENDROOT
BRANCH   1  16
ATOM     13  N   UNL     1       6.734   6.315  17.121  0.00  0.00    +0.000 N 
ATOM     14  N   UNL     1       6.233   6.161  15.887  0.00  0.00    +0.000 NA
ATOM     15  C   UNL     1       5.352   5.180  16.043  0.00  0.00    +0.000 A 
ATOM     16  C   UNL     1       5.230   4.695  17.369  0.00  0.00    +0.000 A 
ATOM     17  C   UNL     1       6.236   5.403  18.048  0.00  0.00    +0.000 A 
ATOM     18  C   UNL     1       6.812   5.327  19.404  0.00  0.00    +0.000 C 
BRANCH  13  19
ATOM     19  C   UNL     1       7.738   7.359  17.298  0.00  0.00    +0.000 C 
BRANCH  19  21
ATOM     20  C   UNL     1       8.172   9.747  18.017  0.00  0.00    +0.000 C 
ATOM     21  C   UNL     1       7.119   8.716  17.633  0.00  0.00    +0.000 C 
ENDBRANCH  19  21
ENDBRANCH  13  19
ENDBRANCH   1  16
BRANCH  11  22
ATOM     22  C   UNL     1       2.699   6.285  18.697  0.00  0.00    +0.000 A 
ATOM     23  C   UNL     1       3.252   6.772  17.529  0.00  0.00    +0.000 A 
ATOM     24  C   UNL     1       3.129   8.151  17.274  0.00  0.00    +0.000 A 
ATOM     25  C   UNL     1       2.513   9.001  18.195  0.00  0.00    +0.000 A 
ATOM     26  C   UNL     1       2.053   8.457  19.364  0.00  0.00    +0.000 A 
ATOM     27  N   UNL     1       2.130   7.147  19.620  0.00  0.00    +0.000 NA
ENDBRANCH  11  22
TORSDOF 4
ENDMDL
MODEL 2
REMARK VINA RESULT:      -6.0     11.395     13.061
REMARK  Name = 
REMARK  6 active torsions:
REMARK  status: ('A' for Active; 'I' for Inactive)
REMARK    1  A    between atoms: C_1  and  C_2
REMARK    2  A    between atoms: C_2  and  C_3
REMARK    3  A    between atoms: C_3  and  N_4
REMARK    4  A    between atoms: C_7  and  C_8
REMARK    5  A    between atoms: C_18  and  C_19
REMARK    6  A    between atoms: C_25  and  C_26
REMARK                            x       y       z     vdW  Elec       q    Type
REMARK                         _______ _______ _______ _____ _____    ______ ____
ROOT
ATOM      1  C   UNL     1      -4.026  12.752  20.723  0.00  0.00    +0.000 C 
ATOM      2  O   UNL     1      -2.954  12.341  20.270  0.00  0.00    +0.000 OA
ATOM      3  N   UNL     1      -5.197  12.350  20.102  0.00  0.00    +0.000 N 
ATOM      4  C   UNL     1      -5.036  11.706  18.751  0.00  0.00    +0.000 C 
ATOM      5  C   UNL     1      -6.369  11.377  17.992  0.00  0.00    +0.000 C 
ATOM      6  C   UNL     1      -7.195  10.637  18.998  0.00  0.00    +0.000 A 
ATOM      7  N   UNL     1      -7.438   9.298  19.003  0.00  0.00    +0.000 N 
ATOM      8  C   UNL     1      -7.412   8.935  20.327  0.00  0.00    +0.000 A 
ATOM      9  N   UNL     1      -7.382   9.988  21.135  0.00  0.00    +0.000 NA
ATOM     10  C   UNL     1      -7.299  11.104  20.316  0.00  0.00    +0.000 A 
ATOM     11  C   UNL     1      -6.606  12.458  20.578  0.00  0.00    +0.000 C 
ATOM     12  H   UNL     1      -7.345   8.674  18.207  0.00  0.00    +0.000 HD
ENDROOT
BRANCH   1  16
ATOM     13  N   UNL     1      -3.792  15.095  23.562  0.00  0.00    +0.000 N 
ATOM     14  N   UNL     1      -3.605  15.925  22.527  0.00  0.00    +0.000 NA
ATOM     15  C   UNL     1      -3.673  15.114  21.478  0.00  0.00    +0.000 A 
ATOM     16  C   UNL     1      -3.935  13.757  21.790  0.00  0.00    +0.000 A 
ATOM     17  C   UNL     1      -3.911  13.756  23.195  0.00  0.00    +0.000 A 
ATOM     18  C   UNL     1      -3.947  12.700  24.225  0.00  0.00    +0.000 C 
BRANCH  13  19
ATOM     19  C   UNL     1      -3.796  15.693  24.893  0.00  0.00    +0.000 C 
BRANCH  19  21
ATOM     20  C   UNL     1      -1.527  15.595  26.009  0.00  0.00    +0.000 C 
ATOM     21  C   UNL     1      -2.500  16.442  25.201  0.00  0.00    +0.000 C 
ENDBRANCH  19  21
ENDBRANCH  13  19
ENDBRANCH   1  16
BRANCH  11  22
ATOM     22  C   UNL     1      -7.124  13.788  21.062  0.00  0.00    +0.000 A 
ATOM     23  C   UNL     1      -7.585  14.145  22.314  0.00  0.00    +0.000 A 
ATOM     24  C   UNL     1      -7.916  15.496  22.527  0.00  0.00    +0.000 A 
ATOM     25  C   UNL     1      -7.827  16.430  21.493  0.00  0.00    +0.000 A 
ATOM     26  C   UNL     1      -7.431  15.988  20.259  0.00  0.00    +0.000 A 
ATOM     27  N   UNL     1      -7.082  14.717  20.036  0.00  0.00    +0.000 NA
ENDBRANCH  11  22
TORSDOF 4
ENDMDL
MODEL 3
REMARK VINA RESULT:      -5.9     11.349     13.253
REMARK  Name = 
REMARK  6 active torsions:
REMARK  status: ('A' for Active; 'I' for Inactive)
REMARK    1  A    between atoms: C_1  and  C_2
REMARK    2  A    between atoms: C_2  and  C_3
REMARK    3  A    between atoms: C_3  and  N_4
REMARK    4  A    between atoms: C_7  and  C_8
REMARK    5  A    between atoms: C_18  and  C_19
REMARK    6  A    between atoms: C_25  and  C_26
REMARK                            x       y       z     vdW  Elec       q    Type
REMARK                         _______ _______ _______ _____ _____    ______ ____
ROOT
ATOM      1  C   UNL     1      -3.909  12.669  20.766  0.00  0.00    +0.000 C 
ATOM      2  O   UNL     1      -2.867  12.305  20.217  0.00  0.00    +0.000 OA
ATOM      3  N   UNL     1      -5.115  12.335  20.172  0.00  0.00    +0.000 N 
ATOM      4  C   UNL     1      -5.032  11.831  18.755  0.00  0.00    +0.000 C 
ATOM      5  C   UNL     1      -6.405  11.583  18.040  0.00  0.00    +0.000 C 
ATOM      6  C   UNL     1      -7.182  10.746  19.009  0.00  0.00    +0.000 A 
ATOM      7  N   UNL     1      -7.433   9.414  18.890  0.00  0.00    +0.000 N 
ATOM      8  C   UNL     1      -7.339   8.918  20.167  0.00  0.00    +0.000 A 
ATOM      9  N   UNL     1      -7.258   9.883  21.076  0.00  0.00    +0.000 NA
ATOM     10  C   UNL     1      -7.211  11.076  20.371  0.00  0.00    +0.000 A 
ATOM     11  C   UNL     1      -6.496  12.396  20.731  0.00  0.00    +0.000 C 
ATOM     12  H   UNL     1      -7.387   8.874  18.032  0.00  0.00    +0.000 HD
ENDROOT
BRANCH   1  16
ATOM     13  N   UNL     1      -3.555  15.095  23.521  0.00  0.00    +0.000 N 
ATOM     14  N   UNL     1      -3.622  13.941  24.201  0.00  0.00    +0.000 NA
ATOM     15  C   UNL     1      -3.761  13.036  23.239  0.00  0.00    +0.000 A 
ATOM     16  C   UNL     1      -3.755  13.560  21.923  0.00  0.00    +0.000 A 
ATOM     17  C   UNL     1      -3.716  14.948  22.145  0.00  0.00    +0.000 A 
ATOM     18  C   UNL     1      -3.841  16.134  21.278  0.00  0.00    +0.000 C 
BRANCH  13  19
ATOM     19  C   UNL     1      -3.375  16.311  24.307  0.00  0.00    +0.000 C 
BRANCH  19  21
ATOM     20  C   UNL     1      -4.671  18.346  25.073  0.00  0.00    +0.000 C 
ATOM     21  C   UNL     1      -4.691  16.836  24.881  0.00  0.00    +0.000 C 
ENDBRANCH  19  21
ENDBRANCH  13  19
ENDBRANCH   1  16
BRANCH  11  22
ATOM     22  C   UNL     1      -6.978  13.670  21.375  0.00  0.00    +0.000 A 
ATOM     23  C   UNL     1      -7.273  13.925  22.700  0.00  0.00    +0.000 A 
ATOM     24  C   UNL     1      -7.608  15.245  23.052  0.00  0.00    +0.000 A 
ATOM     25  C   UNL     1      -7.685  16.250  22.086  0.00  0.00    +0.000 A 
ATOM     26  C   UNL     1      -7.449  15.907  20.781  0.00  0.00    +0.000 A 
ATOM     27  N   UNL     1      -7.101  14.668  20.422  0.00  0.00    +0.000 NA
ENDBRANCH  11  22
TORSDOF 4
ENDMDL
MODEL 4
REMARK VINA RESULT:      -5.9     11.303     13.123
REMARK  Name = 
REMARK  6 active torsions:
REMARK  status: ('A' for Active; 'I' for Inactive)
REMARK    1  A    between atoms: C_1  and  C_2
REMARK    2  A    between atoms: C_2  and  C_3
REMARK    3  A    between atoms: C_3  and  N_4
REMARK    4  A    between atoms: C_7  and  C_8
REMARK    5  A    between atoms: C_18  and  C_19
REMARK    6  A    between atoms: C_25  and  C_26
REMARK                            x       y       z     vdW  Elec       q    Type
REMARK                         _______ _______ _______ _____ _____    ______ ____
ROOT
ATOM      1  C   UNL     1      -3.808  12.713  20.714  0.00  0.00    +0.000 C 
ATOM      2  O   UNL     1      -2.767  12.270  20.224  0.00  0.00    +0.000 OA
ATOM      3  N   UNL     1      -5.009  12.389  20.106  0.00  0.00    +0.000 N 
ATOM      4  C   UNL     1      -4.907  11.788  18.729  0.00  0.00    +0.000 C 
ATOM      5  C   UNL     1      -6.269  11.549  17.988  0.00  0.00    +0.000 C 
ATOM      6  C   UNL     1      -7.108  10.812  18.986  0.00  0.00    +0.000 A 
ATOM      7  N   UNL     1      -7.414   9.486  18.948  0.00  0.00    +0.000 N 
ATOM      8  C   UNL     1      -7.379   9.075  20.258  0.00  0.00    +0.000 A 
ATOM      9  N   UNL     1      -7.283  10.095  21.102  0.00  0.00    +0.000 NA
ATOM     10  C   UNL     1      -7.163  11.235  20.321  0.00  0.00    +0.000 A 
ATOM     11  C   UNL     1      -6.402  12.545  20.615  0.00  0.00    +0.000 C 
ATOM     12  H   UNL     1      -7.367   8.888  18.129  0.00  0.00    +0.000 HD
ENDROOT
BRANCH   1  16
ATOM     13  N   UNL     1      -3.462  14.946  23.629  0.00  0.00    +0.000 N 
ATOM     14  N   UNL     1      -2.967  15.719  22.652  0.00  0.00    +0.000 NA
ATOM     15  C   UNL     1      -3.065  14.943  21.579  0.00  0.00    +0.000 A 
ATOM     16  C   UNL     1      -3.649  13.673  21.814  0.00  0.00    +0.000 A 
ATOM     17  C   UNL     1      -3.812  13.664  23.210  0.00  0.00    +0.000 A 
ATOM     18  C   UNL     1      -4.208  12.640  24.193  0.00  0.00    +0.000 C 
BRANCH  13  19
ATOM     19  C   UNL     1      -3.515  15.529  24.966  0.00  0.00    +0.000 C 
BRANCH  19  21
ATOM     20  C   UNL     1      -5.036  17.537  25.207  0.00  0.00    +0.000 C 
ATOM     21  C   UNL     1      -3.618  17.053  24.936  0.00  0.00    +0.000 C 
ENDBRANCH  19  21
ENDBRANCH  13  19
ENDBRANCH   1  16
BRANCH  11  22
ATOM     22  C   UNL     1      -6.847  13.879  21.158  0.00  0.00    +0.000 A 
ATOM     23  C   UNL     1      -6.859  15.115  20.541  0.00  0.00    +0.000 A 
ATOM     24  C   UNL     1      -7.427  16.191  21.248  0.00  0.00    +0.000 A 
ATOM     25  C   UNL     1      -7.917  16.022  22.545  0.00  0.00    +0.000 A 
ATOM     26  C   UNL     1      -7.804  14.784  23.118  0.00  0.00    +0.000 A 
ATOM     27  N   UNL     1      -7.296  13.737  22.460  0.00  0.00    +0.000 NA
ENDBRANCH  11  22
TORSDOF 4
ENDMDL
MODEL 5
REMARK VINA RESULT:      -5.8      9.390     11.966
REMARK  Name = 
REMARK  6 active torsions:
REMARK  status: ('A' for Active; 'I' for Inactive)
REMARK    1  A    between atoms: C_1  and  C_2
REMARK    2  A    between atoms: C_2  and  C_3
REMARK    3  A    between atoms: C_3  and  N_4
REMARK    4  A    between atoms: C_7  and  C_8
REMARK    5  A    between atoms: C_18  and  C_19
REMARK    6  A    between atoms: C_25  and  C_26
REMARK                            x       y       z     vdW  Elec       q    Type
REMARK                         _______ _______ _______ _____ _____    ______ ____
ROOT
ATOM      1  C   UNL     1       7.572  14.489  18.264  0.00  0.00    +0.000 C 
ATOM      2  O   UNL     1       6.805  14.107  17.377  0.00  0.00    +0.000 OA
ATOM      3  N   UNL     1       8.691  13.721  18.538  0.00  0.00    +0.000 N 
ATOM      4  C   UNL     1       8.700  12.336  17.945  0.00  0.00    +0.000 C 
ATOM      5  C   UNL     1       9.901  11.422  18.369  0.00  0.00    +0.000 C 
ATOM      6  C   UNL     1      11.113  12.267  18.126  0.00  0.00    +0.000 A 
ATOM      7  N   UNL     1      11.996  12.120  17.100  0.00  0.00    +0.000 N 
ATOM      8  C   UNL     1      12.333  13.400  16.734  0.00  0.00    +0.000 A 
ATOM      9  N   UNL     1      11.885  14.304  17.597  0.00  0.00    +0.000 NA
ATOM     10  C   UNL     1      11.142  13.607  18.538  0.00  0.00    +0.000 A 
ATOM     11  C   UNL     1       9.903  14.063  19.337  0.00  0.00    +0.000 C 
ATOM     12  H   UNL     1      12.125  11.282  16.542  0.00  0.00    +0.000 HD
ENDROOT
BRANCH   1  16
ATOM     13  N   UNL     1       6.376  17.250  20.395  0.00  0.00    +0.000 N 
ATOM     14  N   UNL     1       7.113  17.919  19.498  0.00  0.00    +0.000 NA
ATOM     15  C   UNL     1       7.573  16.953  18.711  0.00  0.00    +0.000 A 
ATOM     16  C   UNL     1       7.131  15.650  19.047  0.00  0.00    +0.000 A 
ATOM     17  C   UNL     1       6.412  15.867  20.235  0.00  0.00    +0.000 A 
ATOM     18  C   UNL     1       5.797  14.983  21.242  0.00  0.00    +0.000 C 
BRANCH  13  19
ATOM     19  C   UNL     1       5.698  18.046  21.413  0.00  0.00    +0.000 C 
BRANCH  19  21
ATOM     20  C   UNL     1       6.322  17.672  23.837  0.00  0.00    +0.000 C 
ATOM     21  C   UNL     1       6.627  18.443  22.560  0.00  0.00    +0.000 C 
ENDBRANCH  19  21
ENDBRANCH  13  19
ENDBRANCH   1  16
BRANCH  11  22
ATOM     22  C   UNL     1       9.739  14.618  20.729  0.00  0.00    +0.000 A 
ATOM     23  C   UNL     1      10.042  15.876  21.211  0.00  0.00    +0.000 A 
ATOM     24  C   UNL     1       9.689  16.167  22.542  0.00  0.00    +0.000 A 
ATOM     25  C   UNL     1       9.098  15.200  23.358  0.00  0.00    +0.000 A 
ATOM     26  C   UNL     1       8.894  13.953  22.832  0.00  0.00    +0.000 A 
ATOM     27  N   UNL     1       9.192  13.657  21.563  0.00  0.00    +0.000 NA
ENDBRANCH  11  22
TORSDOF 4
ENDMDL
MODEL 6
REMARK VINA RESULT:      -5.7      8.532     11.849
REMARK  Name = 
REMARK  6 active torsions:
REMARK  status: ('A' for Active; 'I' for Inactive)
REMARK    1  A    between atoms: C_1  and  C_2
REMARK    2  A    between atoms: C_2  and  C_3
REMARK    3  A    between atoms: C_3  and  N_4
REMARK    4  A    between atoms: C_7  and  C_8
REMARK    5  A    between atoms: C_18  and  C_19
REMARK    6  A    between atoms: C_25  and  C_26
REMARK                            x       y       z     vdW  Elec       q    Type
REMARK                         _______ _______ _______ _____ _____    ______ ____
ROOT
ATOM      1  C   UNL     1      -0.232  14.231  22.295  0.00  0.00    +0.000 C 
ATOM      2  O   UNL     1       0.784  14.775  21.855  0.00  0.00    +0.000 OA
ATOM      3  N   UNL     1      -0.529  12.950  21.862  0.00  0.00    +0.000 N 
ATOM      4  C   UNL     1       0.244  12.464  20.665  0.00  0.00    +0.000 C 
ATOM      5  C   UNL     1      -0.189  11.069  20.095  0.00  0.00    +0.000 C 
ATOM      6  C   UNL     1      -0.210  10.171  21.293  0.00  0.00    +0.000 A 
ATOM      7  N   UNL     1       0.713   9.216  21.592  0.00  0.00    +0.000 N 
ATOM      8  C   UNL     1       0.856   9.275  22.957  0.00  0.00    +0.000 A 
ATOM      9  N   UNL     1      -0.064  10.045  23.526  0.00  0.00    +0.000 NA
ATOM     10  C   UNL     1      -0.804  10.594  22.490  0.00  0.00    +0.000 A 
ATOM     11  C   UNL     1      -1.506  11.966  22.412  0.00  0.00    +0.000 C 
ATOM     12  H   UNL     1       1.363   8.792  20.938  0.00  0.00    +0.000 HD
ENDROOT
BRANCH   1  16
ATOM     13  N   UNL     1      -2.561  16.393  24.168  0.00  0.00    +0.000 N 
ATOM     14  N   UNL     1      -1.903  15.794  25.170  0.00  0.00    +0.000 NA
ATOM     15  C   UNL     1      -1.055  14.994  24.534  0.00  0.00    +0.000 A 
ATOM     16  C   UNL     1      -1.110  15.070  23.120  0.00  0.00    +0.000 A 
ATOM     17  C   UNL     1      -2.194  15.938  22.903  0.00  0.00    +0.000 A 
ATOM     18  C   UNL     1      -2.944  16.369  21.708  0.00  0.00    +0.000 C 
BRANCH  13  19
ATOM     19  C   UNL     1      -3.575  17.374  24.540  0.00  0.00    +0.000 C 
BRANCH  19  21
ATOM     20  C   UNL     1      -5.950  16.890  23.813  0.00  0.00    +0.000 C 
ATOM     21  C   UNL     1      -4.908  16.725  24.910  0.00  0.00    +0.000 C 
ENDBRANCH  19  21
ENDBRANCH  13  19
ENDBRANCH   1  16
BRANCH  11  22
ATOM     22  C   UNL     1      -2.932  12.394  22.650  0.00  0.00    +0.000 A 
ATOM     23  C   UNL     1      -3.621  12.522  23.840  0.00  0.00    +0.000 A 
ATOM     24  C   UNL     1      -4.926  13.045  23.786  0.00  0.00    +0.000 A 
ATOM     25  C   UNL     1      -5.518  13.377  22.565  0.00  0.00    +0.000 A 
ATOM     26  C   UNL     1      -4.800  13.155  21.421  0.00  0.00    +0.000 A 
ATOM     27  N   UNL     1      -3.548  12.686  21.445  0.00  0.00    +0.000 NA
ENDBRANCH  11  22
TORSDOF 4
ENDMDL
MODEL 7
REMARK VINA RESULT:      -5.6      9.196     11.811
REMARK  Name = 
REMARK  6 active torsions:
REMARK  status: ('A' for Active; 'I' for Inactive)
REMARK    1  A    between atoms: C_1  and  C_2
REMARK    2  A    between atoms: C_2  and  C_3
REMARK    3  A    between atoms: C_3  and  N_4
REMARK    4  A    between atoms: C_7  and  C_8
REMARK    5  A    between atoms: C_18  and  C_19
REMARK    6  A    between atoms: C_25  and  C_26
REMARK                            x       y       z     vdW  Elec       q    Type
REMARK                         _______ _______ _______ _____ _____    ______ ____
ROOT
ATOM      1  C   UNL     1       7.519  14.252  18.397  0.00  0.00    +0.000 C 
ATOM      2  O   UNL     1       6.781  13.961  17.453  0.00  0.00    +0.000 OA
ATOM      3  N   UNL     1       8.642  13.470  18.616  0.00  0.00    +0.000 N 
ATOM      4  C   UNL     1       8.685  12.160  17.876  0.00  0.00    +0.000 C 
ATOM      5  C   UNL     1       9.888  11.218  18.230  0.00  0.00    +0.000 C 
ATOM      6  C   UNL     1      11.094  12.099  18.113  0.00  0.00    +0.000 A 
ATOM      7  N   UNL     1      12.005  12.076  17.102  0.00  0.00    +0.000 N 
ATOM      8  C   UNL     1      12.333  13.392  16.888  0.00  0.00    +0.000 A 
ATOM      9  N   UNL     1      11.850  14.190  17.833  0.00  0.00    +0.000 NA
ATOM     10  C   UNL     1      11.093  13.385  18.671  0.00  0.00    +0.000 A 
ATOM     11  C   UNL     1       9.828  13.736  19.481  0.00  0.00    +0.000 C 
ATOM     12  H   UNL     1      12.160  11.305  16.459  0.00  0.00    +0.000 HD
ENDROOT
BRANCH   1  16
ATOM     13  N   UNL     1       6.451  17.077  20.513  0.00  0.00    +0.000 N 
ATOM     14  N   UNL     1       5.619  16.113  20.931  0.00  0.00    +0.000 NA
ATOM     15  C   UNL     1       5.966  15.074  20.182  0.00  0.00    +0.000 A 
ATOM     16  C   UNL     1       7.041  15.314  19.290  0.00  0.00    +0.000 A 
ATOM     17  C   UNL     1       7.279  16.689  19.462  0.00  0.00    +0.000 A 
ATOM     18  C   UNL     1       8.128  17.680  18.775  0.00  0.00    +0.000 C 
BRANCH  13  19
ATOM     19  C   UNL     1       6.338  18.375  21.171  0.00  0.00    +0.000 C 
BRANCH  19  21
ATOM     20  C   UNL     1       7.366  18.225  23.479  0.00  0.00    +0.000 C 
ATOM     21  C   UNL     1       6.076  18.250  22.671  0.00  0.00    +0.000 C 
ENDBRANCH  19  21
ENDBRANCH  13  19
ENDBRANCH   1  16
BRANCH  11  22
ATOM     22  C   UNL     1       9.619  14.133  20.920  0.00  0.00    +0.000 A 
ATOM     23  C   UNL     1      10.029  15.274  21.582  0.00  0.00    +0.000 A 
ATOM     24  C   UNL     1       9.608  15.443  22.914  0.00  0.00    +0.000 A 
ATOM     25  C   UNL     1       8.844  14.466  23.556  0.00  0.00    +0.000 A 
ATOM     26  C   UNL     1       8.537  13.328  22.859  0.00  0.00    +0.000 A 
ATOM     27  N   UNL     1       8.899  13.154  21.584  0.00  0.00    +0.000 NA
ENDBRANCH  11  22
TORSDOF 4
ENDMDL
MODEL 8
REMARK VINA RESULT:      -5.6      9.391     12.012
REMARK  Name = 
REMARK  6 active torsions:
REMARK  status: ('A' for Active; 'I' for Inactive)
REMARK    1  A    between atoms: C_1  and  C_2
REMARK    2  A    between atoms: C_2  and  C_3
REMARK    3  A    between atoms: C_3  and  N_4
REMARK    4  A    between atoms: C_7  and  C_8
REMARK    5  A    between atoms: C_18  and  C_19
REMARK    6  A    between atoms: C_25  and  C_26
REMARK                            x       y       z     vdW  Elec       q    Type
REMARK                         _______ _______ _______ _____ _____    ______ ____
ROOT
ATOM      1  C   UNL     1       7.559  14.371  18.288  0.00  0.00    +0.000 C 
ATOM      2  O   UNL     1       6.792  13.949  17.418  0.00  0.00    +0.000 OA
ATOM      3  N   UNL     1       8.715  13.655  18.546  0.00  0.00    +0.000 N 
ATOM      4  C   UNL     1       8.773  12.267  17.963  0.00  0.00    +0.000 C 
ATOM      5  C   UNL     1      10.022  11.410  18.371  0.00  0.00    +0.000 C 
ATOM      6  C   UNL     1      11.190  12.305  18.098  0.00  0.00    +0.000 A 
ATOM      7  N   UNL     1      12.060  12.189  17.057  0.00  0.00    +0.000 N 
ATOM      8  C   UNL     1      12.333  13.479  16.675  0.00  0.00    +0.000 A 
ATOM      9  N   UNL     1      11.862  14.369  17.540  0.00  0.00    +0.000 NA
ATOM     10  C   UNL     1      11.168  13.648  18.500  0.00  0.00    +0.000 A 
ATOM     11  C   UNL     1       9.926  14.056  19.320  0.00  0.00    +0.000 C 
ATOM     12  H   UNL     1      12.215  11.353  16.502  0.00  0.00    +0.000 HD
ENDROOT
BRANCH   1  16
ATOM     13  N   UNL     1       6.294  17.095  20.428  0.00  0.00    +0.000 N 
ATOM     14  N   UNL     1       6.926  17.791  19.472  0.00  0.00    +0.000 NA
ATOM     15  C   UNL     1       7.407  16.840  18.680  0.00  0.00    +0.000 A 
ATOM     16  C   UNL     1       7.081  15.518  19.071  0.00  0.00    +0.000 A 
ATOM     17  C   UNL     1       6.421  15.714  20.296  0.00  0.00    +0.000 A 
ATOM     18  C   UNL     1       5.933  14.815  21.358  0.00  0.00    +0.000 C 
BRANCH  13  19
ATOM     19  C   UNL     1       5.622  17.867  21.468  0.00  0.00    +0.000 C 
BRANCH  19  21
ATOM     20  C   UNL     1       3.322  17.509  20.473  0.00  0.00    +0.000 C 
ATOM     21  C   UNL     1       4.338  18.529  20.968  0.00  0.00    +0.000 C 
ENDBRANCH  19  21
ENDBRANCH  13  19
ENDBRANCH   1  16
BRANCH  11  22
ATOM     22  C   UNL     1       9.764  14.614  20.710  0.00  0.00    +0.000 A 
ATOM     23  C   UNL     1       9.343  13.983  21.864  0.00  0.00    +0.000 A 
ATOM     24  C   UNL     1       9.382  14.720  23.062  0.00  0.00    +0.000 A 
ATOM     25  C   UNL     1       9.786  16.056  23.073  0.00  0.00    +0.000 A 
ATOM     26  C   UNL     1      10.120  16.636  21.878  0.00  0.00    +0.000 A 
ATOM     27  N   UNL     1      10.120  15.952  20.729  0.00  0.00    +0.000 NA
ENDBRANCH  11  22
TORSDOF 4
ENDMDL
MODEL 9
REMARK VINA RESULT:      -5.6     11.224     12.861
REMARK  Name = 
REMARK  6 active torsions:
REMARK  status: ('A' for Active; 'I' for Inactive)
REMARK    1  A    between atoms: C_1  and  C_2
REMARK    2  A    between atoms: C_2  and  C_3
REMARK    3  A    between atoms: C_3  and  N_4
REMARK    4  A    between atoms: C_7  and  C_8
REMARK    5  A    between atoms: C_18  and  C_19
REMARK    6  A    between atoms: C_25  and  C_26
REMARK                            x       y       z     vdW  Elec       q    Type
REMARK                         _______ _______ _______ _____ _____    ______ ____
ROOT
ATOM      1  C   UNL     1      -3.720  12.600  20.696  0.00  0.00    +0.000 C 
ATOM      2  O   UNL     1      -2.708  12.196  20.118  0.00  0.00    +0.000 OA
ATOM      3  N   UNL     1      -4.952  12.333  20.123  0.00  0.00    +0.000 N 
ATOM      4  C   UNL     1      -4.924  11.850  18.697  0.00  0.00    +0.000 C 
ATOM      5  C   UNL     1      -6.322  11.680  18.008  0.00  0.00    +0.000 C 
ATOM      6  C   UNL     1      -7.117  10.864  18.981  0.00  0.00    +0.000 A 
ATOM      7  N   UNL     1      -7.435   9.547  18.846  0.00  0.00    +0.000 N 
ATOM      8  C   UNL     1      -7.337   9.026  20.113  0.00  0.00    +0.000 A 
ATOM      9  N   UNL     1      -7.191   9.970  21.035  0.00  0.00    +0.000 NA
ATOM     10  C   UNL     1      -7.102  11.172  20.349  0.00  0.00    +0.000 A 
ATOM     11  C   UNL     1      -6.317  12.449  20.714  0.00  0.00    +0.000 C 
ATOM     12  H   UNL     1      -7.432   9.021  17.978  0.00  0.00    +0.000 HD
ENDROOT
BRANCH   1  16
ATOM     13  N   UNL     1      -3.187  14.958  23.480  0.00  0.00    +0.000 N 
ATOM     14  N   UNL     1      -3.322  13.802  24.145  0.00  0.00    +0.000 NA
ATOM     15  C   UNL     1      -3.526  12.922  23.172  0.00  0.00    +0.000 A 
ATOM     16  C   UNL     1      -3.499  13.463  21.863  0.00  0.00    +0.000 A 
ATOM     17  C   UNL     1      -3.370  14.842  22.104  0.00  0.00    +0.000 A 
ATOM     18  C   UNL     1      -3.426  16.045  21.254  0.00  0.00    +0.000 C 
BRANCH  13  19
ATOM     19  C   UNL     1      -2.923  16.150  24.281  0.00  0.00    +0.000 C 
BRANCH  19  21
ATOM     20  C   UNL     1      -0.919  16.022  25.820  0.00  0.00    +0.000 C 
ATOM     21  C   UNL     1      -2.420  15.813  25.684  0.00  0.00    +0.000 C 
ENDBRANCH  19  21
ENDBRANCH  13  19
ENDBRANCH   1  16
BRANCH  11  22
ATOM     22  C   UNL     1      -6.724  13.734  21.388  0.00  0.00    +0.000 A 
ATOM     23  C   UNL     1      -6.999  13.975  22.720  0.00  0.00    +0.000 A 
ATOM     24  C   UNL     1      -7.258  15.304  23.104  0.00  0.00    +0.000 A 
ATOM     25  C   UNL     1      -7.281  16.333  22.160  0.00  0.00    +0.000 A 
ATOM     26  C   UNL     1      -7.070  16.007  20.847  0.00  0.00    +0.000 A 
ATOM     27  N   UNL     1      -6.794  14.758  20.459  0.00  0.00    +0.000 NA
ENDBRANCH  11  22
TORSDOF 4
ENDMDL
