MODEL 1
REMARK VINA RESULT:      -7.9      0.000      0.000
REMARK  Name = 
REMARK  15 active torsions:
REMARK  status: ('A' for Active; 'I' for Inactive)
REMARK    1  A    between atoms: C_1  and  C_2
REMARK    2  A    between atoms: C_2  and  C_3
REMARK    3  A    between atoms: C_2  and  C_4
REMARK    4  A    between atoms: C_4  and  C_5
REMARK    5  A    between atoms: C_5  and  N_6
REMARK    6  A    between atoms: C_5  and  C_24
REMARK    7  A    between atoms: C_7  and  C_9
REMARK    8  A    between atoms: C_14  and  O_16
REMARK    9  A    between atoms: O_16  and  C_17
REMARK   10  A    between atoms: C_17  and  C_18
REMARK   11  A    between atoms: N_26  and  C_27
REMARK   12  A    between atoms: C_27  and  C_28
REMARK   13  A    between atoms: C_27  and  C_31
REMARK   14  A    between atoms: C_31  and  C_32
REMARK   15  A    between atoms: C_31  and  C_33
REMARK                            x       y       z     vdW  Elec       q    Type
REMARK                         _______ _______ _______ _____ _____    ______ ____
ROOT
ATOM      1  N   UNL     1       5.093   4.656  17.500  0.00  0.00    +0.000 N 
ATOM      2  C   UNL     1       3.917   3.964  17.426  0.00  0.00    +0.000 C 
ATOM      3  O   UNL     1       3.111   4.137  16.509  0.00  0.00    +0.000 OA
ATOM      4  H   UNL     1       5.757   4.427  18.235  0.00  0.00    +0.000 HD
ENDROOT
BRANCH   2   5
ATOM      5  C   UNL     1       3.549   3.098  18.646  0.00  0.00    +0.000 C 
ATOM      6  C   UNL     1       3.555   1.632  18.195  0.00  0.00    +0.000 C 
ATOM      7  C   UNL     1       2.782   0.903  19.283  0.00  0.00    +0.000 C 
ATOM      8  C   UNL     1       1.786   1.934  19.794  0.00  0.00    +0.000 C 
ATOM      9  N   UNL     1       2.221   3.210  19.259  0.00  0.00    +0.000 N 
ATOM     10  C   UNL     1       1.654   4.360  19.757  0.00  0.00    +0.000 C 
ATOM     11  O   UNL     1       0.693   4.364  20.516  0.00  0.00    +0.000 OA
BRANCH  10  12
ATOM     12  O   UNL     1       2.221   5.469  19.232  0.00  0.00    +0.000 OA
BRANCH  12  13
ATOM     13  C   UNL     1       2.531   6.521  20.152  0.00  0.00    +0.000 C 
BRANCH  13  14
ATOM     14  C   UNL     1       1.980   7.799  19.588  0.00  0.00    +0.000 A 
ATOM     15  C   UNL     1       2.209   8.154  18.251  0.00  0.00    +0.000 A 
ATOM     16  C   UNL     1       1.726   9.363  17.755  0.00  0.00    +0.000 A 
ATOM     17  C   UNL     1       1.016  10.229  18.588  0.00  0.00    +0.000 A 
ATOM     18  C   UNL     1       0.789   9.884  19.919  0.00  0.00    +0.000 A 
ATOM     19  C   UNL     1       1.272   8.676  20.419  0.00  0.00    +0.000 A 
ENDBRANCH  13  14
ENDBRANCH  12  13
ENDBRANCH  10  12
ENDBRANCH   2   5
BRANCH   1  20
ATOM     20  C   UNL     1       5.487   5.639  16.489  0.00  0.00    +0.000 C 
BRANCH  20  21
ATOM     21  C   UNL     1       6.554   4.978  15.573  0.00  0.00    +0.000 C 
ATOM     22  O   UNL     1       7.714   4.780  15.937  0.00  0.00    +0.000 OA
ATOM     23  N   UNL     1       6.102   4.629  14.320  0.00  0.00    +0.000 N 
ATOM     24  H   UNL     1       5.101   4.618  14.163  0.00  0.00    +0.000 HD
BRANCH  23  25
ATOM     25  C   UNL     1       6.921   4.035  13.251  0.00  0.00    +0.000 C 
BRANCH  25  26
ATOM     26  C   UNL     1       7.622   5.135  12.422  0.00  0.00    +0.000 C 
ATOM     27  N   UNL     1       8.598   5.851  13.051  0.00  0.00    +0.000 N 
ATOM     28  O   UNL     1       7.367   5.337  11.239  0.00  0.00    +0.000 OA
ATOM     29  H   UNL     1       9.126   6.508  12.493  0.00  0.00    +0.000 HD
ATOM     30  H   UNL     1       9.033   5.478  13.894  0.00  0.00    +0.000 HD
ENDBRANCH  25  26
BRANCH  25  31
ATOM     31  C   UNL     1       6.203   2.964  12.391  0.00  0.00    +0.000 C 
ATOM     32  C   UNL     1       4.890   3.509  11.814  0.00  0.00    +0.000 C 
ATOM     33  C   UNL     1       7.082   2.495  11.230  0.00  0.00    +0.000 C 
ENDBRANCH  25  31
ENDBRANCH  23  25
ENDBRANCH  20  21
BRANCH  20  34
ATOM     34  C   UNL     1       5.993   6.891  17.223  0.00  0.00    +0.000 C 
BRANCH  34  36
ATOM     35  C   UNL     1       8.011   8.412  17.644  0.00  0.00    +0.000 C 
ATOM     36  C   UNL     1       7.489   6.979  17.564  0.00  0.00    +0.000 C 
ATOM     37  C   UNL     1       7.739   6.263  18.898  0.00  0.00    +0.000 C 
ENDBRANCH  34  36
ENDBRANCH  20  34
ENDBRANCH   1  20
TORSDOF 11
ENDMDL
MODEL 2
REMARK VINA RESULT:      -7.8      0.939      1.398
REMARK  Name = 
REMARK  15 active torsions:
REMARK  status: ('A' for Active; 'I' for Inactive)
REMARK    1  A    between atoms: C_1  and  C_2
REMARK    2  A    between atoms: C_2  and  C_3
REMARK    3  A    between atoms: C_2  and  C_4
REMARK    4  A    between atoms: C_4  and  C_5
REMARK    5  A    between atoms: C_5  and  N_6
REMARK    6  A    between atoms: C_5  and  C_24
REMARK    7  A    between atoms: C_7  and  C_9
REMARK    8  A    between atoms: C_14  and  O_16
REMARK    9  A    between atoms: O_16  and  C_17
REMARK   10  A    between atoms: C_17  and  C_18
REMARK   11  A    between atoms: N_26  and  C_27
REMARK   12  A    between atoms: C_27  and  C_28
REMARK   13  A    between atoms: C_27  and  C_31
REMARK   14  A    between atoms: C_31  and  C_32
REMARK   15  A    between atoms: C_31  and  C_33
REMARK                            x       y       z     vdW  Elec       q    Type
REMARK                         _______ _______ _______ _____ _____    ______ ____
ROOT
ATOM      1  N   UNL     1       5.150   5.104  17.743  0.00  0.00    +0.000 N 
ATOM      2  C   UNL     1       4.154   4.174  17.643  0.00  0.00    +0.000 C 
ATOM      3  O   UNL     1       3.522   3.999  16.599  0.00  0.00    +0.000 OA
ATOM      4  H   UNL     1       5.690   5.161  18.602  0.00  0.00    +0.000 HD
ENDROOT
BRANCH   2   5
ATOM      5  C   UNL     1       3.720   3.486  18.952  0.00  0.00    +0.000 C 
ATOM      6  C   UNL     1       3.424   2.016  18.628  0.00  0.00    +0.000 C 
ATOM      7  C   UNL     1       2.608   1.530  19.816  0.00  0.00    +0.000 C 
ATOM      8  C   UNL     1       1.859   2.766  20.292  0.00  0.00    +0.000 C 
ATOM      9  N   UNL     1       2.482   3.893  19.625  0.00  0.00    +0.000 N 
ATOM     10  C   UNL     1       2.175   5.163  20.053  0.00  0.00    +0.000 C 
ATOM     11  O   UNL     1       1.288   5.405  20.862  0.00  0.00    +0.000 OA
BRANCH  10  12
ATOM     12  O   UNL     1       2.898   6.103  19.405  0.00  0.00    +0.000 OA
BRANCH  12  13
ATOM     13  C   UNL     1       2.255   6.755  18.306  0.00  0.00    +0.000 C 
BRANCH  13  14
ATOM     14  C   UNL     1       1.901   8.147  18.743  0.00  0.00    +0.000 A 
ATOM     15  C   UNL     1       1.355   8.387  20.012  0.00  0.00    +0.000 A 
ATOM     16  C   UNL     1       0.995   9.680  20.385  0.00  0.00    +0.000 A 
ATOM     17  C   UNL     1       1.170  10.741  19.497  0.00  0.00    +0.000 A 
ATOM     18  C   UNL     1       1.709  10.509  18.232  0.00  0.00    +0.000 A 
ATOM     19  C   UNL     1       2.069   9.217  17.855  0.00  0.00    +0.000 A 
ENDBRANCH  13  14
ENDBRANCH  12  13
ENDBRANCH  10  12
ENDBRANCH   2   5
BRANCH   1  20
ATOM     20  C   UNL     1       5.548   5.948  16.614  0.00  0.00    +0.000 C 
BRANCH  20  21
ATOM     21  C   UNL     1       6.553   5.141  15.747  0.00  0.00    +0.000 C 
ATOM     22  O   UNL     1       7.405   4.396  16.234  0.00  0.00    +0.000 OA
ATOM     23  N   UNL     1       6.417   5.322  14.388  0.00  0.00    +0.000 N 
ATOM     24  H   UNL     1       5.573   5.768  14.051  0.00  0.00    +0.000 HD
BRANCH  23  25
ATOM     25  C   UNL     1       7.272   4.713  13.356  0.00  0.00    +0.000 C 
BRANCH  25  26
ATOM     26  C   UNL     1       8.313   5.730  12.836  0.00  0.00    +0.000 C 
ATOM     27  N   UNL     1       7.965   6.457  11.735  0.00  0.00    +0.000 N 
ATOM     28  O   UNL     1       9.384   5.930  13.400  0.00  0.00    +0.000 OA
ATOM     29  H   UNL     1       8.598   7.189  11.441  0.00  0.00    +0.000 HD
ATOM     30  H   UNL     1       6.983   6.536  11.472  0.00  0.00    +0.000 HD
ENDBRANCH  25  26
BRANCH  25  31
ATOM     31  C   UNL     1       6.512   3.963  12.233  0.00  0.00    +0.000 C 
ATOM     32  C   UNL     1       7.399   2.891  11.586  0.00  0.00    +0.000 C 
ATOM     33  C   UNL     1       5.248   3.285  12.767  0.00  0.00    +0.000 C 
ENDBRANCH  25  31
ENDBRANCH  23  25
ENDBRANCH  20  21
BRANCH  20  34
ATOM     34  C   UNL     1       6.131   7.250  17.184  0.00  0.00    +0.000 C 
BRANCH  34  36
ATOM     35  C   UNL     1       8.171   8.707  17.714  0.00  0.00    +0.000 C 
ATOM     36  C   UNL     1       7.632   7.293  17.511  0.00  0.00    +0.000 C 
ATOM     37  C   UNL     1       7.892   6.456  18.771  0.00  0.00    +0.000 C 
ENDBRANCH  34  36
ENDBRANCH  20  34
ENDBRANCH   1  20
TORSDOF 11
ENDMDL
MODEL 3
REMARK VINA RESULT:      -7.6      4.902      8.866
REMARK  Name = 
REMARK  15 active torsions:
REMARK  status: ('A' for Active; 'I' for Inactive)
REMARK    1  A    between atoms: C_1  and  C_2
REMARK    2  A    between atoms: C_2  and  C_3
REMARK    3  A    between atoms: C_2  and  C_4
REMARK    4  A    between atoms: C_4  and  C_5
REMARK    5  A    between atoms: C_5  and  N_6
REMARK    6  A    between atoms: C_5  and  C_24
REMARK    7  A    between atoms: C_7  and  C_9
REMARK    8  A    between atoms: C_14  and  O_16
REMARK    9  A    between atoms: O_16  and  C_17
REMARK   10  A    between atoms: C_17  and  C_18
REMARK   11  A    between atoms: N_26  and  C_27
REMARK   12  A    between atoms: C_27  and  C_28
REMARK   13  A    between atoms: C_27  and  C_31
REMARK   14  A    between atoms: C_31  and  C_32
REMARK   15  A    between atoms: C_31  and  C_33
REMARK                            x       y       z     vdW  Elec       q    Type
REMARK                         _______ _______ _______ _____ _____    ______ ____
ROOT
ATOM      1  N   UNL     1       1.198  11.209  19.083  0.00  0.00    +0.000 N 
ATOM      2  C   UNL     1       1.450  12.365  19.767  0.00  0.00    +0.000 C 
ATOM      3  O   UNL     1       1.809  12.365  20.946  0.00  0.00    +0.000 OA
ATOM      4  H   UNL     1       0.974  11.257  18.093  0.00  0.00    +0.000 HD
ENDROOT
BRANCH   2   5
ATOM      5  C   UNL     1       1.075  13.681  19.057  0.00  0.00    +0.000 C 
ATOM      6  C   UNL     1       2.333  14.556  19.005  0.00  0.00    +0.000 C 
ATOM      7  C   UNL     1       1.805  15.951  18.710  0.00  0.00    +0.000 C 
ATOM      8  C   UNL     1       0.424  15.976  19.348  0.00  0.00    +0.000 C 
ATOM      9  N   UNL     1       0.105  14.597  19.665  0.00  0.00    +0.000 N 
ATOM     10  C   UNL     1      -1.186  14.287  20.024  0.00  0.00    +0.000 C 
ATOM     11  O   UNL     1      -2.046  15.131  20.244  0.00  0.00    +0.000 OA
BRANCH  10  12
ATOM     12  O   UNL     1      -1.355  12.957  20.198  0.00  0.00    +0.000 OA
BRANCH  12  13
ATOM     13  C   UNL     1      -2.706  12.494  20.291  0.00  0.00    +0.000 C 
BRANCH  13  14
ATOM     14  C   UNL     1      -3.088  11.925  18.956  0.00  0.00    +0.000 A 
ATOM     15  C   UNL     1      -2.109  11.475  18.058  0.00  0.00    +0.000 A 
ATOM     16  C   UNL     1      -2.479  10.988  16.806  0.00  0.00    +0.000 A 
ATOM     17  C   UNL     1      -3.824  10.950  16.438  0.00  0.00    +0.000 A 
ATOM     18  C   UNL     1      -4.802  11.400  17.325  0.00  0.00    +0.000 A 
ATOM     19  C   UNL     1      -4.435  11.889  18.576  0.00  0.00    +0.000 A 
ENDBRANCH  13  14
ENDBRANCH  12  13
ENDBRANCH  10  12
ENDBRANCH   2   5
BRANCH   1  20
ATOM     20  C   UNL     1       1.352   9.888  19.697  0.00  0.00    +0.000 C 
BRANCH  20  21
ATOM     21  C   UNL     1       1.810   8.899  18.589  0.00  0.00    +0.000 C 
ATOM     22  O   UNL     1       1.746   9.167  17.389  0.00  0.00    +0.000 OA
ATOM     23  N   UNL     1       2.296   7.697  19.055  0.00  0.00    +0.000 N 
ATOM     24  H   UNL     1       2.523   7.626  20.039  0.00  0.00    +0.000 HD
BRANCH  23  25
ATOM     25  C   UNL     1       2.747   6.576  18.214  0.00  0.00    +0.000 C 
BRANCH  25  26
ATOM     26  C   UNL     1       2.043   5.264  18.627  0.00  0.00    +0.000 C 
ATOM     27  N   UNL     1       1.771   4.371  17.632  0.00  0.00    +0.000 N 
ATOM     28  O   UNL     1       1.779   4.992  19.794  0.00  0.00    +0.000 OA
ATOM     29  H   UNL     1       1.396   3.472  17.901  0.00  0.00    +0.000 HD
ATOM     30  H   UNL     1       2.271   4.437  16.746  0.00  0.00    +0.000 HD
ENDBRANCH  25  26
BRANCH  25  31
ATOM     31  C   UNL     1       4.283   6.443  18.066  0.00  0.00    +0.000 C 
ATOM     32  C   UNL     1       4.844   5.400  19.043  0.00  0.00    +0.000 C 
ATOM     33  C   UNL     1       4.677   6.032  16.645  0.00  0.00    +0.000 C 
ENDBRANCH  25  31
ENDBRANCH  23  25
ENDBRANCH  20  21
BRANCH  20  34
ATOM     34  C   UNL     1       0.011   9.512  20.345  0.00  0.00    +0.000 C 
BRANCH  34  36
ATOM     35  C   UNL     1       1.380   9.035  22.457  0.00  0.00    +0.000 C 
ATOM     36  C   UNL     1      -0.011   9.221  21.854  0.00  0.00    +0.000 C 
ATOM     37  C   UNL     1      -0.736  10.368  22.572  0.00  0.00    +0.000 C 
ENDBRANCH  34  36
ENDBRANCH  20  34
ENDBRANCH   1  20
TORSDOF 11
ENDMDL
MODEL 4
REMARK VINA RESULT:      -7.6      0.888      1.208
REMARK  Name = 
REMARK  15 active torsions:
REMARK  status: ('A' for Active; 'I' for Inactive)
REMARK    1  A    between atoms: C_1  and  C_2
REMARK    2  A    between atoms: C_2  and  C_3
REMARK    3  A    between atoms: C_2  and  C_4
REMARK    4  A    between atoms: C_4  and  C_5
REMARK    5  A    between atoms: C_5  and  N_6
REMARK    6  A    between atoms: C_5  and  C_24
REMARK    7  A    between atoms: C_7  and  C_9
REMARK    8  A    between atoms: C_14  and  O_16
REMARK    9  A    between atoms: O_16  and  C_17
REMARK   10  A    between atoms: C_17  and  C_18
REMARK   11  A    between atoms: N_26  and  C_27
REMARK   12  A    between atoms: C_27  and  C_28
REMARK   13  A    between atoms: C_27  and  C_31
REMARK   14  A    between atoms: C_31  and  C_32
REMARK   15  A    between atoms: C_31  and  C_33
REMARK                            x       y       z     vdW  Elec       q    Type
REMARK                         _______ _______ _______ _____ _____    ______ ____
ROOT
ATOM      1  N   UNL     1       4.450   4.836  17.273  0.00  0.00    +0.000 N 
ATOM      2  C   UNL     1       4.502   4.579  18.614  0.00  0.00    +0.000 C 
ATOM      3  O   UNL     1       5.309   5.140  19.358  0.00  0.00    +0.000 OA
ATOM      4  H   UNL     1       3.720   4.402  16.713  0.00  0.00    +0.000 HD
ENDROOT
BRANCH   2   5
ATOM      5  C   UNL     1       3.636   3.411  19.126  0.00  0.00    +0.000 C 
ATOM      6  C   UNL     1       3.685   2.299  18.071  0.00  0.00    +0.000 C 
ATOM      7  C   UNL     1       2.506   1.404  18.417  0.00  0.00    +0.000 C 
ATOM      8  C   UNL     1       1.483   2.348  19.031  0.00  0.00    +0.000 C 
ATOM      9  N   UNL     1       2.190   3.585  19.301  0.00  0.00    +0.000 N 
ATOM     10  C   UNL     1       1.579   4.535  20.085  0.00  0.00    +0.000 C 
ATOM     11  O   UNL     1       0.409   4.464  20.442  0.00  0.00    +0.000 OA
BRANCH  10  12
ATOM     12  O   UNL     1       2.391   5.588  20.327  0.00  0.00    +0.000 OA
BRANCH  12  13
ATOM     13  C   UNL     1       1.780   6.744  20.907  0.00  0.00    +0.000 C 
BRANCH  13  14
ATOM     14  C   UNL     1       1.801   7.838  19.880  0.00  0.00    +0.000 A 
ATOM     15  C   UNL     1       1.140   9.053  20.108  0.00  0.00    +0.000 A 
ATOM     16  C   UNL     1       1.135  10.043  19.126  0.00  0.00    +0.000 A 
ATOM     17  C   UNL     1       1.783   9.827  17.910  0.00  0.00    +0.000 A 
ATOM     18  C   UNL     1       2.439   8.618  17.675  0.00  0.00    +0.000 A 
ATOM     19  C   UNL     1       2.444   7.627  18.654  0.00  0.00    +0.000 A 
ENDBRANCH  13  14
ENDBRANCH  12  13
ENDBRANCH  10  12
ENDBRANCH   2   5
BRANCH   1  20
ATOM     20  C   UNL     1       5.338   5.804  16.627  0.00  0.00    +0.000 C 
BRANCH  20  21
ATOM     21  C   UNL     1       6.387   5.011  15.799  0.00  0.00    +0.000 C 
ATOM     22  O   UNL     1       7.415   4.549  16.295  0.00  0.00    +0.000 OA
ATOM     23  N   UNL     1       6.076   4.863  14.465  0.00  0.00    +0.000 N 
ATOM     24  H   UNL     1       5.129   5.072  14.173  0.00  0.00    +0.000 HD
BRANCH  23  25
ATOM     25  C   UNL     1       6.922   4.198  13.460  0.00  0.00    +0.000 C 
BRANCH  25  26
ATOM     26  C   UNL     1       7.692   5.239  12.617  0.00  0.00    +0.000 C 
ATOM     27  N   UNL     1       8.739   5.870  13.223  0.00  0.00    +0.000 N 
ATOM     28  O   UNL     1       7.426   5.466  11.440  0.00  0.00    +0.000 OA
ATOM     29  H   UNL     1       9.306   6.483  12.653  0.00  0.00    +0.000 HD
ATOM     30  H   UNL     1       9.161   5.459  14.054  0.00  0.00    +0.000 HD
ENDBRANCH  25  26
BRANCH  25  31
ATOM     31  C   UNL     1       6.208   3.112  12.617  0.00  0.00    +0.000 C 
ATOM     32  C   UNL     1       4.906   3.651  12.010  0.00  0.00    +0.000 C 
ATOM     33  C   UNL     1       7.099   2.611  11.477  0.00  0.00    +0.000 C 
ENDBRANCH  25  31
ENDBRANCH  23  25
ENDBRANCH  20  21
BRANCH  20  34
ATOM     34  C   UNL     1       5.955   6.683  17.726  0.00  0.00    +0.000 C 
BRANCH  34  36
ATOM     35  C   UNL     1       7.671   8.569  17.486  0.00  0.00    +0.000 C 
ATOM     36  C   UNL     1       7.439   7.065  17.604  0.00  0.00    +0.000 C 
ATOM     37  C   UNL     1       8.195   6.519  18.823  0.00  0.00    +0.000 C 
ENDBRANCH  34  36
ENDBRANCH  20  34
ENDBRANCH   1  20
TORSDOF 11
ENDMDL
MODEL 5
REMARK VINA RESULT:      -7.5      4.893      9.055
REMARK  Name = 
REMARK  15 active torsions:
REMARK  status: ('A' for Active; 'I' for Inactive)
REMARK    1  A    between atoms: C_1  and  C_2
REMARK    2  A    between atoms: C_2  and  C_3
REMARK    3  A    between atoms: C_2  and  C_4
REMARK    4  A    between atoms: C_4  and  C_5
REMARK    5  A    between atoms: C_5  and  N_6
REMARK    6  A    between atoms: C_5  and  C_24
REMARK    7  A    between atoms: C_7  and  C_9
REMARK    8  A    between atoms: C_14  and  O_16
REMARK    9  A    between atoms: O_16  and  C_17
REMARK   10  A    between atoms: C_17  and  C_18
REMARK   11  A    between atoms: N_26  and  C_27
REMARK   12  A    between atoms: C_27  and  C_28
REMARK   13  A    between atoms: C_27  and  C_31
REMARK   14  A    between atoms: C_31  and  C_32
REMARK   15  A    between atoms: C_31  and  C_33
REMARK                            x       y       z     vdW  Elec       q    Type
REMARK                         _______ _______ _______ _____ _____    ______ ____
ROOT
ATOM      1  N   UNL     1       1.197  11.139  19.323  0.00  0.00    +0.000 N 
ATOM      2  C   UNL     1       1.530  12.323  19.918  0.00  0.00    +0.000 C 
ATOM      3  O   UNL     1       1.831  12.396  21.111  0.00  0.00    +0.000 OA
ATOM      4  H   UNL     1       1.025  11.118  18.322  0.00  0.00    +0.000 HD
ENDROOT
BRANCH   2   5
ATOM      5  C   UNL     1       1.320  13.599  19.078  0.00  0.00    +0.000 C 
ATOM      6  C   UNL     1       2.661  14.340  19.016  0.00  0.00    +0.000 C 
ATOM      7  C   UNL     1       2.290  15.746  18.573  0.00  0.00    +0.000 C 
ATOM      8  C   UNL     1       0.893  15.963  19.135  0.00  0.00    +0.000 C 
ATOM      9  N   UNL     1       0.422  14.657  19.553  0.00  0.00    +0.000 N 
ATOM     10  C   UNL     1      -0.907  14.507  19.870  0.00  0.00    +0.000 C 
ATOM     11  O   UNL     1      -1.687  15.446  19.970  0.00  0.00    +0.000 OA
BRANCH  10  12
ATOM     12  O   UNL     1      -1.217  13.221  20.150  0.00  0.00    +0.000 OA
BRANCH  12  13
ATOM     13  C   UNL     1      -2.610  12.906  20.238  0.00  0.00    +0.000 C 
BRANCH  13  14
ATOM     14  C   UNL     1      -2.973  12.092  19.030  0.00  0.00    +0.000 A 
ATOM     15  C   UNL     1      -4.311  11.787  18.742  0.00  0.00    +0.000 A 
ATOM     16  C   UNL     1      -4.627  10.995  17.640  0.00  0.00    +0.000 A 
ATOM     17  C   UNL     1      -3.613  10.496  16.821  0.00  0.00    +0.000 A 
ATOM     18  C   UNL     1      -2.280  10.791  17.105  0.00  0.00    +0.000 A 
ATOM     19  C   UNL     1      -1.961  11.582  18.207  0.00  0.00    +0.000 A 
ENDBRANCH  13  14
ENDBRANCH  12  13
ENDBRANCH  10  12
ENDBRANCH   2   5
BRANCH   1  20
ATOM     20  C   UNL     1       1.190   9.871  20.055  0.00  0.00    +0.000 C 
BRANCH  20  21
ATOM     21  C   UNL     1       1.591   8.745  19.062  0.00  0.00    +0.000 C 
ATOM     22  O   UNL     1       1.421   8.839  17.845  0.00  0.00    +0.000 OA
ATOM     23  N   UNL     1       2.153   7.632  19.647  0.00  0.00    +0.000 N 
ATOM     24  H   UNL     1       2.460   7.707  20.609  0.00  0.00    +0.000 HD
BRANCH  23  25
ATOM     25  C   UNL     1       2.572   6.413  18.936  0.00  0.00    +0.000 C 
BRANCH  25  26
ATOM     26  C   UNL     1       2.090   5.150  19.684  0.00  0.00    +0.000 C 
ATOM     27  N   UNL     1       2.310   5.110  21.030  0.00  0.00    +0.000 N 
ATOM     28  O   UNL     1       1.490   4.237  19.125  0.00  0.00    +0.000 OA
ATOM     29  H   UNL     1       1.917   4.332  21.543  0.00  0.00    +0.000 HD
ATOM     30  H   UNL     1       2.495   5.975  21.536  0.00  0.00    +0.000 HD
ENDBRANCH  25  26
BRANCH  25  31
ATOM     31  C   UNL     1       4.068   6.371  18.532  0.00  0.00    +0.000 C 
ATOM     32  C   UNL     1       4.618   4.940  18.601  0.00  0.00    +0.000 C 
ATOM     33  C   UNL     1       4.281   6.901  17.113  0.00  0.00    +0.000 C 
ENDBRANCH  25  31
ENDBRANCH  23  25
ENDBRANCH  20  21
BRANCH  20  34
ATOM     34  C   UNL     1      -0.208   9.687  20.665  0.00  0.00    +0.000 C 
BRANCH  34  36
ATOM     35  C   UNL     1       1.017   9.243  22.871  0.00  0.00    +0.000 C 
ATOM     36  C   UNL     1      -0.320   9.526  22.190  0.00  0.00    +0.000 C 
ATOM     37  C   UNL     1      -0.943  10.797  22.781  0.00  0.00    +0.000 C 
ENDBRANCH  34  36
ENDBRANCH  20  34
ENDBRANCH   1  20
TORSDOF 11
ENDMDL
MODEL 6
REMARK VINA RESULT:      -7.4      1.000      1.433
REMARK  Name = 
REMARK  15 active torsions:
REMARK  status: ('A' for Active; 'I' for Inactive)
REMARK    1  A    between atoms: C_1  and  C_2
REMARK    2  A    between atoms: C_2  and  C_3
REMARK    3  A    between atoms: C_2  and  C_4
REMARK    4  A    between atoms: C_4  and  C_5
REMARK    5  A    between atoms: C_5  and  N_6
REMARK    6  A    between atoms: C_5  and  C_24
REMARK    7  A    between atoms: C_7  and  C_9
REMARK    8  A    between atoms: C_14  and  O_16
REMARK    9  A    between atoms: O_16  and  C_17
REMARK   10  A    between atoms: C_17  and  C_18
REMARK   11  A    between atoms: N_26  and  C_27
REMARK   12  A    between atoms: C_27  and  C_28
REMARK   13  A    between atoms: C_27  and  C_31
REMARK   14  A    between atoms: C_31  and  C_32
REMARK   15  A    between atoms: C_31  and  C_33
REMARK                            x       y       z     vdW  Elec       q    Type
REMARK                         _______ _______ _______ _____ _____    ______ ____
ROOT
ATOM      1  N   UNL     1       4.850   5.298  17.977  0.00  0.00    +0.000 N 
ATOM      2  C   UNL     1       3.756   4.489  18.101  0.00  0.00    +0.000 C 
ATOM      3  O   UNL     1       3.010   4.244  17.150  0.00  0.00    +0.000 OA
ATOM      4  H   UNL     1       5.474   5.412  18.771  0.00  0.00    +0.000 HD
ENDROOT
BRANCH   2   5
ATOM      5  C   UNL     1       3.380   4.052  19.530  0.00  0.00    +0.000 C 
ATOM      6  C   UNL     1       3.026   2.561  19.482  0.00  0.00    +0.000 C 
ATOM      7  C   UNL     1       2.268   2.316  20.778  0.00  0.00    +0.000 C 
ATOM      8  C   UNL     1       1.581   3.641  21.070  0.00  0.00    +0.000 C 
ATOM      9  N   UNL     1       2.195   4.614  20.187  0.00  0.00    +0.000 N 
ATOM     10  C   UNL     1       1.947   5.949  20.404  0.00  0.00    +0.000 C 
ATOM     11  O   UNL     1       1.115   6.359  21.204  0.00  0.00    +0.000 OA
BRANCH  10  12
ATOM     12  O   UNL     1       2.657   6.736  19.566  0.00  0.00    +0.000 OA
BRANCH  12  13
ATOM     13  C   UNL     1       1.943   7.289  18.455  0.00  0.00    +0.000 C 
BRANCH  13  14
ATOM     14  C   UNL     1       1.757   8.756  18.715  0.00  0.00    +0.000 A 
ATOM     15  C   UNL     1       0.995   9.203  19.804  0.00  0.00    +0.000 A 
ATOM     16  C   UNL     1       0.799  10.568  20.007  0.00  0.00    +0.000 A 
ATOM     17  C   UNL     1       1.353  11.495  19.125  0.00  0.00    +0.000 A 
ATOM     18  C   UNL     1       2.108  11.057  18.037  0.00  0.00    +0.000 A 
ATOM     19  C   UNL     1       2.305   9.693  17.831  0.00  0.00    +0.000 A 
ENDBRANCH  13  14
ENDBRANCH  12  13
ENDBRANCH  10  12
ENDBRANCH   2   5
BRANCH   1  20
ATOM     20  C   UNL     1       5.224   5.918  16.704  0.00  0.00    +0.000 C 
BRANCH  20  21
ATOM     21  C   UNL     1       6.070   4.889  15.904  0.00  0.00    +0.000 C 
ATOM     22  O   UNL     1       6.854   4.107  16.443  0.00  0.00    +0.000 OA
ATOM     23  N   UNL     1       5.874   4.919  14.541  0.00  0.00    +0.000 N 
ATOM     24  H   UNL     1       5.070   5.423  14.188  0.00  0.00    +0.000 HD
BRANCH  23  25
ATOM     25  C   UNL     1       6.584   4.084  13.558  0.00  0.00    +0.000 C 
BRANCH  25  26
ATOM     26  C   UNL     1       7.521   4.946  12.682  0.00  0.00    +0.000 C 
ATOM     27  N   UNL     1       8.395   5.763  13.336  0.00  0.00    +0.000 N 
ATOM     28  O   UNL     1       7.533   4.876  11.457  0.00  0.00    +0.000 OA
ATOM     29  H   UNL     1       9.075   6.261  12.777  0.00  0.00    +0.000 HD
ATOM     30  H   UNL     1       8.617   5.584  14.315  0.00  0.00    +0.000 HD
ENDBRANCH  25  26
BRANCH  25  31
ATOM     31  C   UNL     1       5.686   3.114  12.749  0.00  0.00    +0.000 C 
ATOM     32  C   UNL     1       4.644   3.884  11.925  0.00  0.00    +0.000 C 
ATOM     33  C   UNL     1       6.511   2.249  11.794  0.00  0.00    +0.000 C 
ENDBRANCH  25  31
ENDBRANCH  23  25
ENDBRANCH  20  21
BRANCH  20  34
ATOM     34  C   UNL     1       5.974   7.222  17.020  0.00  0.00    +0.000 C 
BRANCH  34  36
ATOM     35  C   UNL     1       8.104   8.490  17.666  0.00  0.00    +0.000 C 
ATOM     36  C   UNL     1       7.453   7.129  17.428  0.00  0.00    +0.000 C 
ATOM     37  C   UNL     1       7.567   6.274  18.697  0.00  0.00    +0.000 C 
ENDBRANCH  34  36
ENDBRANCH  20  34
ENDBRANCH   1  20
TORSDOF 11
ENDMDL
MODEL 7
REMARK VINA RESULT:      -7.3      1.221      1.527
REMARK  Name = 
REMARK  15 active torsions:
REMARK  status: ('A' for Active; 'I' for Inactive)
REMARK    1  A    between atoms: C_1  and  C_2
REMARK    2  A    between atoms: C_2  and  C_3
REMARK    3  A    between atoms: C_2  and  C_4
REMARK    4  A    between atoms: C_4  and  C_5
REMARK    5  A    between atoms: C_5  and  N_6
REMARK    6  A    between atoms: C_5  and  C_24
REMARK    7  A    between atoms: C_7  and  C_9
REMARK    8  A    between atoms: C_14  and  O_16
REMARK    9  A    between atoms: O_16  and  C_17
REMARK   10  A    between atoms: C_17  and  C_18
REMARK   11  A    between atoms: N_26  and  C_27
REMARK   12  A    between atoms: C_27  and  C_28
REMARK   13  A    between atoms: C_27  and  C_31
REMARK   14  A    between atoms: C_31  and  C_32
REMARK   15  A    between atoms: C_31  and  C_33
REMARK                            x       y       z     vdW  Elec       q    Type
REMARK                         _______ _______ _______ _____ _____    ______ ____
ROOT
ATOM      1  N   UNL     1       4.507   5.111  17.235  0.00  0.00    +0.000 N 
ATOM      2  C   UNL     1       4.724   4.696  18.519  0.00  0.00    +0.000 C 
ATOM      3  O   UNL     1       5.683   5.092  19.183  0.00  0.00    +0.000 OA
ATOM      4  H   UNL     1       3.664   4.812  16.753  0.00  0.00    +0.000 HD
ENDROOT
BRANCH   2   5
ATOM      5  C   UNL     1       3.824   3.555  19.035  0.00  0.00    +0.000 C 
ATOM      6  C   UNL     1       3.893   2.412  18.015  0.00  0.00    +0.000 C 
ATOM      7  C   UNL     1       2.689   1.544  18.346  0.00  0.00    +0.000 C 
ATOM      8  C   UNL     1       1.660   2.520  18.897  0.00  0.00    +0.000 C 
ATOM      9  N   UNL     1       2.376   3.754  19.155  0.00  0.00    +0.000 N 
ATOM     10  C   UNL     1       1.753   4.735  19.890  0.00  0.00    +0.000 C 
ATOM     11  O   UNL     1       0.571   4.692  20.207  0.00  0.00    +0.000 OA
BRANCH  10  12
ATOM     12  O   UNL     1       2.572   5.784  20.128  0.00  0.00    +0.000 OA
BRANCH  12  13
ATOM     13  C   UNL     1       2.471   6.889  19.224  0.00  0.00    +0.000 C 
BRANCH  13  14
ATOM     14  C   UNL     1       1.742   7.994  19.932  0.00  0.00    +0.000 A 
ATOM     15  C   UNL     1       1.288   9.121  19.232  0.00  0.00    +0.000 A 
ATOM     16  C   UNL     1       0.650  10.157  19.912  0.00  0.00    +0.000 A 
ATOM     17  C   UNL     1       0.464  10.080  21.292  0.00  0.00    +0.000 A 
ATOM     18  C   UNL     1       0.917   8.964  21.994  0.00  0.00    +0.000 A 
ATOM     19  C   UNL     1       1.557   7.927  21.318  0.00  0.00    +0.000 A 
ENDBRANCH  13  14
ENDBRANCH  12  13
ENDBRANCH  10  12
ENDBRANCH   2   5
BRANCH   1  20
ATOM     20  C   UNL     1       5.389   6.068  16.563  0.00  0.00    +0.000 C 
BRANCH  20  21
ATOM     21  C   UNL     1       6.427   5.260  15.737  0.00  0.00    +0.000 C 
ATOM     22  O   UNL     1       7.325   4.599  16.260  0.00  0.00    +0.000 OA
ATOM     23  N   UNL     1       6.265   5.340  14.371  0.00  0.00    +0.000 N 
ATOM     24  H   UNL     1       5.393   5.714  14.018  0.00  0.00    +0.000 HD
BRANCH  23  25
ATOM     25  C   UNL     1       7.141   4.709  13.370  0.00  0.00    +0.000 C 
BRANCH  25  26
ATOM     26  C   UNL     1       8.189   5.717  12.846  0.00  0.00    +0.000 C 
ATOM     27  N   UNL     1       7.912   6.333  11.661  0.00  0.00    +0.000 N 
ATOM     28  O   UNL     1       9.202   6.005  13.474  0.00  0.00    +0.000 OA
ATOM     29  H   UNL     1       8.543   7.060  11.355  0.00  0.00    +0.000 HD
ATOM     30  H   UNL     1       6.953   6.352  11.315  0.00  0.00    +0.000 HD
ENDBRANCH  25  26
BRANCH  25  31
ATOM     31  C   UNL     1       6.403   3.933  12.249  0.00  0.00    +0.000 C 
ATOM     32  C   UNL     1       7.237   2.739  11.764  0.00  0.00    +0.000 C 
ATOM     33  C   UNL     1       5.047   3.410  12.728  0.00  0.00    +0.000 C 
ENDBRANCH  25  31
ENDBRANCH  23  25
ENDBRANCH  20  21
BRANCH  20  34
ATOM     34  C   UNL     1       6.019   6.964  17.641  0.00  0.00    +0.000 C 
BRANCH  34  36
ATOM     35  C   UNL     1       7.811   8.788  17.500  0.00  0.00    +0.000 C 
ATOM     36  C   UNL     1       7.517   7.291  17.530  0.00  0.00    +0.000 C 
ATOM     37  C   UNL     1       8.256   6.642  18.708  0.00  0.00    +0.000 C 
ENDBRANCH  34  36
ENDBRANCH  20  34
ENDBRANCH   1  20
TORSDOF 11
ENDMDL
MODEL 8
REMARK VINA RESULT:      -7.3      5.176      9.344
REMARK  Name = 
REMARK  15 active torsions:
REMARK  status: ('A' for Active; 'I' for Inactive)
REMARK    1  A    between atoms: C_1  and  C_2
REMARK    2  A    between atoms: C_2  and  C_3
REMARK    3  A    between atoms: C_2  and  C_4
REMARK    4  A    between atoms: C_4  and  C_5
REMARK    5  A    between atoms: C_5  and  N_6
REMARK    6  A    between atoms: C_5  and  C_24
REMARK    7  A    between atoms: C_7  and  C_9
REMARK    8  A    between atoms: C_14  and  O_16
REMARK    9  A    between atoms: O_16  and  C_17
REMARK   10  A    between atoms: C_17  and  C_18
REMARK   11  A    between atoms: N_26  and  C_27
REMARK   12  A    between atoms: C_27  and  C_28
REMARK   13  A    between atoms: C_27  and  C_31
REMARK   14  A    between atoms: C_31  and  C_32
REMARK   15  A    between atoms: C_31  and  C_33
REMARK                            x       y       z     vdW  Elec       q    Type
REMARK                         _______ _______ _______ _____ _____    ______ ____
ROOT
ATOM      1  N   UNL     1       1.374  11.545  18.536  0.00  0.00    +0.000 N 
ATOM      2  C   UNL     1       1.966  12.598  19.173  0.00  0.00    +0.000 C 
ATOM      3  O   UNL     1       2.248  12.565  20.373  0.00  0.00    +0.000 OA
ATOM      4  H   UNL     1       1.227  11.592  17.532  0.00  0.00    +0.000 HD
ENDROOT
BRANCH   2   5
ATOM      5  C   UNL     1       2.090  13.908  18.370  0.00  0.00    +0.000 C 
ATOM      6  C   UNL     1       3.560  14.065  17.962  0.00  0.00    +0.000 C 
ATOM      7  C   UNL     1       3.685  15.532  17.579  0.00  0.00    +0.000 C 
ATOM      8  C   UNL     1       2.664  16.240  18.456  0.00  0.00    +0.000 C 
ATOM      9  N   UNL     1       1.825  15.198  19.015  0.00  0.00    +0.000 N 
ATOM     10  C   UNL     1       0.661  15.561  19.651  0.00  0.00    +0.000 C 
ATOM     11  O   UNL     1       0.366  16.721  19.908  0.00  0.00    +0.000 OA
BRANCH  10  12
ATOM     12  O   UNL     1      -0.059  14.484  20.037  0.00  0.00    +0.000 OA
BRANCH  12  13
ATOM     13  C   UNL     1      -1.421  14.726  20.403  0.00  0.00    +0.000 C 
BRANCH  13  14
ATOM     14  C   UNL     1      -1.817  13.686  21.410  0.00  0.00    +0.000 A 
ATOM     15  C   UNL     1      -3.139  13.595  21.869  0.00  0.00    +0.000 A 
ATOM     16  C   UNL     1      -3.480  12.650  22.835  0.00  0.00    +0.000 A 
ATOM     17  C   UNL     1      -2.508  11.795  23.355  0.00  0.00    +0.000 A 
ATOM     18  C   UNL     1      -1.191  11.884  22.905  0.00  0.00    +0.000 A 
ATOM     19  C   UNL     1      -0.846  12.829  21.941  0.00  0.00    +0.000 A 
ENDBRANCH  13  14
ENDBRANCH  12  13
ENDBRANCH  10  12
ENDBRANCH   2   5
BRANCH   1  20
ATOM     20  C   UNL     1       1.045  10.297  19.228  0.00  0.00    +0.000 C 
BRANCH  20  21
ATOM     21  C   UNL     1       1.701   9.129  18.441  0.00  0.00    +0.000 C 
ATOM     22  O   UNL     1       1.950   9.194  17.237  0.00  0.00    +0.000 OA
ATOM     23  N   UNL     1       1.985   8.012  19.197  0.00  0.00    +0.000 N 
ATOM     24  H   UNL     1       1.958   8.103  20.205  0.00  0.00    +0.000 HD
BRANCH  23  25
ATOM     25  C   UNL     1       2.561   6.758  18.683  0.00  0.00    +0.000 C 
BRANCH  25  26
ATOM     26  C   UNL     1       2.064   5.550  19.508  0.00  0.00    +0.000 C 
ATOM     27  N   UNL     1       1.969   5.723  20.858  0.00  0.00    +0.000 N 
ATOM     28  O   UNL     1       1.714   4.493  18.990  0.00  0.00    +0.000 OA
ATOM     29  H   UNL     1       1.559   4.972  21.396  0.00  0.00    +0.000 HD
ATOM     30  H   UNL     1       1.935   6.665  21.244  0.00  0.00    +0.000 HD
ENDBRANCH  25  26
BRANCH  25  31
ATOM     31  C   UNL     1       4.095   6.781  18.467  0.00  0.00    +0.000 C 
ATOM     32  C   UNL     1       4.762   5.560  19.114  0.00  0.00    +0.000 C 
ATOM     33  C   UNL     1       4.451   6.791  16.978  0.00  0.00    +0.000 C 
ENDBRANCH  25  31
ENDBRANCH  23  25
ENDBRANCH  20  21
BRANCH  20  34
ATOM     34  C   UNL     1      -0.486  10.198  19.318  0.00  0.00    +0.000 C 
BRANCH  34  36
ATOM     35  C   UNL     1      -1.767   9.842  17.128  0.00  0.00    +0.000 C 
ATOM     36  C   UNL     1      -1.322  10.837  18.197  0.00  0.00    +0.000 C 
ATOM     37  C   UNL     1      -2.552  11.513  18.817  0.00  0.00    +0.000 C 
ENDBRANCH  34  36
ENDBRANCH  20  34
ENDBRANCH   1  20
TORSDOF 11
ENDMDL
MODEL 9
REMARK VINA RESULT:      -7.2      5.110      9.325
REMARK  Name = 
REMARK  15 active torsions:
REMARK  status: ('A' for Active; 'I' for Inactive)
REMARK    1  A    between atoms: C_1  and  C_2
REMARK    2  A    between atoms: C_2  and  C_3
REMARK    3  A    between atoms: C_2  and  C_4
REMARK    4  A    between atoms: C_4  and  C_5
REMARK    5  A    between atoms: C_5  and  N_6
REMARK    6  A    between atoms: C_5  and  C_24
REMARK    7  A    between atoms: C_7  and  C_9
REMARK    8  A    between atoms: C_14  and  O_16
REMARK    9  A    between atoms: O_16  and  C_17
REMARK   10  A    between atoms: C_17  and  C_18
REMARK   11  A    between atoms: N_26  and  C_27
REMARK   12  A    between atoms: C_27  and  C_28
REMARK   13  A    between atoms: C_27  and  C_31
REMARK   14  A    between atoms: C_31  and  C_32
REMARK   15  A    between atoms: C_31  and  C_33
REMARK                            x       y       z     vdW  Elec       q    Type
REMARK                         _______ _______ _______ _____ _____    ______ ____
ROOT
ATOM      1  N   UNL     1       1.325  11.561  18.493  0.00  0.00    +0.000 N 
ATOM      2  C   UNL     1       1.984  12.592  19.101  0.00  0.00    +0.000 C 
ATOM      3  O   UNL     1       2.322  12.547  20.286  0.00  0.00    +0.000 OA
ATOM      4  H   UNL     1       1.131  11.616  17.497  0.00  0.00    +0.000 HD
ENDROOT
BRANCH   2   5
ATOM      5  C   UNL     1       2.113  13.899  18.294  0.00  0.00    +0.000 C 
ATOM      6  C   UNL     1       3.603  14.127  18.014  0.00  0.00    +0.000 C 
ATOM      7  C   UNL     1       3.689  15.594  17.623  0.00  0.00    +0.000 C 
ATOM      8  C   UNL     1       2.559  16.258  18.397  0.00  0.00    +0.000 C 
ATOM      9  N   UNL     1       1.727  15.180  18.895  0.00  0.00    +0.000 N 
ATOM     10  C   UNL     1       0.495  15.488  19.421  0.00  0.00    +0.000 C 
ATOM     11  O   UNL     1       0.121  16.635  19.635  0.00  0.00    +0.000 OA
BRANCH  10  12
ATOM     12  O   UNL     1      -0.202  14.380  19.757  0.00  0.00    +0.000 OA
BRANCH  12  13
ATOM     13  C   UNL     1      -1.508  14.590  20.302  0.00  0.00    +0.000 C 
BRANCH  13  14
ATOM     14  C   UNL     1      -1.728  13.562  21.374  0.00  0.00    +0.000 A 
ATOM     15  C   UNL     1      -0.677  12.744  21.814  0.00  0.00    +0.000 A 
ATOM     16  C   UNL     1      -0.908  11.768  22.781  0.00  0.00    +0.000 A 
ATOM     17  C   UNL     1      -2.186  11.595  23.311  0.00  0.00    +0.000 A 
ATOM     18  C   UNL     1      -3.236  12.402  22.875  0.00  0.00    +0.000 A 
ATOM     19  C   UNL     1      -3.009  13.378  21.907  0.00  0.00    +0.000 A 
ENDBRANCH  13  14
ENDBRANCH  12  13
ENDBRANCH  10  12
ENDBRANCH   2   5
BRANCH   1  20
ATOM     20  C   UNL     1       0.988  10.323  19.200  0.00  0.00    +0.000 C 
BRANCH  20  21
ATOM     21  C   UNL     1       1.661   9.145  18.442  0.00  0.00    +0.000 C 
ATOM     22  O   UNL     1       1.958   9.203  17.248  0.00  0.00    +0.000 OA
ATOM     23  N   UNL     1       1.899   8.027  19.211  0.00  0.00    +0.000 N 
ATOM     24  H   UNL     1       1.834   8.120  20.217  0.00  0.00    +0.000 HD
BRANCH  23  25
ATOM     25  C   UNL     1       2.479   6.764  18.724  0.00  0.00    +0.000 C 
BRANCH  25  26
ATOM     26  C   UNL     1       1.958   5.567  19.551  0.00  0.00    +0.000 C 
ATOM     27  N   UNL     1       1.695   4.416  18.868  0.00  0.00    +0.000 N 
ATOM     28  O   UNL     1       1.830   5.610  20.771  0.00  0.00    +0.000 OA
ATOM     29  H   UNL     1       1.443   3.600  19.410  0.00  0.00    +0.000 HD
ATOM     30  H   UNL     1       2.104   4.272  17.946  0.00  0.00    +0.000 HD
ENDBRANCH  25  26
BRANCH  25  31
ATOM     31  C   UNL     1       4.018   6.776  18.540  0.00  0.00    +0.000 C 
ATOM     32  C   UNL     1       4.668   5.579  19.245  0.00  0.00    +0.000 C 
ATOM     33  C   UNL     1       4.406   6.732  17.060  0.00  0.00    +0.000 C 
ENDBRANCH  25  31
ENDBRANCH  23  25
ENDBRANCH  20  21
BRANCH  20  34
ATOM     34  C   UNL     1      -0.543  10.222  19.266  0.00  0.00    +0.000 C 
BRANCH  34  36
ATOM     35  C   UNL     1      -1.756   9.833  17.043  0.00  0.00    +0.000 C 
ATOM     36  C   UNL     1      -1.363  10.840  18.122  0.00  0.00    +0.000 C 
ATOM     37  C   UNL     1      -2.624  11.489  18.706  0.00  0.00    +0.000 C 
ENDBRANCH  34  36
ENDBRANCH  20  34
ENDBRANCH   1  20
TORSDOF 11
ENDMDL
