MODEL 1
REMARK VINA RESULT:      -8.8      0.000      0.000
REMARK  Name = 
REMARK  10 active torsions:
REMARK  status: ('A' for Active; 'I' for Inactive)
REMARK    1  A    between atoms: C_1  and  O_2
REMARK    2  A    between atoms: O_2  and  C_3
REMARK    3  A    between atoms: C_7  and  C_8
REMARK    4  A    between atoms: C_14  and  C_15
REMARK    5  A    between atoms: C_17  and  O_18
REMARK    6  A    between atoms: O_18  and  C_19
REMARK    7  A    between atoms: C_20  and  O_21
REMARK    8  A    between atoms: O_21  and  C_22
REMARK    9  A    between atoms: C_23  and  O_24
REMARK   10  A    between atoms: O_24  and  C_25
REMARK                            x       y       z     vdW  Elec       q    Type
REMARK                         _______ _______ _______ _____ _____    ______ ____
ROOT
ATOM      1  C   UNL     1       2.171   6.177  19.407  0.00  0.00    +0.000 A 
ATOM      2  C   UNL     1       1.560   5.272  20.378  0.00  0.00    +0.000 A 
ATOM      3  C   UNL     1       1.844   3.954  20.391  0.00  0.00    +0.000 A 
ATOM      4  C   UNL     1       2.772   3.427  19.456  0.00  0.00    +0.000 A 
ATOM      5  N   UNL     1       3.201   2.207  19.227  0.00  0.00    +0.000 NA
ATOM      6  N   UNL     1       4.121   2.275  18.211  0.00  0.00    +0.000 NA
ATOM      7  C   UNL     1       4.272   3.539  17.846  0.00  0.00    +0.000 A 
ATOM      8  N   UNL     1       3.374   4.309  18.570  0.00  0.00    +0.000 N 
ATOM      9  C   UNL     1       3.051   5.667  18.521  0.00  0.00    +0.000 A 
ENDROOT
BRANCH   1  14
ATOM     10  C   UNL     1       1.059   9.637  20.398  0.00  0.00    +0.000 A 
ATOM     11  C   UNL     1       1.258  10.327  19.200  0.00  0.00    +0.000 A 
ATOM     12  C   UNL     1       1.770   9.675  18.077  0.00  0.00    +0.000 A 
ATOM     13  C   UNL     1       2.081   8.319  18.146  0.00  0.00    +0.000 A 
ATOM     14  C   UNL     1       1.885   7.617  19.340  0.00  0.00    +0.000 A 
ATOM     15  C   UNL     1       1.384   8.281  20.468  0.00  0.00    +0.000 A 
BRANCH  10  17
ATOM     16  C   UNL     1       0.030   9.688  22.542  0.00  0.00    +0.000 C 
ATOM     17  O   UNL     1       0.534  10.389  21.412  0.00  0.00    +0.000 OA
ENDBRANCH  10  17
ENDBRANCH   1  14
BRANCH   7  18
ATOM     18  C   UNL     1       5.230   4.006  16.840  0.00  0.00    +0.000 A 
ATOM     19  C   UNL     1       6.082   5.064  17.158  0.00  0.00    +0.000 A 
ATOM     20  C   UNL     1       6.998   5.562  16.224  0.00  0.00    +0.000 A 
ATOM     21  C   UNL     1       7.053   5.010  14.925  0.00  0.00    +0.000 A 
ATOM     22  C   UNL     1       6.179   3.959  14.581  0.00  0.00    +0.000 A 
ATOM     23  C   UNL     1       5.275   3.481  15.543  0.00  0.00    +0.000 A 
BRANCH  20  24
ATOM     24  O   UNL     1       7.855   6.602  16.505  0.00  0.00    +0.000 OA
ATOM     25  C   UNL     1       7.554   7.367  17.669  0.00  0.00    +0.000 C 
ENDBRANCH  20  24
BRANCH  21  26
ATOM     26  O   UNL     1       7.930   5.630  14.065  0.00  0.00    +0.000 OA
ATOM     27  C   UNL     1       7.831   5.316  12.681  0.00  0.00    +0.000 C 
ENDBRANCH  21  26
BRANCH  22  28
ATOM     28  O   UNL     1       6.206   3.475  13.299  0.00  0.00    +0.000 OA
ATOM     29  C   UNL     1       4.979   3.362  12.589  0.00  0.00    +0.000 C 
ENDBRANCH  22  28
ENDBRANCH   7  18
TORSDOF 6
ENDMDL
MODEL 2
REMARK VINA RESULT:      -8.7      4.285      6.597
REMARK  Name = 
REMARK  10 active torsions:
REMARK  status: ('A' for Active; 'I' for Inactive)
REMARK    1  A    between atoms: C_1  and  O_2
REMARK    2  A    between atoms: O_2  and  C_3
REMARK    3  A    between atoms: C_7  and  C_8
REMARK    4  A    between atoms: C_14  and  C_15
REMARK    5  A    between atoms: C_17  and  O_18
REMARK    6  A    between atoms: O_18  and  C_19
REMARK    7  A    between atoms: C_20  and  O_21
REMARK    8  A    between atoms: O_21  and  C_22
REMARK    9  A    between atoms: C_23  and  O_24
REMARK   10  A    between atoms: O_24  and  C_25
REMARK                            x       y       z     vdW  Elec       q    Type
REMARK                         _______ _______ _______ _____ _____    ______ ____
ROOT
ATOM      1  C   UNL     1      -1.338  10.607  19.315  0.00  0.00    +0.000 A 
ATOM      2  C   UNL     1      -1.336  11.624  20.364  0.00  0.00    +0.000 A 
ATOM      3  C   UNL     1      -0.565  11.506  21.464  0.00  0.00    +0.000 A 
ATOM      4  C   UNL     1       0.284  10.378  21.606  0.00  0.00    +0.000 A 
ATOM      5  N   UNL     1       1.099   9.999  22.563  0.00  0.00    +0.000 NA
ATOM      6  N   UNL     1       1.693   8.828  22.164  0.00  0.00    +0.000 NA
ATOM      7  C   UNL     1       1.262   8.515  20.952  0.00  0.00    +0.000 A 
ATOM      8  N   UNL     1       0.302   9.444  20.579  0.00  0.00    +0.000 N 
ATOM      9  C   UNL     1      -0.527   9.538  19.460  0.00  0.00    +0.000 A 
ENDROOT
BRANCH   1  14
ATOM     10  C   UNL     1      -4.140  11.522  16.972  0.00  0.00    +0.000 A 
ATOM     11  C   UNL     1      -3.801  10.761  15.851  0.00  0.00    +0.000 A 
ATOM     12  C   UNL     1      -2.654   9.966  15.848  0.00  0.00    +0.000 A 
ATOM     13  C   UNL     1      -1.839   9.924  16.977  0.00  0.00    +0.000 A 
ATOM     14  C   UNL     1      -2.169  10.680  18.107  0.00  0.00    +0.000 A 
ATOM     15  C   UNL     1      -3.315  11.487  18.097  0.00  0.00    +0.000 A 
BRANCH  10  17
ATOM     16  C   UNL     1      -6.370  11.888  17.717  0.00  0.00    +0.000 C 
ATOM     17  O   UNL     1      -5.299  12.238  16.848  0.00  0.00    +0.000 OA
ENDBRANCH  10  17
ENDBRANCH   1  14
BRANCH   7  18
ATOM     18  C   UNL     1       1.736   7.369  20.171  0.00  0.00    +0.000 A 
ATOM     19  C   UNL     1       1.485   6.080  20.642  0.00  0.00    +0.000 A 
ATOM     20  C   UNL     1       1.938   4.954  19.945  0.00  0.00    +0.000 A 
ATOM     21  C   UNL     1       2.686   5.111  18.756  0.00  0.00    +0.000 A 
ATOM     22  C   UNL     1       2.970   6.408  18.284  0.00  0.00    +0.000 A 
ATOM     23  C   UNL     1       2.498   7.516  19.006  0.00  0.00    +0.000 A 
BRANCH  20  24
ATOM     24  O   UNL     1       1.706   3.668  20.378  0.00  0.00    +0.000 OA
ATOM     25  C   UNL     1       2.116   3.371  21.711  0.00  0.00    +0.000 C 
ENDBRANCH  20  24
BRANCH  21  26
ATOM     26  O   UNL     1       3.150   3.941  18.200  0.00  0.00    +0.000 OA
ATOM     27  C   UNL     1       4.416   3.461  18.634  0.00  0.00    +0.000 C 
ENDBRANCH  21  26
BRANCH  22  28
ATOM     28  O   UNL     1       3.745   6.543  17.161  0.00  0.00    +0.000 OA
ATOM     29  C   UNL     1       5.131   6.819  17.321  0.00  0.00    +0.000 C 
ENDBRANCH  22  28
ENDBRANCH   7  18
TORSDOF 6
ENDMDL
MODEL 3
REMARK VINA RESULT:      -8.6      4.251      6.605
REMARK  Name = 
REMARK  10 active torsions:
REMARK  status: ('A' for Active; 'I' for Inactive)
REMARK    1  A    between atoms: C_1  and  O_2
REMARK    2  A    between atoms: O_2  and  C_3
REMARK    3  A    between atoms: C_7  and  C_8
REMARK    4  A    between atoms: C_14  and  C_15
REMARK    5  A    between atoms: C_17  and  O_18
REMARK    6  A    between atoms: O_18  and  C_19
REMARK    7  A    between atoms: C_20  and  O_21
REMARK    8  A    between atoms: O_21  and  C_22
REMARK    9  A    between atoms: C_23  and  O_24
REMARK   10  A    between atoms: O_24  and  C_25
REMARK                            x       y       z     vdW  Elec       q    Type
REMARK                         _______ _______ _______ _____ _____    ______ ____
ROOT
ATOM      1  C   UNL     1      -1.186  10.564  19.246  0.00  0.00    +0.000 A 
ATOM      2  C   UNL     1      -1.088  11.654  20.215  0.00  0.00    +0.000 A 
ATOM      3  C   UNL     1      -0.309  11.559  21.311  0.00  0.00    +0.000 A 
ATOM      4  C   UNL     1       0.454  10.382  21.529  0.00  0.00    +0.000 A 
ATOM      5  N   UNL     1       1.254  10.014  22.502  0.00  0.00    +0.000 NA
ATOM      6  N   UNL     1       1.750   8.774  22.187  0.00  0.00    +0.000 NA
ATOM      7  C   UNL     1       1.275   8.406  21.007  0.00  0.00    +0.000 A 
ATOM      8  N   UNL     1       0.382   9.376  20.576  0.00  0.00    +0.000 N 
ATOM      9  C   UNL     1      -0.457   9.450  19.463  0.00  0.00    +0.000 A 
ENDROOT
BRANCH   1  14
ATOM     10  C   UNL     1      -4.008  11.438  16.911  0.00  0.00    +0.000 A 
ATOM     11  C   UNL     1      -3.687  10.644  15.807  0.00  0.00    +0.000 A 
ATOM     12  C   UNL     1      -2.546   9.841  15.813  0.00  0.00    +0.000 A 
ATOM     13  C   UNL     1      -1.718   9.822  16.933  0.00  0.00    +0.000 A 
ATOM     14  C   UNL     1      -2.030  10.611  18.046  0.00  0.00    +0.000 A 
ATOM     15  C   UNL     1      -3.170  11.427  18.027  0.00  0.00    +0.000 A 
BRANCH  10  17
ATOM     16  C   UNL     1      -5.953  12.328  17.951  0.00  0.00    +0.000 C 
ATOM     17  O   UNL     1      -5.163  12.159  16.781  0.00  0.00    +0.000 OA
ENDBRANCH  10  17
ENDBRANCH   1  14
BRANCH   7  18
ATOM     18  C   UNL     1       1.647   7.171  20.309  0.00  0.00    +0.000 A 
ATOM     19  C   UNL     1       2.426   7.256  19.155  0.00  0.00    +0.000 A 
ATOM     20  C   UNL     1       2.787   6.109  18.439  0.00  0.00    +0.000 A 
ATOM     21  C   UNL     1       2.341   4.839  18.867  0.00  0.00    +0.000 A 
ATOM     22  C   UNL     1       1.530   4.741  20.016  0.00  0.00    +0.000 A 
ATOM     23  C   UNL     1       1.189   5.912  20.713  0.00  0.00    +0.000 A 
BRANCH  20  24
ATOM     24  O   UNL     1       3.556   6.156  17.299  0.00  0.00    +0.000 OA
ATOM     25  C   UNL     1       4.719   6.979  17.358  0.00  0.00    +0.000 C 
ENDBRANCH  20  24
BRANCH  21  26
ATOM     26  O   UNL     1       2.686   3.791  18.044  0.00  0.00    +0.000 OA
ATOM     27  C   UNL     1       3.816   3.010  18.411  0.00  0.00    +0.000 C 
ENDBRANCH  21  26
BRANCH  22  28
ATOM     28  O   UNL     1       1.059   3.508  20.385  0.00  0.00    +0.000 OA
ATOM     29  C   UNL     1       1.650   2.862  21.505  0.00  0.00    +0.000 C 
ENDBRANCH  22  28
ENDBRANCH   7  18
TORSDOF 6
ENDMDL
MODEL 4
REMARK VINA RESULT:      -8.5      4.248      6.761
REMARK  Name = 
REMARK  10 active torsions:
REMARK  status: ('A' for Active; 'I' for Inactive)
REMARK    1  A    between atoms: C_1  and  O_2
REMARK    2  A    between atoms: O_2  and  C_3
REMARK    3  A    between atoms: C_7  and  C_8
REMARK    4  A    between atoms: C_14  and  C_15
REMARK    5  A    between atoms: C_17  and  O_18
REMARK    6  A    between atoms: O_18  and  C_19
REMARK    7  A    between atoms: C_20  and  O_21
REMARK    8  A    between atoms: O_21  and  C_22
REMARK    9  A    between atoms: C_23  and  O_24
REMARK   10  A    between atoms: O_24  and  C_25
REMARK                            x       y       z     vdW  Elec       q    Type
REMARK                         _______ _______ _______ _____ _____    ______ ____
ROOT
ATOM      1  C   UNL     1      -1.398  10.686  19.393  0.00  0.00    +0.000 A 
ATOM      2  C   UNL     1      -1.333  11.724  20.420  0.00  0.00    +0.000 A 
ATOM      3  C   UNL     1      -0.520  11.611  21.490  0.00  0.00    +0.000 A 
ATOM      4  C   UNL     1       0.312  10.468  21.620  0.00  0.00    +0.000 A 
ATOM      5  N   UNL     1       1.157  10.091  22.552  0.00  0.00    +0.000 NA
ATOM      6  N   UNL     1       1.710   8.900  22.153  0.00  0.00    +0.000 NA
ATOM      7  C   UNL     1       1.223   8.572  20.967  0.00  0.00    +0.000 A 
ATOM      8  N   UNL     1       0.268   9.514  20.614  0.00  0.00    +0.000 N 
ATOM      9  C   UNL     1      -0.604   9.603  19.528  0.00  0.00    +0.000 A 
ENDROOT
BRANCH   1  14
ATOM     10  C   UNL     1      -2.693  10.233  15.886  0.00  0.00    +0.000 A 
ATOM     11  C   UNL     1      -3.893  10.944  15.958  0.00  0.00    +0.000 A 
ATOM     12  C   UNL     1      -4.291  11.554  17.149  0.00  0.00    +0.000 A 
ATOM     13  C   UNL     1      -3.482  11.461  18.279  0.00  0.00    +0.000 A 
ATOM     14  C   UNL     1      -2.276  10.753  18.218  0.00  0.00    +0.000 A 
ATOM     15  C   UNL     1      -1.890  10.130  17.023  0.00  0.00    +0.000 A 
BRANCH  10  17
ATOM     16  C   UNL     1      -3.376   9.916  13.629  0.00  0.00    +0.000 C 
ATOM     17  O   UNL     1      -2.415   9.704  14.656  0.00  0.00    +0.000 OA
ENDBRANCH  10  17
ENDBRANCH   1  14
BRANCH   7  18
ATOM     18  C   UNL     1       1.642   7.401  20.190  0.00  0.00    +0.000 A 
ATOM     19  C   UNL     1       1.343   6.127  20.675  0.00  0.00    +0.000 A 
ATOM     20  C   UNL     1       1.741   4.977  19.984  0.00  0.00    +0.000 A 
ATOM     21  C   UNL     1       2.482   5.094  18.786  0.00  0.00    +0.000 A 
ATOM     22  C   UNL     1       2.814   6.374  18.299  0.00  0.00    +0.000 A 
ATOM     23  C   UNL     1       2.396   7.507  19.016  0.00  0.00    +0.000 A 
BRANCH  20  24
ATOM     24  O   UNL     1       1.461   3.706  20.431  0.00  0.00    +0.000 OA
ATOM     25  C   UNL     1       2.140   3.293  21.614  0.00  0.00    +0.000 C 
ENDBRANCH  20  24
BRANCH  21  26
ATOM     26  O   UNL     1       2.891   3.901  18.235  0.00  0.00    +0.000 OA
ATOM     27  C   UNL     1       4.212   3.461  18.522  0.00  0.00    +0.000 C 
ENDBRANCH  21  26
BRANCH  22  28
ATOM     28  O   UNL     1       3.582   6.468  17.168  0.00  0.00    +0.000 OA
ATOM     29  C   UNL     1       4.952   6.823  17.303  0.00  0.00    +0.000 C 
ENDBRANCH  22  28
ENDBRANCH   7  18
TORSDOF 6
ENDMDL
MODEL 5
REMARK VINA RESULT:      -8.4      0.240      2.403
REMARK  Name = 
REMARK  10 active torsions:
REMARK  status: ('A' for Active; 'I' for Inactive)
REMARK    1  A    between atoms: C_1  and  O_2
REMARK    2  A    between atoms: O_2  and  C_3
REMARK    3  A    between atoms: C_7  and  C_8
REMARK    4  A    between atoms: C_14  and  C_15
REMARK    5  A    between atoms: C_17  and  O_18
REMARK    6  A    between atoms: O_18  and  C_19
REMARK    7  A    between atoms: C_20  and  O_21
REMARK    8  A    between atoms: O_21  and  C_22
REMARK    9  A    between atoms: C_23  and  O_24
REMARK   10  A    between atoms: O_24  and  C_25
REMARK                            x       y       z     vdW  Elec       q    Type
REMARK                         _______ _______ _______ _____ _____    ______ ____
ROOT
ATOM      1  C   UNL     1       2.090   6.251  19.502  0.00  0.00    +0.000 A 
ATOM      2  C   UNL     1       1.463   5.300  20.416  0.00  0.00    +0.000 A 
ATOM      3  C   UNL     1       1.746   3.983  20.371  0.00  0.00    +0.000 A 
ATOM      4  C   UNL     1       2.690   3.501  19.427  0.00  0.00    +0.000 A 
ATOM      5  N   UNL     1       3.124   2.294  19.147  0.00  0.00    +0.000 NA
ATOM      6  N   UNL     1       4.061   2.409  18.151  0.00  0.00    +0.000 NA
ATOM      7  C   UNL     1       4.218   3.689  17.851  0.00  0.00    +0.000 A 
ATOM      8  N   UNL     1       3.307   4.425  18.596  0.00  0.00    +0.000 N 
ATOM      9  C   UNL     1       2.985   5.783  18.607  0.00  0.00    +0.000 A 
ENDROOT
BRANCH   1  14
ATOM     10  C   UNL     1       0.972   9.661  20.644  0.00  0.00    +0.000 A 
ATOM     11  C   UNL     1       1.181  10.406  19.481  0.00  0.00    +0.000 A 
ATOM     12  C   UNL     1       1.700   9.807  18.333  0.00  0.00    +0.000 A 
ATOM     13  C   UNL     1       2.011   8.449  18.341  0.00  0.00    +0.000 A 
ATOM     14  C   UNL     1       1.805   7.692  19.499  0.00  0.00    +0.000 A 
ATOM     15  C   UNL     1       1.296   8.304  20.653  0.00  0.00    +0.000 A 
BRANCH  10  17
ATOM     16  C   UNL     1       0.084   9.628  22.851  0.00  0.00    +0.000 C 
ATOM     17  O   UNL     1       0.439  10.366  21.688  0.00  0.00    +0.000 OA
ENDBRANCH  10  17
ENDBRANCH   1  14
BRANCH   7  18
ATOM     18  C   UNL     1       5.193   4.204  16.885  0.00  0.00    +0.000 A 
ATOM     19  C   UNL     1       5.360   3.534  15.672  0.00  0.00    +0.000 A 
ATOM     20  C   UNL     1       6.295   3.972  14.727  0.00  0.00    +0.000 A 
ATOM     21  C   UNL     1       7.108   5.094  15.003  0.00  0.00    +0.000 A 
ATOM     22  C   UNL     1       6.968   5.763  16.236  0.00  0.00    +0.000 A 
ATOM     23  C   UNL     1       6.018   5.300  17.160  0.00  0.00    +0.000 A 
BRANCH  20  24
ATOM     24  O   UNL     1       6.485   3.337  13.520  0.00  0.00    +0.000 OA
ATOM     25  C   UNL     1       5.366   3.319  12.638  0.00  0.00    +0.000 C 
ENDBRANCH  20  24
BRANCH  21  26
ATOM     26  O   UNL     1       8.047   5.385  14.040  0.00  0.00    +0.000 OA
ATOM     27  C   UNL     1       7.577   5.730  12.743  0.00  0.00    +0.000 C 
ENDBRANCH  21  26
BRANCH  22  28
ATOM     28  O   UNL     1       7.804   6.815  16.510  0.00  0.00    +0.000 OA
ATOM     29  C   UNL     1       7.667   7.483  17.758  0.00  0.00    +0.000 C 
ENDBRANCH  22  28
ENDBRANCH   7  18
TORSDOF 6
ENDMDL
MODEL 6
REMARK VINA RESULT:      -8.4      0.929      1.605
REMARK  Name = 
REMARK  10 active torsions:
REMARK  status: ('A' for Active; 'I' for Inactive)
REMARK    1  A    between atoms: C_1  and  O_2
REMARK    2  A    between atoms: O_2  and  C_3
REMARK    3  A    between atoms: C_7  and  C_8
REMARK    4  A    between atoms: C_14  and  C_15
REMARK    5  A    between atoms: C_17  and  O_18
REMARK    6  A    between atoms: O_18  and  C_19
REMARK    7  A    between atoms: C_20  and  O_21
REMARK    8  A    between atoms: O_21  and  C_22
REMARK    9  A    between atoms: C_23  and  O_24
REMARK   10  A    between atoms: O_24  and  C_25
REMARK                            x       y       z     vdW  Elec       q    Type
REMARK                         _______ _______ _______ _____ _____    ______ ____
ROOT
ATOM      1  C   UNL     1       2.100   5.908  19.637  0.00  0.00    +0.000 A 
ATOM      2  C   UNL     1       1.504   4.937  20.551  0.00  0.00    +0.000 A 
ATOM      3  C   UNL     1       1.795   3.622  20.475  0.00  0.00    +0.000 A 
ATOM      4  C   UNL     1       2.717   3.164  19.498  0.00  0.00    +0.000 A 
ATOM      5  N   UNL     1       3.151   1.965  19.186  0.00  0.00    +0.000 NA
ATOM      6  N   UNL     1       4.061   2.105  18.168  0.00  0.00    +0.000 NA
ATOM      7  C   UNL     1       4.201   3.391  17.886  0.00  0.00    +0.000 A 
ATOM      8  N   UNL     1       3.306   4.107  18.667  0.00  0.00    +0.000 N 
ATOM      9  C   UNL     1       2.975   5.462  18.712  0.00  0.00    +0.000 A 
ENDROOT
BRANCH   1  14
ATOM     10  C   UNL     1       1.861   9.516  18.585  0.00  0.00    +0.000 A 
ATOM     11  C   UNL     1       1.331  10.090  19.743  0.00  0.00    +0.000 A 
ATOM     12  C   UNL     1       1.034   9.305  20.858  0.00  0.00    +0.000 A 
ATOM     13  C   UNL     1       1.274   7.933  20.821  0.00  0.00    +0.000 A 
ATOM     14  C   UNL     1       1.805   7.347  19.668  0.00  0.00    +0.000 A 
ATOM     15  C   UNL     1       2.088   8.140  18.547  0.00  0.00    +0.000 A 
BRANCH  10  17
ATOM     16  C   UNL     1       2.412  11.743  17.953  0.00  0.00    +0.000 C 
ATOM     17  O   UNL     1       2.124  10.402  17.576  0.00  0.00    +0.000 OA
ENDBRANCH  10  17
ENDBRANCH   1  14
BRANCH   7  18
ATOM     18  C   UNL     1       5.147   3.930  16.904  0.00  0.00    +0.000 A 
ATOM     19  C   UNL     1       5.953   5.010  17.265  0.00  0.00    +0.000 A 
ATOM     20  C   UNL     1       6.854   5.576  16.356  0.00  0.00    +0.000 A 
ATOM     21  C   UNL     1       6.941   5.070  15.039  0.00  0.00    +0.000 A 
ATOM     22  C   UNL     1       6.113   3.997  14.653  0.00  0.00    +0.000 A 
ATOM     23  C   UNL     1       5.222   3.451  15.591  0.00  0.00    +0.000 A 
BRANCH  20  24
ATOM     24  O   UNL     1       7.667   6.639  16.678  0.00  0.00    +0.000 OA
ATOM     25  C   UNL     1       7.727   6.987  18.059  0.00  0.00    +0.000 C 
ENDBRANCH  20  24
BRANCH  21  26
ATOM     26  O   UNL     1       7.799   5.753  14.207  0.00  0.00    +0.000 OA
ATOM     27  C   UNL     1       8.064   5.192  12.928  0.00  0.00    +0.000 C 
ENDBRANCH  21  26
BRANCH  22  28
ATOM     28  O   UNL     1       6.169   3.558  13.356  0.00  0.00    +0.000 OA
ATOM     29  C   UNL     1       4.963   3.499  12.606  0.00  0.00    +0.000 C 
ENDBRANCH  22  28
ENDBRANCH   7  18
TORSDOF 6
ENDMDL
MODEL 7
REMARK VINA RESULT:      -8.1      4.355      6.982
REMARK  Name = 
REMARK  10 active torsions:
REMARK  status: ('A' for Active; 'I' for Inactive)
REMARK    1  A    between atoms: C_1  and  O_2
REMARK    2  A    between atoms: O_2  and  C_3
REMARK    3  A    between atoms: C_7  and  C_8
REMARK    4  A    between atoms: C_14  and  C_15
REMARK    5  A    between atoms: C_17  and  O_18
REMARK    6  A    between atoms: O_18  and  C_19
REMARK    7  A    between atoms: C_20  and  O_21
REMARK    8  A    between atoms: O_21  and  C_22
REMARK    9  A    between atoms: C_23  and  O_24
REMARK   10  A    between atoms: O_24  and  C_25
REMARK                            x       y       z     vdW  Elec       q    Type
REMARK                         _______ _______ _______ _____ _____    ______ ____
ROOT
ATOM      1  C   UNL     1      -1.554  10.845  19.428  0.00  0.00    +0.000 A 
ATOM      2  C   UNL     1      -1.552  11.931  20.405  0.00  0.00    +0.000 A 
ATOM      3  C   UNL     1      -0.778  11.889  21.508  0.00  0.00    +0.000 A 
ATOM      4  C   UNL     1       0.074  10.775  21.725  0.00  0.00    +0.000 A 
ATOM      5  N   UNL     1       0.892  10.464  22.704  0.00  0.00    +0.000 NA
ATOM      6  N   UNL     1       1.487   9.269  22.384  0.00  0.00    +0.000 NA
ATOM      7  C   UNL     1       1.054   8.873  21.197  0.00  0.00    +0.000 A 
ATOM      8  N   UNL     1       0.091   9.773  20.764  0.00  0.00    +0.000 N 
ATOM      9  C   UNL     1      -0.741   9.789  19.643  0.00  0.00    +0.000 A 
ENDROOT
BRANCH   1  14
ATOM     10  C   UNL     1      -2.713  10.176  15.908  0.00  0.00    +0.000 A 
ATOM     11  C   UNL     1      -3.921  10.877  15.894  0.00  0.00    +0.000 A 
ATOM     12  C   UNL     1      -4.368  11.552  17.031  0.00  0.00    +0.000 A 
ATOM     13  C   UNL     1      -3.600  11.532  18.194  0.00  0.00    +0.000 A 
ATOM     14  C   UNL     1      -2.388  10.834  18.219  0.00  0.00    +0.000 A 
ATOM     15  C   UNL     1      -1.952  10.147  17.078  0.00  0.00    +0.000 A 
BRANCH  10  17
ATOM     16  C   UNL     1      -3.208   9.874  13.600  0.00  0.00    +0.000 C 
ATOM     17  O   UNL     1      -2.384   9.578  14.722  0.00  0.00    +0.000 OA
ENDBRANCH  10  17
ENDBRANCH   1  14
BRANCH   7  18
ATOM     18  C   UNL     1       1.528   7.678  20.494  0.00  0.00    +0.000 A 
ATOM     19  C   UNL     1       2.230   7.832  19.298  0.00  0.00    +0.000 A 
ATOM     20  C   UNL     1       2.683   6.721  18.576  0.00  0.00    +0.000 A 
ATOM     21  C   UNL     1       2.410   5.416  19.043  0.00  0.00    +0.000 A 
ATOM     22  C   UNL     1       1.679   5.246  20.236  0.00  0.00    +0.000 A 
ATOM     23  C   UNL     1       1.242   6.381  20.937  0.00  0.00    +0.000 A 
BRANCH  20  24
ATOM     24  O   UNL     1       3.380   6.836  17.395  0.00  0.00    +0.000 OA
ATOM     25  C   UNL     1       4.801   6.818  17.500  0.00  0.00    +0.000 C 
ENDBRANCH  20  24
BRANCH  21  26
ATOM     26  O   UNL     1       2.830   4.400  18.214  0.00  0.00    +0.000 OA
ATOM     27  C   UNL     1       1.837   3.692  17.483  0.00  0.00    +0.000 C 
ENDBRANCH  21  26
BRANCH  22  28
ATOM     28  O   UNL     1       1.374   3.973  20.644  0.00  0.00    +0.000 OA
ATOM     29  C   UNL     1       2.199   3.358  21.626  0.00  0.00    +0.000 C 
ENDBRANCH  22  28
ENDBRANCH   7  18
TORSDOF 6
ENDMDL
MODEL 8
REMARK VINA RESULT:      -8.0      0.916      2.853
REMARK  Name = 
REMARK  10 active torsions:
REMARK  status: ('A' for Active; 'I' for Inactive)
REMARK    1  A    between atoms: C_1  and  O_2
REMARK    2  A    between atoms: O_2  and  C_3
REMARK    3  A    between atoms: C_7  and  C_8
REMARK    4  A    between atoms: C_14  and  C_15
REMARK    5  A    between atoms: C_17  and  O_18
REMARK    6  A    between atoms: O_18  and  C_19
REMARK    7  A    between atoms: C_20  and  O_21
REMARK    8  A    between atoms: O_21  and  C_22
REMARK    9  A    between atoms: C_23  and  O_24
REMARK   10  A    between atoms: O_24  and  C_25
REMARK                            x       y       z     vdW  Elec       q    Type
REMARK                         _______ _______ _______ _____ _____    ______ ____
ROOT
ATOM      1  C   UNL     1       2.032   5.876  19.540  0.00  0.00    +0.000 A 
ATOM      2  C   UNL     1       1.376   4.850  20.347  0.00  0.00    +0.000 A 
ATOM      3  C   UNL     1       1.636   3.539  20.174  0.00  0.00    +0.000 A 
ATOM      4  C   UNL     1       2.584   3.136  19.198  0.00  0.00    +0.000 A 
ATOM      5  N   UNL     1       3.000   1.954  18.804  0.00  0.00    +0.000 NA
ATOM      6  N   UNL     1       3.953   2.151  17.836  0.00  0.00    +0.000 NA
ATOM      7  C   UNL     1       4.137   3.451  17.667  0.00  0.00    +0.000 A 
ATOM      8  N   UNL     1       3.229   4.126  18.471  0.00  0.00    +0.000 N 
ATOM      9  C   UNL     1       2.931   5.482  18.614  0.00  0.00    +0.000 A 
ENDROOT
BRANCH   1  14
ATOM     10  C   UNL     1       1.842   9.551  18.743  0.00  0.00    +0.000 A 
ATOM     11  C   UNL     1       1.367  10.056  19.955  0.00  0.00    +0.000 A 
ATOM     12  C   UNL     1       1.091   9.203  21.025  0.00  0.00    +0.000 A 
ATOM     13  C   UNL     1       1.296   7.832  20.888  0.00  0.00    +0.000 A 
ATOM     14  C   UNL     1       1.773   7.315  19.678  0.00  0.00    +0.000 A 
ATOM     15  C   UNL     1       2.035   8.176  18.604  0.00  0.00    +0.000 A 
BRANCH  10  17
ATOM     16  C   UNL     1       2.206  11.845  18.227  0.00  0.00    +0.000 C 
ATOM     17  O   UNL     1       2.091  10.498  17.787  0.00  0.00    +0.000 OA
ENDBRANCH  10  17
ENDBRANCH   1  14
BRANCH   7  18
ATOM     18  C   UNL     1       5.134   4.041  16.770  0.00  0.00    +0.000 A 
ATOM     19  C   UNL     1       5.316   3.484  15.503  0.00  0.00    +0.000 A 
ATOM     20  C   UNL     1       6.272   3.995  14.618  0.00  0.00    +0.000 A 
ATOM     21  C   UNL     1       7.092   5.077  15.011  0.00  0.00    +0.000 A 
ATOM     22  C   UNL     1       6.938   5.631  16.298  0.00  0.00    +0.000 A 
ATOM     23  C   UNL     1       5.967   5.096  17.159  0.00  0.00    +0.000 A 
BRANCH  20  24
ATOM     24  O   UNL     1       6.476   3.474  13.361  0.00  0.00    +0.000 OA
ATOM     25  C   UNL     1       5.307   3.254  12.575  0.00  0.00    +0.000 C 
ENDBRANCH  20  24
BRANCH  21  26
ATOM     26  O   UNL     1       8.051   5.444  14.095  0.00  0.00    +0.000 OA
ATOM     27  C   UNL     1       7.618   5.768  12.780  0.00  0.00    +0.000 C 
ENDBRANCH  21  26
BRANCH  22  28
ATOM     28  O   UNL     1       7.780   6.642  16.683  0.00  0.00    +0.000 OA
ATOM     29  C   UNL     1       7.260   7.688  17.493  0.00  0.00    +0.000 C 
ENDBRANCH  22  28
ENDBRANCH   7  18
TORSDOF 6
ENDMDL
MODEL 9
REMARK VINA RESULT:      -7.8      1.609      7.331
REMARK  Name = 
REMARK  10 active torsions:
REMARK  status: ('A' for Active; 'I' for Inactive)
REMARK    1  A    between atoms: C_1  and  O_2
REMARK    2  A    between atoms: O_2  and  C_3
REMARK    3  A    between atoms: C_7  and  C_8
REMARK    4  A    between atoms: C_14  and  C_15
REMARK    5  A    between atoms: C_17  and  O_18
REMARK    6  A    between atoms: O_18  and  C_19
REMARK    7  A    between atoms: C_20  and  O_21
REMARK    8  A    between atoms: O_21  and  C_22
REMARK    9  A    between atoms: C_23  and  O_24
REMARK   10  A    between atoms: O_24  and  C_25
REMARK                            x       y       z     vdW  Elec       q    Type
REMARK                         _______ _______ _______ _____ _____    ______ ____
ROOT
ATOM      1  C   UNL     1       4.124   3.957  17.791  0.00  0.00    +0.000 A 
ATOM      2  C   UNL     1       3.696   2.579  18.015  0.00  0.00    +0.000 A 
ATOM      3  C   UNL     1       2.717   2.275  18.891  0.00  0.00    +0.000 A 
ATOM      4  C   UNL     1       2.067   3.316  19.604  0.00  0.00    +0.000 A 
ATOM      5  N   UNL     1       1.126   3.308  20.519  0.00  0.00    +0.000 NA
ATOM      6  N   UNL     1       0.857   4.612  20.851  0.00  0.00    +0.000 NA
ATOM      7  C   UNL     1       1.613   5.411  20.113  0.00  0.00    +0.000 A 
ATOM      8  N   UNL     1       2.458   4.623  19.346  0.00  0.00    +0.000 N 
ATOM      9  C   UNL     1       3.501   4.940  18.474  0.00  0.00    +0.000 A 
ENDROOT
BRANCH   1  14
ATOM     10  C   UNL     1       7.011   5.831  16.261  0.00  0.00    +0.000 A 
ATOM     11  C   UNL     1       7.173   5.128  15.066  0.00  0.00    +0.000 A 
ATOM     12  C   UNL     1       6.359   4.035  14.764  0.00  0.00    +0.000 A 
ATOM     13  C   UNL     1       5.368   3.642  15.660  0.00  0.00    +0.000 A 
ATOM     14  C   UNL     1       5.195   4.340  16.861  0.00  0.00    +0.000 A 
ATOM     15  C   UNL     1       6.025   5.428  17.163  0.00  0.00    +0.000 A 
BRANCH  10  17
ATOM     16  C   UNL     1       7.625   7.743  17.537  0.00  0.00    +0.000 C 
ATOM     17  O   UNL     1       7.859   6.892  16.422  0.00  0.00    +0.000 OA
ENDBRANCH  10  17
ENDBRANCH   1  14
BRANCH   7  18
ATOM     18  C   UNL     1       1.545   6.875  20.136  0.00  0.00    +0.000 A 
ATOM     19  C   UNL     1       1.330   7.522  21.354  0.00  0.00    +0.000 A 
ATOM     20  C   UNL     1       1.234   8.916  21.425  0.00  0.00    +0.000 A 
ATOM     21  C   UNL     1       1.328   9.693  20.248  0.00  0.00    +0.000 A 
ATOM     22  C   UNL     1       1.518   9.050  19.008  0.00  0.00    +0.000 A 
ATOM     23  C   UNL     1       1.613   7.650  18.973  0.00  0.00    +0.000 A 
BRANCH  20  24
ATOM     24  O   UNL     1       1.025   9.588  22.608  0.00  0.00    +0.000 OA
ATOM     25  C   UNL     1      -0.253   9.411  23.214  0.00  0.00    +0.000 C 
ENDBRANCH  20  24
BRANCH  21  26
ATOM     26  O   UNL     1       1.137  11.044  20.424  0.00  0.00    +0.000 OA
ATOM     27  C   UNL     1      -0.176  11.555  20.234  0.00  0.00    +0.000 C 
ENDBRANCH  21  26
BRANCH  22  28
ATOM     28  O   UNL     1       1.550   9.814  17.871  0.00  0.00    +0.000 OA
ATOM     29  C   UNL     1       2.482  10.885  17.798  0.00  0.00    +0.000 C 
ENDBRANCH  22  28
ENDBRANCH   7  18
TORSDOF 6
ENDMDL
