MODEL 1
REMARK VINA RESULT:      -6.9      0.000      0.000
REMARK  Name = 
REMARK  3 active torsions:
REMARK  status: ('A' for Active; 'I' for Inactive)
REMARK    1  A    between atoms: C_1  and  C_2
REMARK    2  A    between atoms: C_2  and  C_3
REMARK    3  A    between atoms: C_3  and  C_4
REMARK                            x       y       z     vdW  Elec       q    Type
REMARK                         _______ _______ _______ _____ _____    ______ ____
ROOT
ATOM      1  C   UNL     1       5.130   4.248  18.361  0.00  0.00    +0.000 C 
ATOM      2  C   UNL     1       5.402   5.454  19.288  0.00  0.00    +0.000 C 
ATOM      3  C   UNL     1       3.630   4.187  17.967  0.00  0.00    +0.000 C 
ATOM      4  C   UNL     1       2.752   3.741  19.110  0.00  0.00    +0.000 A 
ATOM      5  C   UNL     1       1.382   4.029  19.111  0.00  0.00    +0.000 A 
ATOM      6  C   UNL     1       0.580   3.633  20.184  0.00  0.00    +0.000 A 
ATOM      7  C   UNL     1       1.141   2.952  21.266  0.00  0.00    +0.000 A 
ATOM      8  C   UNL     1       2.495   2.622  21.254  0.00  0.00    +0.000 A 
ATOM      9  C   UNL     1       3.294   2.990  20.166  0.00  0.00    +0.000 A 
ATOM     10  C   UNL     1       4.713   2.547  20.121  0.00  0.00    +0.000 C 
ATOM     11  O   UNL     1       5.190   1.795  20.959  0.00  0.00    +0.000 OA
ATOM     12  N   UNL     1       5.479   3.020  19.079  0.00  0.00    +0.000 N 
ATOM     13  H   UNL     1       6.449   2.746  19.160  0.00  0.00    +0.000 HD
ENDROOT
BRANCH   1  15
ATOM     14  C   UNL     1       5.161   4.498  15.770  0.00  0.00    +0.000 C 
ATOM     15  C   UNL     1       5.966   4.382  17.062  0.00  0.00    +0.000 C 
ENDBRANCH   1  15
TORSDOF 1
ENDMDL
MODEL 2
REMARK VINA RESULT:      -6.8      2.404      3.078
REMARK  Name = 
REMARK  3 active torsions:
REMARK  status: ('A' for Active; 'I' for Inactive)
REMARK    1  A    between atoms: C_1  and  C_2
REMARK    2  A    between atoms: C_2  and  C_3
REMARK    3  A    between atoms: C_3  and  C_4
REMARK                            x       y       z     vdW  Elec       q    Type
REMARK                         _______ _______ _______ _____ _____    ______ ____
ROOT
ATOM      1  C   UNL     1       6.390   5.296  16.720  0.00  0.00    +0.000 C 
ATOM      2  C   UNL     1       7.349   6.150  17.578  0.00  0.00    +0.000 C 
ATOM      3  C   UNL     1       5.126   6.111  16.336  0.00  0.00    +0.000 C 
ATOM      4  C   UNL     1       4.194   6.315  17.505  0.00  0.00    +0.000 A 
ATOM      5  C   UNL     1       3.254   7.352  17.494  0.00  0.00    +0.000 A 
ATOM      6  C   UNL     1       2.411   7.549  18.591  0.00  0.00    +0.000 A 
ATOM      7  C   UNL     1       2.504   6.716  19.706  0.00  0.00    +0.000 A 
ATOM      8  C   UNL     1       3.406   5.653  19.709  0.00  0.00    +0.000 A 
ATOM      9  C   UNL     1       4.230   5.434  18.599  0.00  0.00    +0.000 A 
ATOM     10  C   UNL     1       5.117   4.242  18.573  0.00  0.00    +0.000 C 
ATOM     11  O   UNL     1       5.092   3.389  19.449  0.00  0.00    +0.000 OA
ATOM     12  N   UNL     1       5.977   4.129  17.503  0.00  0.00    +0.000 N 
ATOM     13  H   UNL     1       6.604   3.341  17.596  0.00  0.00    +0.000 HD
ENDROOT
BRANCH   1  15
ATOM     14  C   UNL     1       6.240   4.059  14.434  0.00  0.00    +0.000 C 
ATOM     15  C   UNL     1       7.098   4.857  15.412  0.00  0.00    +0.000 C 
ENDBRANCH   1  15
TORSDOF 1
ENDMDL
MODEL 3
REMARK VINA RESULT:      -6.8      1.900      2.491
REMARK  Name = 
REMARK  3 active torsions:
REMARK  status: ('A' for Active; 'I' for Inactive)
REMARK    1  A    between atoms: C_1  and  C_2
REMARK    2  A    between atoms: C_2  and  C_3
REMARK    3  A    between atoms: C_3  and  C_4
REMARK                            x       y       z     vdW  Elec       q    Type
REMARK                         _______ _______ _______ _____ _____    ______ ____
ROOT
ATOM      1  C   UNL     1       5.760   4.839  16.286  0.00  0.00    +0.000 C 
ATOM      2  C   UNL     1       5.390   6.317  16.031  0.00  0.00    +0.000 C 
ATOM      3  C   UNL     1       4.488   3.950  16.293  0.00  0.00    +0.000 C 
ATOM      4  C   UNL     1       3.655   4.146  17.535  0.00  0.00    +0.000 A 
ATOM      5  C   UNL     1       2.300   3.792  17.547  0.00  0.00    +0.000 A 
ATOM      6  C   UNL     1       1.529   4.000  18.693  0.00  0.00    +0.000 A 
ATOM      7  C   UNL     1       2.103   4.566  19.832  0.00  0.00    +0.000 A 
ATOM      8  C   UNL     1       3.461   4.880  19.845  0.00  0.00    +0.000 A 
ATOM      9  C   UNL     1       4.242   4.645  18.709  0.00  0.00    +0.000 A 
ATOM     10  C   UNL     1       5.707   4.893  18.767  0.00  0.00    +0.000 C 
ATOM     11  O   UNL     1       6.275   5.213  19.802  0.00  0.00    +0.000 OA
ATOM     12  N   UNL     1       6.412   4.740  17.594  0.00  0.00    +0.000 N 
ATOM     13  H   UNL     1       7.382   5.005  17.691  0.00  0.00    +0.000 HD
ENDROOT
BRANCH   1  15
ATOM     14  C   UNL     1       6.017   3.952  13.852  0.00  0.00    +0.000 C 
ATOM     15  C   UNL     1       6.701   4.329  15.163  0.00  0.00    +0.000 C 
ENDBRANCH   1  15
TORSDOF 1
ENDMDL
MODEL 4
REMARK VINA RESULT:      -6.7      2.384      3.236
REMARK  Name = 
REMARK  3 active torsions:
REMARK  status: ('A' for Active; 'I' for Inactive)
REMARK    1  A    between atoms: C_1  and  C_2
REMARK    2  A    between atoms: C_2  and  C_3
REMARK    3  A    between atoms: C_3  and  C_4
REMARK                            x       y       z     vdW  Elec       q    Type
REMARK                         _______ _______ _______ _____ _____    ______ ____
ROOT
ATOM      1  C   UNL     1       6.157   4.709  16.196  0.00  0.00    +0.000 C 
ATOM      2  C   UNL     1       7.147   4.814  17.378  0.00  0.00    +0.000 C 
ATOM      3  C   UNL     1       5.268   5.979  16.112  0.00  0.00    +0.000 C 
ATOM      4  C   UNL     1       4.236   6.033  17.211  0.00  0.00    +0.000 A 
ATOM      5  C   UNL     1       3.647   7.249  17.576  0.00  0.00    +0.000 A 
ATOM      6  C   UNL     1       2.710   7.295  18.611  0.00  0.00    +0.000 A 
ATOM      7  C   UNL     1       2.358   6.128  19.292  0.00  0.00    +0.000 A 
ATOM      8  C   UNL     1       2.906   4.905  18.906  0.00  0.00    +0.000 A 
ATOM      9  C   UNL     1       3.821   4.853  17.850  0.00  0.00    +0.000 A 
ATOM     10  C   UNL     1       4.323   3.532  17.385  0.00  0.00    +0.000 C 
ATOM     11  O   UNL     1       3.899   2.477  17.834  0.00  0.00    +0.000 OA
ATOM     12  N   UNL     1       5.296   3.545  16.410  0.00  0.00    +0.000 N 
ATOM     13  H   UNL     1       5.646   2.618  16.206  0.00  0.00    +0.000 HD
ENDROOT
BRANCH   1  15
ATOM     14  C   UNL     1       6.179   3.913  13.718  0.00  0.00    +0.000 C 
ATOM     15  C   UNL     1       6.938   4.578  14.863  0.00  0.00    +0.000 C 
ENDBRANCH   1  15
TORSDOF 1
ENDMDL
MODEL 5
REMARK VINA RESULT:      -6.7      1.690      4.828
REMARK  Name = 
REMARK  3 active torsions:
REMARK  status: ('A' for Active; 'I' for Inactive)
REMARK    1  A    between atoms: C_1  and  C_2
REMARK    2  A    between atoms: C_2  and  C_3
REMARK    3  A    between atoms: C_3  and  C_4
REMARK                            x       y       z     vdW  Elec       q    Type
REMARK                         _______ _______ _______ _____ _____    ______ ____
ROOT
ATOM      1  C   UNL     1       3.371   3.867  18.890  0.00  0.00    +0.000 C 
ATOM      2  C   UNL     1       3.795   2.392  19.068  0.00  0.00    +0.000 C 
ATOM      3  C   UNL     1       3.347   4.253  17.387  0.00  0.00    +0.000 C 
ATOM      4  C   UNL     1       4.733   4.389  16.806  0.00  0.00    +0.000 A 
ATOM      5  C   UNL     1       4.938   4.298  15.424  0.00  0.00    +0.000 A 
ATOM      6  C   UNL     1       6.227   4.402  14.896  0.00  0.00    +0.000 A 
ATOM      7  C   UNL     1       7.320   4.592  15.743  0.00  0.00    +0.000 A 
ATOM      8  C   UNL     1       7.122   4.728  17.116  0.00  0.00    +0.000 A 
ATOM      9  C   UNL     1       5.828   4.656  17.644  0.00  0.00    +0.000 A 
ATOM     10  C   UNL     1       5.619   4.900  19.096  0.00  0.00    +0.000 C 
ATOM     11  O   UNL     1       6.526   5.251  19.837  0.00  0.00    +0.000 OA
ATOM     12  N   UNL     1       4.343   4.719  19.580  0.00  0.00    +0.000 N 
ATOM     13  H   UNL     1       4.295   4.821  20.585  0.00  0.00    +0.000 HD
ENDROOT
BRANCH   1  15
ATOM     14  C   UNL     1       1.858   5.000  20.682  0.00  0.00    +0.000 C 
ATOM     15  C   UNL     1       1.947   4.081  19.466  0.00  0.00    +0.000 C 
ENDBRANCH   1  15
TORSDOF 1
ENDMDL
MODEL 6
REMARK VINA RESULT:      -6.6      2.838      3.688
REMARK  Name = 
REMARK  3 active torsions:
REMARK  status: ('A' for Active; 'I' for Inactive)
REMARK    1  A    between atoms: C_1  and  C_2
REMARK    2  A    between atoms: C_2  and  C_3
REMARK    3  A    between atoms: C_3  and  C_4
REMARK                            x       y       z     vdW  Elec       q    Type
REMARK                         _______ _______ _______ _____ _____    ______ ____
ROOT
ATOM      1  C   UNL     1       5.730   5.886  17.041  0.00  0.00    +0.000 C 
ATOM      2  C   UNL     1       5.425   5.816  15.528  0.00  0.00    +0.000 C 
ATOM      3  C   UNL     1       5.587   4.484  17.694  0.00  0.00    +0.000 C 
ATOM      4  C   UNL     1       4.147   4.051  17.817  0.00  0.00    +0.000 A 
ATOM      5  C   UNL     1       3.821   2.697  17.961  0.00  0.00    +0.000 A 
ATOM      6  C   UNL     1       2.484   2.301  18.050  0.00  0.00    +0.000 A 
ATOM      7  C   UNL     1       1.465   3.252  17.991  0.00  0.00    +0.000 A 
ATOM      8  C   UNL     1       1.780   4.606  17.892  0.00  0.00    +0.000 A 
ATOM      9  C   UNL     1       3.119   5.008  17.834  0.00  0.00    +0.000 A 
ATOM     10  C   UNL     1       3.445   6.459  17.827  0.00  0.00    +0.000 C 
ATOM     11  O   UNL     1       2.589   7.321  17.960  0.00  0.00    +0.000 OA
ATOM     12  N   UNL     1       4.771   6.798  17.669  0.00  0.00    +0.000 N 
ATOM     13  H   UNL     1       4.905   7.797  17.590  0.00  0.00    +0.000 HD
ENDROOT
BRANCH   1  15
ATOM     14  C   UNL     1       7.757   6.124  18.657  0.00  0.00    +0.000 C 
ATOM     15  C   UNL     1       7.183   6.377  17.265  0.00  0.00    +0.000 C 
ENDBRANCH   1  15
TORSDOF 1
ENDMDL
MODEL 7
REMARK VINA RESULT:      -6.5      1.616      1.804
REMARK  Name = 
REMARK  3 active torsions:
REMARK  status: ('A' for Active; 'I' for Inactive)
REMARK    1  A    between atoms: C_1  and  C_2
REMARK    2  A    between atoms: C_2  and  C_3
REMARK    3  A    between atoms: C_3  and  C_4
REMARK                            x       y       z     vdW  Elec       q    Type
REMARK                         _______ _______ _______ _____ _____    ______ ____
ROOT
ATOM      1  C   UNL     1       5.028   4.640  17.186  0.00  0.00    +0.000 C 
ATOM      2  C   UNL     1       6.166   4.631  18.231  0.00  0.00    +0.000 C 
ATOM      3  C   UNL     1       3.877   5.578  17.638  0.00  0.00    +0.000 C 
ATOM      4  C   UNL     1       3.075   4.998  18.777  0.00  0.00    +0.000 A 
ATOM      5  C   UNL     1       2.304   5.827  19.600  0.00  0.00    +0.000 A 
ATOM      6  C   UNL     1       1.583   5.285  20.668  0.00  0.00    +0.000 A 
ATOM      7  C   UNL     1       1.631   3.914  20.923  0.00  0.00    +0.000 A 
ATOM      8  C   UNL     1       2.360   3.074  20.082  0.00  0.00    +0.000 A 
ATOM      9  C   UNL     1       3.058   3.610  18.994  0.00  0.00    +0.000 A 
ATOM     10  C   UNL     1       3.751   2.694  18.050  0.00  0.00    +0.000 C 
ATOM     11  O   UNL     1       3.662   1.478  18.135  0.00  0.00    +0.000 OA
ATOM     12  N   UNL     1       4.503   3.279  17.056  0.00  0.00    +0.000 N 
ATOM     13  H   UNL     1       5.010   2.598  16.506  0.00  0.00    +0.000 HD
ENDROOT
BRANCH   1  15
ATOM     14  C   UNL     1       5.936   4.075  14.812  0.00  0.00    +0.000 C 
ATOM     15  C   UNL     1       5.565   5.155  15.825  0.00  0.00    +0.000 C 
ENDBRANCH   1  15
TORSDOF 1
ENDMDL
MODEL 8
REMARK VINA RESULT:      -6.5      1.809      2.266
REMARK  Name = 
REMARK  3 active torsions:
REMARK  status: ('A' for Active; 'I' for Inactive)
REMARK    1  A    between atoms: C_1  and  C_2
REMARK    2  A    between atoms: C_2  and  C_3
REMARK    3  A    between atoms: C_3  and  C_4
REMARK                            x       y       z     vdW  Elec       q    Type
REMARK                         _______ _______ _______ _____ _____    ______ ____
ROOT
ATOM      1  C   UNL     1       6.342   4.971  17.857  0.00  0.00    +0.000 C 
ATOM      2  C   UNL     1       7.135   5.648  18.997  0.00  0.00    +0.000 C 
ATOM      3  C   UNL     1       5.144   5.857  17.423  0.00  0.00    +0.000 C 
ATOM      4  C   UNL     1       4.031   5.861  18.443  0.00  0.00    +0.000 A 
ATOM      5  C   UNL     1       3.088   6.895  18.464  0.00  0.00    +0.000 A 
ATOM      6  C   UNL     1       2.075   6.903  19.426  0.00  0.00    +0.000 A 
ATOM      7  C   UNL     1       2.001   5.884  20.376  0.00  0.00    +0.000 A 
ATOM      8  C   UNL     1       2.909   4.826  20.336  0.00  0.00    +0.000 A 
ATOM      9  C   UNL     1       3.905   4.799  19.354  0.00  0.00    +0.000 A 
ATOM     10  C   UNL     1       4.805   3.620  19.261  0.00  0.00    +0.000 C 
ATOM     11  O   UNL     1       4.653   2.625  19.956  0.00  0.00    +0.000 OA
ATOM     12  N   UNL     1       5.829   3.689  18.343  0.00  0.00    +0.000 N 
ATOM     13  H   UNL     1       6.446   2.890  18.395  0.00  0.00    +0.000 HD
ENDROOT
BRANCH   1  15
ATOM     14  C   UNL     1       6.562   4.286  15.355  0.00  0.00    +0.000 C 
ATOM     15  C   UNL     1       7.261   4.765  16.625  0.00  0.00    +0.000 C 
ENDBRANCH   1  15
TORSDOF 1
ENDMDL
MODEL 9
REMARK VINA RESULT:      -6.4      2.907      3.803
REMARK  Name = 
REMARK  3 active torsions:
REMARK  status: ('A' for Active; 'I' for Inactive)
REMARK    1  A    between atoms: C_1  and  C_2
REMARK    2  A    between atoms: C_2  and  C_3
REMARK    3  A    between atoms: C_3  and  C_4
REMARK                            x       y       z     vdW  Elec       q    Type
REMARK                         _______ _______ _______ _____ _____    ______ ____
ROOT
ATOM      1  C   UNL     1       6.561   6.415  17.464  0.00  0.00    +0.000 C 
ATOM      2  C   UNL     1       7.022   5.710  18.759  0.00  0.00    +0.000 C 
ATOM      3  C   UNL     1       5.094   6.904  17.600  0.00  0.00    +0.000 C 
ATOM      4  C   UNL     1       4.101   5.769  17.553  0.00  0.00    +0.000 A 
ATOM      5  C   UNL     1       2.813   5.927  18.079  0.00  0.00    +0.000 A 
ATOM      6  C   UNL     1       1.908   4.863  18.055  0.00  0.00    +0.000 A 
ATOM      7  C   UNL     1       2.283   3.634  17.510  0.00  0.00    +0.000 A 
ATOM      8  C   UNL     1       3.548   3.480  16.944  0.00  0.00    +0.000 A 
ATOM      9  C   UNL     1       4.446   4.553  16.940  0.00  0.00    +0.000 A 
ATOM     10  C   UNL     1       5.753   4.407  16.247  0.00  0.00    +0.000 C 
ATOM     11  O   UNL     1       6.043   3.410  15.601  0.00  0.00    +0.000 OA
ATOM     12  N   UNL     1       6.637   5.457  16.358  0.00  0.00    +0.000 N 
ATOM     13  H   UNL     1       7.532   5.252  15.935  0.00  0.00    +0.000 HD
ENDROOT
BRANCH   1  15
ATOM     14  C   UNL     1       8.287   8.140  18.369  0.00  0.00    +0.000 C 
ATOM     15  C   UNL     1       7.457   7.649  17.186  0.00  0.00    +0.000 C 
ENDBRANCH   1  15
TORSDOF 1
ENDMDL
