MODEL 1
REMARK VINA RESULT:      -7.2      0.000      0.000
REMARK  Name = 
REMARK  6 active torsions:
REMARK  status: ('A' for Active; 'I' for Inactive)
REMARK    1  A    between atoms: C_1  and  O_2
REMARK    2  A    between atoms: O_2  and  C_3
REMARK    3  A    between atoms: C_3  and  C_5
REMARK    4  A    between atoms: C_8  and  S_9
REMARK    5  A    between atoms: S_9  and  C_10
REMARK    6  A    between atoms: C_17  and  N_18
REMARK                            x       y       z     vdW  Elec       q    Type
REMARK                         _______ _______ _______ _____ _____    ______ ____
ROOT
ATOM      1  C   UNL     1       6.271   5.201  15.360  0.00  0.00    +0.000 A 
ATOM      2  C   UNL     1       5.347   6.251  15.391  0.00  0.00    +0.000 A 
ATOM      3  C   UNL     1       4.683   6.562  16.584  0.00  0.00    +0.000 A 
ATOM      4  C   UNL     1       4.917   5.816  17.749  0.00  0.00    +0.000 A 
ATOM      5  C   UNL     1       5.792   4.710  17.706  0.00  0.00    +0.000 A 
ATOM      6  C   UNL     1       6.504   4.458  16.525  0.00  0.00    +0.000 A 
ENDROOT
BRANCH   5   7
ATOM      7  N   UNL     1       6.135   3.982  18.864  0.00  0.00    +0.000 N 
ATOM      8  H   UNL     1       7.054   3.553  18.782  0.00  0.00    +0.000 HD
ATOM      9  H   UNL     1       6.032   4.512  19.726  0.00  0.00    +0.000 HD
ENDBRANCH   5   7
BRANCH   1  10
ATOM     10  C   UNL     1       7.024   4.818  14.136  0.00  0.00    +0.000 C 
ATOM     11  O   UNL     1       7.879   5.527  13.628  0.00  0.00    +0.000 OA
BRANCH  10  13
ATOM     12  C   UNL     1       6.001   3.640  12.403  0.00  0.00    +0.000 C 
ATOM     13  O   UNL     1       6.638   3.598  13.683  0.00  0.00    +0.000 OA
ENDBRANCH  10  13
ENDBRANCH   1  10
BRANCH   4  14
ATOM     14  S   UNL     1       4.003   6.243  19.235  0.00  0.00    +0.000 S 
BRANCH  14  15
ATOM     15  C   UNL     1       2.728   4.992  19.244  0.00  0.00    +0.000 A 
ATOM     16  C   UNL     1       2.362   4.358  18.050  0.00  0.00    +0.000 A 
ATOM     17  C   UNL     1       1.388   3.354  18.052  0.00  0.00    +0.000 A 
ATOM     18  C   UNL     1       0.792   2.979  19.253  0.00  0.00    +0.000 A 
ATOM     19  F   UNL     1      -0.141   2.018  19.255  0.00  0.00    +0.000 F 
ATOM     20  C   UNL     1       1.154   3.587  20.447  0.00  0.00    +0.000 A 
ATOM     21  C   UNL     1       2.127   4.590  20.444  0.00  0.00    +0.000 A 
ENDBRANCH  14  15
ENDBRANCH   4  14
TORSDOF 5
ENDMDL
MODEL 2
REMARK VINA RESULT:      -7.1      0.277      1.143
REMARK  Name = 
REMARK  6 active torsions:
REMARK  status: ('A' for Active; 'I' for Inactive)
REMARK    1  A    between atoms: C_1  and  O_2
REMARK    2  A    between atoms: O_2  and  C_3
REMARK    3  A    between atoms: C_3  and  C_5
REMARK    4  A    between atoms: C_8  and  S_9
REMARK    5  A    between atoms: S_9  and  C_10
REMARK    6  A    between atoms: C_17  and  N_18
REMARK                            x       y       z     vdW  Elec       q    Type
REMARK                         _______ _______ _______ _____ _____    ______ ____
ROOT
ATOM      1  C   UNL     1       6.248   5.236  15.270  0.00  0.00    +0.000 A 
ATOM      2  C   UNL     1       5.331   6.289  15.356  0.00  0.00    +0.000 A 
ATOM      3  C   UNL     1       4.705   6.572  16.576  0.00  0.00    +0.000 A 
ATOM      4  C   UNL     1       4.970   5.795  17.714  0.00  0.00    +0.000 A 
ATOM      5  C   UNL     1       5.838   4.686  17.616  0.00  0.00    +0.000 A 
ATOM      6  C   UNL     1       6.512   4.462  16.408  0.00  0.00    +0.000 A 
ENDROOT
BRANCH   5   7
ATOM      7  N   UNL     1       6.211   3.927  18.744  0.00  0.00    +0.000 N 
ATOM      8  H   UNL     1       5.445   3.346  19.077  0.00  0.00    +0.000 HD
ATOM      9  H   UNL     1       7.070   3.396  18.614  0.00  0.00    +0.000 HD
ENDBRANCH   5   7
BRANCH   1  10
ATOM     10  C   UNL     1       6.962   4.881  14.014  0.00  0.00    +0.000 C 
ATOM     11  O   UNL     1       8.014   5.401  13.673  0.00  0.00    +0.000 OA
BRANCH  10  13
ATOM     12  C   UNL     1       6.887   3.615  12.058  0.00  0.00    +0.000 C 
ATOM     13  O   UNL     1       6.297   3.919  13.325  0.00  0.00    +0.000 OA
ENDBRANCH  10  13
ENDBRANCH   1  10
BRANCH   4  14
ATOM     14  S   UNL     1       4.104   6.188  19.238  0.00  0.00    +0.000 S 
BRANCH  14  15
ATOM     15  C   UNL     1       2.841   4.924  19.268  0.00  0.00    +0.000 A 
ATOM     16  C   UNL     1       2.227   4.579  20.479  0.00  0.00    +0.000 A 
ATOM     17  C   UNL     1       1.215   3.614  20.507  0.00  0.00    +0.000 A 
ATOM     18  C   UNL     1       0.811   3.008  19.321  0.00  0.00    +0.000 A 
ATOM     19  F   UNL     1      -0.159   2.084  19.349  0.00  0.00    +0.000 F 
ATOM     20  C   UNL     1       1.398   3.351  18.111  0.00  0.00    +0.000 A 
ATOM     21  C   UNL     1       2.410   4.314  18.083  0.00  0.00    +0.000 A 
ENDBRANCH  14  15
ENDBRANCH   4  14
TORSDOF 5
ENDMDL
MODEL 3
REMARK VINA RESULT:      -7.0      1.000      1.029
REMARK  Name = 
REMARK  6 active torsions:
REMARK  status: ('A' for Active; 'I' for Inactive)
REMARK    1  A    between atoms: C_1  and  O_2
REMARK    2  A    between atoms: O_2  and  C_3
REMARK    3  A    between atoms: C_3  and  C_5
REMARK    4  A    between atoms: C_8  and  S_9
REMARK    5  A    between atoms: S_9  and  C_10
REMARK    6  A    between atoms: C_17  and  N_18
REMARK                            x       y       z     vdW  Elec       q    Type
REMARK                         _______ _______ _______ _____ _____    ______ ____
ROOT
ATOM      1  C   UNL     1       6.430   4.866  14.979  0.00  0.00    +0.000 A 
ATOM      2  C   UNL     1       5.150   5.351  15.266  0.00  0.00    +0.000 A 
ATOM      3  C   UNL     1       4.752   5.528  16.596  0.00  0.00    +0.000 A 
ATOM      4  C   UNL     1       5.617   5.203  17.652  0.00  0.00    +0.000 A 
ATOM      5  C   UNL     1       6.882   4.645  17.370  0.00  0.00    +0.000 A 
ATOM      6  C   UNL     1       7.293   4.542  16.035  0.00  0.00    +0.000 A 
ENDROOT
BRANCH   5   7
ATOM      7  N   UNL     1       7.826   4.384  18.385  0.00  0.00    +0.000 N 
ATOM      8  H   UNL     1       7.618   3.521  18.882  0.00  0.00    +0.000 HD
ATOM      9  H   UNL     1       8.792   4.422  18.065  0.00  0.00    +0.000 HD
ENDBRANCH   5   7
BRANCH   1  10
ATOM     10  C   UNL     1       6.931   4.661  13.593  0.00  0.00    +0.000 C 
ATOM     11  O   UNL     1       7.591   5.494  12.991  0.00  0.00    +0.000 OA
BRANCH  10  13
ATOM     12  C   UNL     1       5.529   3.516  12.124  0.00  0.00    +0.000 C 
ATOM     13  O   UNL     1       6.562   3.447  13.111  0.00  0.00    +0.000 OA
ENDBRANCH  10  13
ENDBRANCH   1  10
BRANCH   4  14
ATOM     14  S   UNL     1       5.030   5.419  19.336  0.00  0.00    +0.000 S 
BRANCH  14  15
ATOM     15  C   UNL     1       3.513   4.475  19.310  0.00  0.00    +0.000 A 
ATOM     16  C   UNL     1       3.517   3.159  18.828  0.00  0.00    +0.000 A 
ATOM     17  C   UNL     1       2.341   2.402  18.835  0.00  0.00    +0.000 A 
ATOM     18  C   UNL     1       1.168   2.959  19.337  0.00  0.00    +0.000 A 
ATOM     19  F   UNL     1       0.042   2.233  19.343  0.00  0.00    +0.000 F 
ATOM     20  C   UNL     1       1.152   4.256  19.833  0.00  0.00    +0.000 A 
ATOM     21  C   UNL     1       2.326   5.012  19.825  0.00  0.00    +0.000 A 
ENDBRANCH  14  15
ENDBRANCH   4  14
TORSDOF 5
ENDMDL
MODEL 4
REMARK VINA RESULT:      -6.8      3.026      3.628
REMARK  Name = 
REMARK  6 active torsions:
REMARK  status: ('A' for Active; 'I' for Inactive)
REMARK    1  A    between atoms: C_1  and  O_2
REMARK    2  A    between atoms: O_2  and  C_3
REMARK    3  A    between atoms: C_3  and  C_5
REMARK    4  A    between atoms: C_8  and  S_9
REMARK    5  A    between atoms: S_9  and  C_10
REMARK    6  A    between atoms: C_17  and  N_18
REMARK                            x       y       z     vdW  Elec       q    Type
REMARK                         _______ _______ _______ _____ _____    ______ ____
ROOT
ATOM      1  C   UNL     1       5.957   4.910  15.893  0.00  0.00    +0.000 A 
ATOM      2  C   UNL     1       6.288   5.853  16.872  0.00  0.00    +0.000 A 
ATOM      3  C   UNL     1       5.496   5.977  18.019  0.00  0.00    +0.000 A 
ATOM      4  C   UNL     1       4.355   5.180  18.191  0.00  0.00    +0.000 A 
ATOM      5  C   UNL     1       3.974   4.278  17.174  0.00  0.00    +0.000 A 
ATOM      6  C   UNL     1       4.817   4.113  16.068  0.00  0.00    +0.000 A 
ENDROOT
BRANCH   5   7
ATOM      7  N   UNL     1       2.891   3.388  17.332  0.00  0.00    +0.000 N 
ATOM      8  H   UNL     1       3.034   2.524  16.813  0.00  0.00    +0.000 HD
ATOM      9  H   UNL     1       2.640   3.217  18.303  0.00  0.00    +0.000 HD
ENDBRANCH   5   7
BRANCH   1  10
ATOM     10  C   UNL     1       6.755   4.709  14.653  0.00  0.00    +0.000 C 
ATOM     11  O   UNL     1       7.689   5.429  14.336  0.00  0.00    +0.000 OA
BRANCH  10  13
ATOM     12  C   UNL     1       6.503   3.761  12.539  0.00  0.00    +0.000 C 
ATOM     13  O   UNL     1       6.309   3.637  13.950  0.00  0.00    +0.000 OA
ENDBRANCH  10  13
ENDBRANCH   1  10
BRANCH   4  14
ATOM     14  S   UNL     1       3.361   5.416  19.668  0.00  0.00    +0.000 S 
BRANCH  14  15
ATOM     15  C   UNL     1       2.530   6.954  19.298  0.00  0.00    +0.000 A 
ATOM     16  C   UNL     1       1.861   7.649  20.314  0.00  0.00    +0.000 A 
ATOM     17  C   UNL     1       1.236   8.871  20.041  0.00  0.00    +0.000 A 
ATOM     18  C   UNL     1       1.293   9.398  18.754  0.00  0.00    +0.000 A 
ATOM     19  F   UNL     1       0.694  10.568  18.493  0.00  0.00    +0.000 F 
ATOM     20  C   UNL     1       1.965   8.729  17.740  0.00  0.00    +0.000 A 
ATOM     21  C   UNL     1       2.588   7.509  18.013  0.00  0.00    +0.000 A 
ENDBRANCH  14  15
ENDBRANCH   4  14
TORSDOF 5
ENDMDL
MODEL 5
REMARK VINA RESULT:      -6.8      1.105      1.414
REMARK  Name = 
REMARK  6 active torsions:
REMARK  status: ('A' for Active; 'I' for Inactive)
REMARK    1  A    between atoms: C_1  and  O_2
REMARK    2  A    between atoms: O_2  and  C_3
REMARK    3  A    between atoms: C_3  and  C_5
REMARK    4  A    between atoms: C_8  and  S_9
REMARK    5  A    between atoms: S_9  and  C_10
REMARK    6  A    between atoms: C_17  and  N_18
REMARK                            x       y       z     vdW  Elec       q    Type
REMARK                         _______ _______ _______ _____ _____    ______ ____
ROOT
ATOM      1  C   UNL     1       6.573   5.018  14.974  0.00  0.00    +0.000 A 
ATOM      2  C   UNL     1       5.282   5.520  15.168  0.00  0.00    +0.000 A 
ATOM      3  C   UNL     1       4.774   5.656  16.465  0.00  0.00    +0.000 A 
ATOM      4  C   UNL     1       5.538   5.273  17.577  0.00  0.00    +0.000 A 
ATOM      5  C   UNL     1       6.813   4.698  17.384  0.00  0.00    +0.000 A 
ATOM      6  C   UNL     1       7.336   4.637  16.086  0.00  0.00    +0.000 A 
ENDROOT
BRANCH   5   7
ATOM      7  N   UNL     1       7.660   4.379  18.465  0.00  0.00    +0.000 N 
ATOM      8  H   UNL     1       8.414   5.055  18.566  0.00  0.00    +0.000 HD
ATOM      9  H   UNL     1       7.165   4.219  19.340  0.00  0.00    +0.000 HD
ENDBRANCH   5   7
BRANCH   1  10
ATOM     10  C   UNL     1       7.188   4.855  13.628  0.00  0.00    +0.000 C 
ATOM     11  O   UNL     1       6.769   4.070  12.792  0.00  0.00    +0.000 OA
BRANCH  10  13
ATOM     12  C   UNL     1       8.429   6.129  12.121  0.00  0.00    +0.000 C 
ATOM     13  O   UNL     1       8.250   5.686  13.469  0.00  0.00    +0.000 OA
ENDBRANCH  10  13
ENDBRANCH   1  10
BRANCH   4  14
ATOM     14  S   UNL     1       4.812   5.438  19.212  0.00  0.00    +0.000 S 
BRANCH  14  15
ATOM     15  C   UNL     1       3.359   4.408  19.064  0.00  0.00    +0.000 A 
ATOM     16  C   UNL     1       3.378   3.288  18.223  0.00  0.00    +0.000 A 
ATOM     17  C   UNL     1       2.257   2.458  18.127  0.00  0.00    +0.000 A 
ATOM     18  C   UNL     1       1.123   2.745  18.882  0.00  0.00    +0.000 A 
ATOM     19  F   UNL     1       0.049   1.950  18.788  0.00  0.00    +0.000 F 
ATOM     20  C   UNL     1       1.093   3.843  19.731  0.00  0.00    +0.000 A 
ATOM     21  C   UNL     1       2.213   4.672  19.827  0.00  0.00    +0.000 A 
ENDBRANCH  14  15
ENDBRANCH   4  14
TORSDOF 5
ENDMDL
MODEL 6
REMARK VINA RESULT:      -6.8      1.649      2.004
REMARK  Name = 
REMARK  6 active torsions:
REMARK  status: ('A' for Active; 'I' for Inactive)
REMARK    1  A    between atoms: C_1  and  O_2
REMARK    2  A    between atoms: O_2  and  C_3
REMARK    3  A    between atoms: C_3  and  C_5
REMARK    4  A    between atoms: C_8  and  S_9
REMARK    5  A    between atoms: S_9  and  C_10
REMARK    6  A    between atoms: C_17  and  N_18
REMARK                            x       y       z     vdW  Elec       q    Type
REMARK                         _______ _______ _______ _____ _____    ______ ____
ROOT
ATOM      1  C   UNL     1       6.272   4.147  14.235  0.00  0.00    +0.000 A 
ATOM      2  C   UNL     1       5.377   3.420  15.027  0.00  0.00    +0.000 A 
ATOM      3  C   UNL     1       5.197   3.764  16.372  0.00  0.00    +0.000 A 
ATOM      4  C   UNL     1       5.922   4.820  16.944  0.00  0.00    +0.000 A 
ATOM      5  C   UNL     1       6.879   5.510  16.170  0.00  0.00    +0.000 A 
ATOM      6  C   UNL     1       6.994   5.202  14.808  0.00  0.00    +0.000 A 
ENDROOT
BRANCH   5   7
ATOM      7  N   UNL     1       7.570   6.636  16.664  0.00  0.00    +0.000 N 
ATOM      8  H   UNL     1       7.875   6.499  17.625  0.00  0.00    +0.000 HD
ATOM      9  H   UNL     1       8.326   6.950  16.059  0.00  0.00    +0.000 HD
ENDBRANCH   5   7
BRANCH   1  10
ATOM     10  C   UNL     1       6.509   3.850  12.796  0.00  0.00    +0.000 C 
ATOM     11  O   UNL     1       7.329   4.448  12.117  0.00  0.00    +0.000 OA
BRANCH  10  13
ATOM     12  C   UNL     1       4.612   3.291  11.562  0.00  0.00    +0.000 C 
ATOM     13  O   UNL     1       5.709   2.843  12.364  0.00  0.00    +0.000 OA
ENDBRANCH  10  13
ENDBRANCH   1  10
BRANCH   4  14
ATOM     14  S   UNL     1       5.671   5.185  18.685  0.00  0.00    +0.000 S 
BRANCH  14  15
ATOM     15  C   UNL     1       4.071   4.447  18.980  0.00  0.00    +0.000 A 
ATOM     16  C   UNL     1       2.912   5.081  18.513  0.00  0.00    +0.000 A 
ATOM     17  C   UNL     1       1.658   4.494  18.710  0.00  0.00    +0.000 A 
ATOM     18  C   UNL     1       1.569   3.268  19.364  0.00  0.00    +0.000 A 
ATOM     19  F   UNL     1       0.367   2.707  19.552  0.00  0.00    +0.000 F 
ATOM     20  C   UNL     1       2.709   2.620  19.818  0.00  0.00    +0.000 A 
ATOM     21  C   UNL     1       3.961   3.207  19.621  0.00  0.00    +0.000 A 
ENDBRANCH  14  15
ENDBRANCH   4  14
TORSDOF 5
ENDMDL
MODEL 7
REMARK VINA RESULT:      -6.8      1.076      1.695
REMARK  Name = 
REMARK  6 active torsions:
REMARK  status: ('A' for Active; 'I' for Inactive)
REMARK    1  A    between atoms: C_1  and  O_2
REMARK    2  A    between atoms: O_2  and  C_3
REMARK    3  A    between atoms: C_3  and  C_5
REMARK    4  A    between atoms: C_8  and  S_9
REMARK    5  A    between atoms: S_9  and  C_10
REMARK    6  A    between atoms: C_17  and  N_18
REMARK                            x       y       z     vdW  Elec       q    Type
REMARK                         _______ _______ _______ _____ _____    ______ ____
ROOT
ATOM      1  C   UNL     1       6.559   5.021  14.988  0.00  0.00    +0.000 A 
ATOM      2  C   UNL     1       5.289   5.579  15.167  0.00  0.00    +0.000 A 
ATOM      3  C   UNL     1       4.769   5.733  16.458  0.00  0.00    +0.000 A 
ATOM      4  C   UNL     1       5.499   5.311  17.579  0.00  0.00    +0.000 A 
ATOM      5  C   UNL     1       6.750   4.680  17.400  0.00  0.00    +0.000 A 
ATOM      6  C   UNL     1       7.287   4.601  16.109  0.00  0.00    +0.000 A 
ENDROOT
BRANCH   5   7
ATOM      7  N   UNL     1       7.567   4.319  18.491  0.00  0.00    +0.000 N 
ATOM      8  H   UNL     1       8.266   5.031  18.691  0.00  0.00    +0.000 HD
ATOM      9  H   UNL     1       7.045   4.046  19.321  0.00  0.00    +0.000 HD
ENDBRANCH   5   7
BRANCH   1  10
ATOM     10  C   UNL     1       7.184   4.836  13.650  0.00  0.00    +0.000 C 
ATOM     11  O   UNL     1       6.765   4.044  12.820  0.00  0.00    +0.000 OA
BRANCH  10  13
ATOM     12  C   UNL     1       8.430   6.107  12.145  0.00  0.00    +0.000 C 
ATOM     13  O   UNL     1       8.254   5.656  13.491  0.00  0.00    +0.000 OA
ENDBRANCH  10  13
ENDBRANCH   1  10
BRANCH   4  14
ATOM     14  S   UNL     1       4.759   5.501  19.204  0.00  0.00    +0.000 S 
BRANCH  14  15
ATOM     15  C   UNL     1       3.354   4.402  19.089  0.00  0.00    +0.000 A 
ATOM     16  C   UNL     1       2.201   4.662  19.840  0.00  0.00    +0.000 A 
ATOM     17  C   UNL     1       1.085   3.826  19.731  0.00  0.00    +0.000 A 
ATOM     18  C   UNL     1       1.123   2.739  18.861  0.00  0.00    +0.000 A 
ATOM     19  F   UNL     1       0.053   1.939  18.758  0.00  0.00    +0.000 F 
ATOM     20  C   UNL     1       2.253   2.478  18.099  0.00  0.00    +0.000 A 
ATOM     21  C   UNL     1       3.368   3.313  18.208  0.00  0.00    +0.000 A 
ENDBRANCH  14  15
ENDBRANCH   4  14
TORSDOF 5
ENDMDL
MODEL 8
REMARK VINA RESULT:      -6.8      3.027      3.457
REMARK  Name = 
REMARK  6 active torsions:
REMARK  status: ('A' for Active; 'I' for Inactive)
REMARK    1  A    between atoms: C_1  and  O_2
REMARK    2  A    between atoms: O_2  and  C_3
REMARK    3  A    between atoms: C_3  and  C_5
REMARK    4  A    between atoms: C_8  and  S_9
REMARK    5  A    between atoms: S_9  and  C_10
REMARK    6  A    between atoms: C_17  and  N_18
REMARK                            x       y       z     vdW  Elec       q    Type
REMARK                         _______ _______ _______ _____ _____    ______ ____
ROOT
ATOM      1  C   UNL     1       5.950   4.903  15.944  0.00  0.00    +0.000 A 
ATOM      2  C   UNL     1       6.342   5.741  16.993  0.00  0.00    +0.000 A 
ATOM      3  C   UNL     1       5.541   5.852  18.135  0.00  0.00    +0.000 A 
ATOM      4  C   UNL     1       4.332   5.147  18.233  0.00  0.00    +0.000 A 
ATOM      5  C   UNL     1       3.895   4.358  17.147  0.00  0.00    +0.000 A 
ATOM      6  C   UNL     1       4.742   4.199  16.043  0.00  0.00    +0.000 A 
ENDROOT
BRANCH   5   7
ATOM      7  N   UNL     1       2.736   3.557  17.224  0.00  0.00    +0.000 N 
ATOM      8  H   UNL     1       2.157   3.651  16.393  0.00  0.00    +0.000 HD
ATOM      9  H   UNL     1       2.926   2.584  17.455  0.00  0.00    +0.000 HD
ENDBRANCH   5   7
BRANCH   1  10
ATOM     10  C   UNL     1       6.753   4.723  14.703  0.00  0.00    +0.000 C 
ATOM     11  O   UNL     1       7.686   5.450  14.400  0.00  0.00    +0.000 OA
BRANCH  10  13
ATOM     12  C   UNL     1       6.629   3.745  12.591  0.00  0.00    +0.000 C 
ATOM     13  O   UNL     1       6.312   3.661  13.983  0.00  0.00    +0.000 OA
ENDBRANCH  10  13
ENDBRANCH   1  10
BRANCH   4  14
ATOM     14  S   UNL     1       3.332   5.364  19.709  0.00  0.00    +0.000 S 
BRANCH  14  15
ATOM     15  C   UNL     1       2.543   6.933  19.381  0.00  0.00    +0.000 A 
ATOM     16  C   UNL     1       2.572   7.473  18.088  0.00  0.00    +0.000 A 
ATOM     17  C   UNL     1       1.929   8.685  17.815  0.00  0.00    +0.000 A 
ATOM     18  C   UNL     1       1.248   9.346  18.834  0.00  0.00    +0.000 A 
ATOM     19  F   UNL     1       0.632  10.506  18.571  0.00  0.00    +0.000 F 
ATOM     20  C   UNL     1       1.197   8.815  20.115  0.00  0.00    +0.000 A 
ATOM     21  C   UNL     1       1.840   7.606  20.388  0.00  0.00    +0.000 A 
ENDBRANCH  14  15
ENDBRANCH   4  14
TORSDOF 5
ENDMDL
MODEL 9
REMARK VINA RESULT:      -6.7      1.696      2.151
REMARK  Name = 
REMARK  6 active torsions:
REMARK  status: ('A' for Active; 'I' for Inactive)
REMARK    1  A    between atoms: C_1  and  O_2
REMARK    2  A    between atoms: O_2  and  C_3
REMARK    3  A    between atoms: C_3  and  C_5
REMARK    4  A    between atoms: C_8  and  S_9
REMARK    5  A    between atoms: S_9  and  C_10
REMARK    6  A    between atoms: C_17  and  N_18
REMARK                            x       y       z     vdW  Elec       q    Type
REMARK                         _______ _______ _______ _____ _____    ______ ____
ROOT
ATOM      1  C   UNL     1       6.188   4.163  14.185  0.00  0.00    +0.000 A 
ATOM      2  C   UNL     1       5.304   3.436  14.988  0.00  0.00    +0.000 A 
ATOM      3  C   UNL     1       5.164   3.758  16.343  0.00  0.00    +0.000 A 
ATOM      4  C   UNL     1       5.921   4.792  16.914  0.00  0.00    +0.000 A 
ATOM      5  C   UNL     1       6.869   5.481  16.127  0.00  0.00    +0.000 A 
ATOM      6  C   UNL     1       6.943   5.196  14.757  0.00  0.00    +0.000 A 
ENDROOT
BRANCH   5   7
ATOM      7  N   UNL     1       7.590   6.586  16.622  0.00  0.00    +0.000 N 
ATOM      8  H   UNL     1       6.995   7.218  17.155  0.00  0.00    +0.000 HD
ATOM      9  H   UNL     1       8.434   6.330  17.131  0.00  0.00    +0.000 HD
ENDBRANCH   5   7
BRANCH   1  10
ATOM     10  C   UNL     1       6.383   3.889  12.735  0.00  0.00    +0.000 C 
ATOM     11  O   UNL     1       7.364   4.262  12.110  0.00  0.00    +0.000 OA
BRANCH  10  13
ATOM     12  C   UNL     1       5.751   2.017  11.497  0.00  0.00    +0.000 C 
ATOM     13  O   UNL     1       5.344   3.179  12.225  0.00  0.00    +0.000 OA
ENDBRANCH  10  13
ENDBRANCH   1  10
BRANCH   4  14
ATOM     14  S   UNL     1       5.722   5.129  18.667  0.00  0.00    +0.000 S 
BRANCH  14  15
ATOM     15  C   UNL     1       4.121   4.407  18.992  0.00  0.00    +0.000 A 
ATOM     16  C   UNL     1       4.031   3.177  19.657  0.00  0.00    +0.000 A 
ATOM     17  C   UNL     1       2.781   2.620  19.946  0.00  0.00    +0.000 A 
ATOM     18  C   UNL     1       1.624   3.301  19.578  0.00  0.00    +0.000 A 
ATOM     19  F   UNL     1       0.427   2.767  19.854  0.00  0.00    +0.000 F 
ATOM     20  C   UNL     1       1.697   4.528  18.932  0.00  0.00    +0.000 A 
ATOM     21  C   UNL     1       2.945   5.084  18.644  0.00  0.00    +0.000 A 
ENDBRANCH  14  15
ENDBRANCH   4  14
TORSDOF 5
ENDMDL
