MODEL 1
REMARK VINA RESULT:      -7.1      0.000      0.000
REMARK  Name = 
REMARK  12 active torsions:
REMARK  status: ('A' for Active; 'I' for Inactive)
REMARK    1  A    between atoms: C_1  and  N_2
REMARK    2  A    between atoms: N_2  and  C_3
REMARK    3  A    between atoms: N_2  and  C_4
REMARK    4  A    between atoms: C_4  and  C_5
REMARK    5  A    between atoms: C_4  and  C_22
REMARK    6  A    between atoms: C_5  and  C_6
REMARK    7  A    between atoms: C_6  and  C_7
REMARK    8  A    between atoms: N_9  and  C_10
REMARK    9  A    between atoms: C_15  and  S_16
REMARK   10  A    between atoms: S_16  and  O_19
REMARK   11  A    between atoms: C_20  and  O_21
REMARK   12  A    between atoms: C_22  and  O_24
REMARK                            x       y       z     vdW  Elec       q    Type
REMARK                         _______ _______ _______ _____ _____    ______ ____
ROOT
ATOM      1  C   UNL     1       7.595   7.819  17.701  0.00  0.00    +0.000 C 
ATOM      2  O   UNL     1       8.138   6.980  18.419  0.00  0.00    +0.000 OA
ATOM      3  N   UNL     1       6.555   7.536  16.835  0.00  0.00    +0.000 N 
ATOM      4  H   UNL     1       6.409   8.191  16.074  0.00  0.00    +0.000 HD
ENDROOT
BRANCH   3   5
ATOM      5  C   UNL     1       6.037   6.227  16.657  0.00  0.00    +0.000 A 
ATOM      6  C   UNL     1       6.198   5.654  15.391  0.00  0.00    +0.000 A 
ATOM      7  C   UNL     1       5.831   4.323  15.179  0.00  0.00    +0.000 A 
ATOM      8 CL   UNL     1       6.157   3.590  13.657  0.00  0.00    +0.000 Cl
ATOM      9  C   UNL     1       5.241   3.578  16.192  0.00  0.00    +0.000 A 
ATOM     10  C   UNL     1       4.995   4.179  17.433  0.00  0.00    +0.000 A 
ATOM     11  C   UNL     1       5.401   5.491  17.675  0.00  0.00    +0.000 A 
BRANCH  10  12
ATOM     12  S   UNL     1       4.208   3.196  18.678  0.00  0.00    +0.000 S 
ATOM     13  O   UNL     1       5.159   3.063  19.755  0.00  0.00    +0.000 OA
ATOM     14  O   UNL     1       2.890   3.764  18.885  0.00  0.00    +0.000 OA
BRANCH  12  15
ATOM     15  O   UNL     1       3.999   1.724  18.056  0.00  0.00    +0.000 OA
ATOM     16  H   UNL     1       4.203   1.061  18.760  0.00  0.00    +0.000 HD
ENDBRANCH  12  15
ENDBRANCH  10  12
BRANCH  11  17
ATOM     17  O   UNL     1       5.126   6.059  18.890  0.00  0.00    +0.000 OA
ATOM     18  H   UNL     1       5.118   5.309  19.530  0.00  0.00    +0.000 HD
ENDBRANCH  11  17
ENDBRANCH   3   5
BRANCH   1  19
ATOM     19  C   UNL     1       8.020   9.274  17.721  0.00  0.00    +0.000 C 
BRANCH  19  20
ATOM     20  C   UNL     1       8.932   9.614  18.910  0.00  0.00    +0.000 C 
BRANCH  20  21
ATOM     21  C   UNL     1       9.380  11.100  18.960  0.00  0.00    +0.000 C 
BRANCH  21  23
ATOM     22  C   UNL     1      10.642  12.673  17.573  0.00  0.00    +0.000 C 
ATOM     23  N   UNL     1      10.715  11.394  18.322  0.00  0.00    +0.000 NA
ATOM     24  C   UNL     1      11.763  11.574  19.353  0.00  0.00    +0.000 C 
ENDBRANCH  21  23
BRANCH  21  25
ATOM     25  C   UNL     1       9.418  11.496  20.447  0.00  0.00    +0.000 C 
ATOM     26  O   UNL     1       9.371  12.645  20.861  0.00  0.00    +0.000 OA
BRANCH  25  27
ATOM     27  O   UNL     1       9.392  10.414  21.269  0.00  0.00    +0.000 OA
ATOM     28  H   UNL     1      10.141  10.510  21.905  0.00  0.00    +0.000 HD
ENDBRANCH  25  27
ENDBRANCH  21  25
ENDBRANCH  20  21
ENDBRANCH  19  20
ENDBRANCH   1  19
TORSDOF 10
ENDMDL
MODEL 2
REMARK VINA RESULT:      -7.1      1.513      1.772
REMARK  Name = 
REMARK  12 active torsions:
REMARK  status: ('A' for Active; 'I' for Inactive)
REMARK    1  A    between atoms: C_1  and  N_2
REMARK    2  A    between atoms: N_2  and  C_3
REMARK    3  A    between atoms: N_2  and  C_4
REMARK    4  A    between atoms: C_4  and  C_5
REMARK    5  A    between atoms: C_4  and  C_22
REMARK    6  A    between atoms: C_5  and  C_6
REMARK    7  A    between atoms: C_6  and  C_7
REMARK    8  A    between atoms: N_9  and  C_10
REMARK    9  A    between atoms: C_15  and  S_16
REMARK   10  A    between atoms: S_16  and  O_19
REMARK   11  A    between atoms: C_20  and  O_21
REMARK   12  A    between atoms: C_22  and  O_24
REMARK                            x       y       z     vdW  Elec       q    Type
REMARK                         _______ _______ _______ _____ _____    ______ ____
ROOT
ATOM      1  C   UNL     1       7.893   8.232  18.012  0.00  0.00    +0.000 C 
ATOM      2  O   UNL     1       7.100   8.732  17.215  0.00  0.00    +0.000 OA
ATOM      3  N   UNL     1       7.955   6.879  18.292  0.00  0.00    +0.000 N 
ATOM      4  H   UNL     1       8.390   6.619  19.172  0.00  0.00    +0.000 HD
ENDROOT
BRANCH   3   5
ATOM      5  C   UNL     1       7.070   5.933  17.714  0.00  0.00    +0.000 A 
ATOM      6  C   UNL     1       7.161   5.750  16.330  0.00  0.00    +0.000 A 
ATOM      7  C   UNL     1       6.414   4.746  15.711  0.00  0.00    +0.000 A 
ATOM      8 CL   UNL     1       6.635   4.442  14.031  0.00  0.00    +0.000 Cl
ATOM      9  C   UNL     1       5.525   3.967  16.442  0.00  0.00    +0.000 A 
ATOM     10  C   UNL     1       5.365   4.211  17.812  0.00  0.00    +0.000 A 
ATOM     11  C   UNL     1       6.139   5.177  18.452  0.00  0.00    +0.000 A 
BRANCH  10  12
ATOM     12  S   UNL     1       4.193   3.215  18.689  0.00  0.00    +0.000 S 
ATOM     13  O   UNL     1       3.306   4.129  19.366  0.00  0.00    +0.000 OA
ATOM     14  O   UNL     1       3.702   2.226  17.749  0.00  0.00    +0.000 OA
BRANCH  12  15
ATOM     15  O   UNL     1       5.007   2.422  19.832  0.00  0.00    +0.000 OA
ATOM     16  H   UNL     1       4.959   1.456  19.630  0.00  0.00    +0.000 HD
ENDBRANCH  12  15
ENDBRANCH  10  12
BRANCH  11  17
ATOM     17  O   UNL     1       5.944   5.409  19.788  0.00  0.00    +0.000 OA
ATOM     18  H   UNL     1       6.452   6.231  19.984  0.00  0.00    +0.000 HD
ENDBRANCH  11  17
ENDBRANCH   3   5
BRANCH   1  19
ATOM     19  C   UNL     1       8.907   9.078  18.755  0.00  0.00    +0.000 C 
BRANCH  19  20
ATOM     20  C   UNL     1       9.186  10.422  18.067  0.00  0.00    +0.000 C 
BRANCH  20  21
ATOM     21  C   UNL     1       9.185  11.640  19.030  0.00  0.00    +0.000 C 
BRANCH  21  23
ATOM     22  C   UNL     1       7.986  13.056  17.434  0.00  0.00    +0.000 C 
ATOM     23  N   UNL     1       9.142  12.992  18.362  0.00  0.00    +0.000 NA
ATOM     24  C   UNL     1       8.937  14.066  19.361  0.00  0.00    +0.000 C 
ENDBRANCH  21  23
BRANCH  21  25
ATOM     25  C   UNL     1      10.460  11.524  19.884  0.00  0.00    +0.000 C 
ATOM     26  O   UNL     1      11.599  11.561  19.440  0.00  0.00    +0.000 OA
BRANCH  25  27
ATOM     27  O   UNL     1      10.189  11.493  21.215  0.00  0.00    +0.000 OA
ATOM     28  H   UNL     1       9.215  11.615  21.319  0.00  0.00    +0.000 HD
ENDBRANCH  25  27
ENDBRANCH  21  25
ENDBRANCH  20  21
ENDBRANCH  19  20
ENDBRANCH   1  19
TORSDOF 10
ENDMDL
MODEL 3
REMARK VINA RESULT:      -7.0      1.690      2.256
REMARK  Name = 
REMARK  12 active torsions:
REMARK  status: ('A' for Active; 'I' for Inactive)
REMARK    1  A    between atoms: C_1  and  N_2
REMARK    2  A    between atoms: N_2  and  C_3
REMARK    3  A    between atoms: N_2  and  C_4
REMARK    4  A    between atoms: C_4  and  C_5
REMARK    5  A    between atoms: C_4  and  C_22
REMARK    6  A    between atoms: C_5  and  C_6
REMARK    7  A    between atoms: C_6  and  C_7
REMARK    8  A    between atoms: N_9  and  C_10
REMARK    9  A    between atoms: C_15  and  S_16
REMARK   10  A    between atoms: S_16  and  O_19
REMARK   11  A    between atoms: C_20  and  O_21
REMARK   12  A    between atoms: C_22  and  O_24
REMARK                            x       y       z     vdW  Elec       q    Type
REMARK                         _______ _______ _______ _____ _____    ______ ____
ROOT
ATOM      1  C   UNL     1       7.849   8.176  17.927  0.00  0.00    +0.000 C 
ATOM      2  O   UNL     1       7.006   8.674  17.182  0.00  0.00    +0.000 OA
ATOM      3  N   UNL     1       7.943   6.822  18.190  0.00  0.00    +0.000 N 
ATOM      4  H   UNL     1       8.431   6.560  19.041  0.00  0.00    +0.000 HD
ENDROOT
BRANCH   3   5
ATOM      5  C   UNL     1       7.036   5.871  17.656  0.00  0.00    +0.000 A 
ATOM      6  C   UNL     1       7.107   5.640  16.278  0.00  0.00    +0.000 A 
ATOM      7  C   UNL     1       6.337   4.627  15.702  0.00  0.00    +0.000 A 
ATOM      8 CL   UNL     1       6.531   4.264  14.031  0.00  0.00    +0.000 Cl
ATOM      9  C   UNL     1       5.447   3.887  16.470  0.00  0.00    +0.000 A 
ATOM     10  C   UNL     1       5.308   4.179  17.833  0.00  0.00    +0.000 A 
ATOM     11  C   UNL     1       6.105   5.154  18.431  0.00  0.00    +0.000 A 
BRANCH  10  12
ATOM     12  S   UNL     1       4.134   3.230  18.759  0.00  0.00    +0.000 S 
ATOM     13  O   UNL     1       3.422   2.417  17.803  0.00  0.00    +0.000 OA
ATOM     14  O   UNL     1       4.856   2.647  19.872  0.00  0.00    +0.000 OA
BRANCH  12  15
ATOM     15  O   UNL     1       3.066   4.268  19.375  0.00  0.00    +0.000 OA
ATOM     16  H   UNL     1       3.502   4.753  20.118  0.00  0.00    +0.000 HD
ENDBRANCH  12  15
ENDBRANCH  10  12
BRANCH  11  17
ATOM     17  O   UNL     1       5.931   5.433  19.761  0.00  0.00    +0.000 OA
ATOM     18  H   UNL     1       5.685   4.573  20.175  0.00  0.00    +0.000 HD
ENDBRANCH  11  17
ENDBRANCH   3   5
BRANCH   1  19
ATOM     19  C   UNL     1       8.896   9.028  18.618  0.00  0.00    +0.000 C 
BRANCH  19  20
ATOM     20  C   UNL     1       8.807  10.512  18.237  0.00  0.00    +0.000 C 
BRANCH  20  21
ATOM     21  C   UNL     1       9.901  11.402  18.888  0.00  0.00    +0.000 C 
BRANCH  21  23
ATOM     22  C   UNL     1       9.132  11.372  21.212  0.00  0.00    +0.000 C 
ATOM     23  N   UNL     1       9.441  12.244  20.052  0.00  0.00    +0.000 NA
ATOM     24  C   UNL     1      10.516  13.162  20.494  0.00  0.00    +0.000 C 
ENDBRANCH  21  23
BRANCH  21  25
ATOM     25  C   UNL     1      10.447  12.311  17.773  0.00  0.00    +0.000 C 
ATOM     26  O   UNL     1      11.594  12.278  17.350  0.00  0.00    +0.000 OA
BRANCH  25  27
ATOM     27  O   UNL     1       9.478  13.087  17.220  0.00  0.00    +0.000 OA
ATOM     28  H   UNL     1       9.819  14.013  17.201  0.00  0.00    +0.000 HD
ENDBRANCH  25  27
ENDBRANCH  21  25
ENDBRANCH  20  21
ENDBRANCH  19  20
ENDBRANCH   1  19
TORSDOF 10
ENDMDL
MODEL 4
REMARK VINA RESULT:      -6.9      1.510      1.951
REMARK  Name = 
REMARK  12 active torsions:
REMARK  status: ('A' for Active; 'I' for Inactive)
REMARK    1  A    between atoms: C_1  and  N_2
REMARK    2  A    between atoms: N_2  and  C_3
REMARK    3  A    between atoms: N_2  and  C_4
REMARK    4  A    between atoms: C_4  and  C_5
REMARK    5  A    between atoms: C_4  and  C_22
REMARK    6  A    between atoms: C_5  and  C_6
REMARK    7  A    between atoms: C_6  and  C_7
REMARK    8  A    between atoms: N_9  and  C_10
REMARK    9  A    between atoms: C_15  and  S_16
REMARK   10  A    between atoms: S_16  and  O_19
REMARK   11  A    between atoms: C_20  and  O_21
REMARK   12  A    between atoms: C_22  and  O_24
REMARK                            x       y       z     vdW  Elec       q    Type
REMARK                         _______ _______ _______ _____ _____    ______ ____
ROOT
ATOM      1  C   UNL     1       7.741   8.058  17.794  0.00  0.00    +0.000 C 
ATOM      2  O   UNL     1       6.896   8.537  17.039  0.00  0.00    +0.000 OA
ATOM      3  N   UNL     1       7.838   6.710  18.086  0.00  0.00    +0.000 N 
ATOM      4  H   UNL     1       8.327   6.467  18.942  0.00  0.00    +0.000 HD
ENDROOT
BRANCH   3   5
ATOM      5  C   UNL     1       6.933   5.745  17.572  0.00  0.00    +0.000 A 
ATOM      6  C   UNL     1       6.981   5.511  16.194  0.00  0.00    +0.000 A 
ATOM      7  C   UNL     1       6.214   4.485  15.636  0.00  0.00    +0.000 A 
ATOM      8 CL   UNL     1       6.381   4.119  13.963  0.00  0.00    +0.000 Cl
ATOM      9  C   UNL     1       5.347   3.737  16.423  0.00  0.00    +0.000 A 
ATOM     10  C   UNL     1       5.230   4.032  17.788  0.00  0.00    +0.000 A 
ATOM     11  C   UNL     1       6.026   5.020  18.367  0.00  0.00    +0.000 A 
BRANCH  10  12
ATOM     12  S   UNL     1       4.085   3.072  18.738  0.00  0.00    +0.000 S 
ATOM     13  O   UNL     1       3.226   4.013  19.415  0.00  0.00    +0.000 OA
ATOM     14  O   UNL     1       3.557   2.056  17.848  0.00  0.00    +0.000 OA
BRANCH  12  15
ATOM     15  O   UNL     1       4.935   2.313  19.877  0.00  0.00    +0.000 OA
ATOM     16  H   UNL     1       4.388   1.566  20.222  0.00  0.00    +0.000 HD
ENDBRANCH  12  15
ENDBRANCH  10  12
BRANCH  11  17
ATOM     17  O   UNL     1       5.873   5.302  19.698  0.00  0.00    +0.000 OA
ATOM     18  H   UNL     1       5.118   5.935  19.743  0.00  0.00    +0.000 HD
ENDBRANCH  11  17
ENDBRANCH   3   5
BRANCH   1  19
ATOM     19  C   UNL     1       8.785   8.926  18.467  0.00  0.00    +0.000 C 
BRANCH  19  20
ATOM     20  C   UNL     1       8.539  10.427  18.261  0.00  0.00    +0.000 C 
BRANCH  20  21
ATOM     21  C   UNL     1       9.836  11.275  18.157  0.00  0.00    +0.000 C 
BRANCH  21  23
ATOM     22  C   UNL     1      12.071  11.597  19.102  0.00  0.00    +0.000 C 
ATOM     23  N   UNL     1      10.639  11.387  19.429  0.00  0.00    +0.000 NA
ATOM     24  C   UNL     1      10.213  12.567  20.217  0.00  0.00    +0.000 C 
ENDBRANCH  21  23
BRANCH  21  25
ATOM     25  C   UNL     1       9.407  12.677  17.689  0.00  0.00    +0.000 C 
ATOM     26  O   UNL     1       8.371  13.234  18.024  0.00  0.00    +0.000 OA
BRANCH  25  27
ATOM     27  O   UNL     1      10.367  13.290  16.947  0.00  0.00    +0.000 OA
ATOM     28  H   UNL     1      10.273  12.966  16.020  0.00  0.00    +0.000 HD
ENDBRANCH  25  27
ENDBRANCH  21  25
ENDBRANCH  20  21
ENDBRANCH  19  20
ENDBRANCH   1  19
TORSDOF 10
ENDMDL
MODEL 5
REMARK VINA RESULT:      -6.9      1.740      2.148
REMARK  Name = 
REMARK  12 active torsions:
REMARK  status: ('A' for Active; 'I' for Inactive)
REMARK    1  A    between atoms: C_1  and  N_2
REMARK    2  A    between atoms: N_2  and  C_3
REMARK    3  A    between atoms: N_2  and  C_4
REMARK    4  A    between atoms: C_4  and  C_5
REMARK    5  A    between atoms: C_4  and  C_22
REMARK    6  A    between atoms: C_5  and  C_6
REMARK    7  A    between atoms: C_6  and  C_7
REMARK    8  A    between atoms: N_9  and  C_10
REMARK    9  A    between atoms: C_15  and  S_16
REMARK   10  A    between atoms: S_16  and  O_19
REMARK   11  A    between atoms: C_20  and  O_21
REMARK   12  A    between atoms: C_22  and  O_24
REMARK                            x       y       z     vdW  Elec       q    Type
REMARK                         _______ _______ _______ _____ _____    ______ ____
ROOT
ATOM      1  C   UNL     1       8.077   8.361  18.166  0.00  0.00    +0.000 C 
ATOM      2  O   UNL     1       7.378   8.893  17.305  0.00  0.00    +0.000 OA
ATOM      3  N   UNL     1       8.050   7.009  18.453  0.00  0.00    +0.000 N 
ATOM      4  H   UNL     1       8.398   6.734  19.367  0.00  0.00    +0.000 HD
ENDROOT
BRANCH   3   5
ATOM      5  C   UNL     1       7.171   6.102  17.806  0.00  0.00    +0.000 A 
ATOM      6  C   UNL     1       7.294   5.991  16.417  0.00  0.00    +0.000 A 
ATOM      7  C   UNL     1       6.553   5.027  15.729  0.00  0.00    +0.000 A 
ATOM      8 CL   UNL     1       6.811   4.810  14.041  0.00  0.00    +0.000 Cl
ATOM      9  C   UNL     1       5.641   4.221  16.397  0.00  0.00    +0.000 A 
ATOM     10  C   UNL     1       5.450   4.394  17.774  0.00  0.00    +0.000 A 
ATOM     11  C   UNL     1       6.217   5.318  18.482  0.00  0.00    +0.000 A 
BRANCH  10  12
ATOM     12  S   UNL     1       4.249   3.365  18.570  0.00  0.00    +0.000 S 
ATOM     13  O   UNL     1       3.335   4.252  19.248  0.00  0.00    +0.000 OA
ATOM     14  O   UNL     1       3.796   2.411  17.577  0.00  0.00    +0.000 OA
BRANCH  12  15
ATOM     15  O   UNL     1       5.023   2.531  19.712  0.00  0.00    +0.000 OA
ATOM     16  H   UNL     1       5.531   1.807  19.272  0.00  0.00    +0.000 HD
ENDBRANCH  12  15
ENDBRANCH  10  12
BRANCH  11  17
ATOM     17  O   UNL     1       5.992   5.482  19.823  0.00  0.00    +0.000 OA
ATOM     18  H   UNL     1       6.888   5.540  20.230  0.00  0.00    +0.000 HD
ENDBRANCH  11  17
ENDBRANCH   3   5
BRANCH   1  19
ATOM     19  C   UNL     1       9.066   9.162  18.989  0.00  0.00    +0.000 C 
BRANCH  19  20
ATOM     20  C   UNL     1       9.200  10.616  18.516  0.00  0.00    +0.000 C 
BRANCH  20  21
ATOM     21  C   UNL     1      10.236  11.452  19.316  0.00  0.00    +0.000 C 
BRANCH  21  23
ATOM     22  C   UNL     1       8.697  13.349  19.161  0.00  0.00    +0.000 C 
ATOM     23  N   UNL     1       9.679  12.657  20.032  0.00  0.00    +0.000 NA
ATOM     24  C   UNL     1       8.943  12.251  21.252  0.00  0.00    +0.000 C 
ENDBRANCH  21  23
BRANCH  21  25
ATOM     25  C   UNL     1      11.311  11.898  18.309  0.00  0.00    +0.000 C 
ATOM     26  O   UNL     1      12.308  12.544  18.599  0.00  0.00    +0.000 OA
BRANCH  25  27
ATOM     27  O   UNL     1      11.096  11.392  17.067  0.00  0.00    +0.000 OA
ATOM     28  H   UNL     1      10.122  11.408  16.908  0.00  0.00    +0.000 HD
ENDBRANCH  25  27
ENDBRANCH  21  25
ENDBRANCH  20  21
ENDBRANCH  19  20
ENDBRANCH   1  19
TORSDOF 10
ENDMDL
MODEL 6
REMARK VINA RESULT:      -6.9      5.388      6.955
REMARK  Name = 
REMARK  12 active torsions:
REMARK  status: ('A' for Active; 'I' for Inactive)
REMARK    1  A    between atoms: C_1  and  N_2
REMARK    2  A    between atoms: N_2  and  C_3
REMARK    3  A    between atoms: N_2  and  C_4
REMARK    4  A    between atoms: C_4  and  C_5
REMARK    5  A    between atoms: C_4  and  C_22
REMARK    6  A    between atoms: C_5  and  C_6
REMARK    7  A    between atoms: C_6  and  C_7
REMARK    8  A    between atoms: N_9  and  C_10
REMARK    9  A    between atoms: C_15  and  S_16
REMARK   10  A    between atoms: S_16  and  O_19
REMARK   11  A    between atoms: C_20  and  O_21
REMARK   12  A    between atoms: C_22  and  O_24
REMARK                            x       y       z     vdW  Elec       q    Type
REMARK                         _______ _______ _______ _____ _____    ______ ____
ROOT
ATOM      1  C   UNL     1       2.298   8.241  18.377  0.00  0.00    +0.000 C 
ATOM      2  O   UNL     1       2.071   7.782  19.496  0.00  0.00    +0.000 OA
ATOM      3  N   UNL     1       3.087   7.612  17.432  0.00  0.00    +0.000 N 
ATOM      4  H   UNL     1       3.473   8.201  16.701  0.00  0.00    +0.000 HD
ENDROOT
BRANCH   3   5
ATOM      5  C   UNL     1       3.755   6.385  17.682  0.00  0.00    +0.000 A 
ATOM      6  C   UNL     1       5.153   6.423  17.703  0.00  0.00    +0.000 A 
ATOM      7  C   UNL     1       5.874   5.284  18.069  0.00  0.00    +0.000 A 
ATOM      8 CL   UNL     1       7.585   5.380  18.220  0.00  0.00    +0.000 Cl
ATOM      9  C   UNL     1       5.223   4.088  18.345  0.00  0.00    +0.000 A 
ATOM     10  C   UNL     1       3.828   4.024  18.235  0.00  0.00    +0.000 A 
ATOM     11  C   UNL     1       3.092   5.165  17.918  0.00  0.00    +0.000 A 
BRANCH  10  12
ATOM     12  S   UNL     1       3.051   2.468  18.564  0.00  0.00    +0.000 S 
ATOM     13  O   UNL     1       2.398   2.600  19.843  0.00  0.00    +0.000 OA
ATOM     14  O   UNL     1       2.320   2.107  17.365  0.00  0.00    +0.000 OA
BRANCH  12  15
ATOM     15  O   UNL     1       4.226   1.382  18.750  0.00  0.00    +0.000 OA
ATOM     16  H   UNL     1       3.950   0.747  19.455  0.00  0.00    +0.000 HD
ENDBRANCH  12  15
ENDBRANCH  10  12
BRANCH  11  17
ATOM     17  O   UNL     1       1.731   5.067  17.795  0.00  0.00    +0.000 OA
ATOM     18  H   UNL     1       1.536   4.102  17.851  0.00  0.00    +0.000 HD
ENDBRANCH  11  17
ENDBRANCH   3   5
BRANCH   1  19
ATOM     19  C   UNL     1       1.699   9.557  17.924  0.00  0.00    +0.000 C 
BRANCH  19  20
ATOM     20  C   UNL     1       0.256   9.758  18.411  0.00  0.00    +0.000 C 
BRANCH  20  21
ATOM     21  C   UNL     1      -0.056  11.201  18.893  0.00  0.00    +0.000 C 
BRANCH  21  23
ATOM     22  C   UNL     1      -0.132  10.038  21.045  0.00  0.00    +0.000 C 
ATOM     23  N   UNL     1      -0.329  11.345  20.369  0.00  0.00    +0.000 NA
ATOM     24  C   UNL     1       0.631  12.286  20.992  0.00  0.00    +0.000 C 
ENDBRANCH  21  23
BRANCH  21  25
ATOM     25  C   UNL     1      -1.282  11.674  18.091  0.00  0.00    +0.000 C 
ATOM     26  O   UNL     1      -2.385  11.147  18.133  0.00  0.00    +0.000 OA
BRANCH  25  27
ATOM     27  O   UNL     1      -1.039  12.824  17.410  0.00  0.00    +0.000 OA
ATOM     28  H   UNL     1      -1.694  12.872  16.673  0.00  0.00    +0.000 HD
ENDBRANCH  25  27
ENDBRANCH  21  25
ENDBRANCH  20  21
ENDBRANCH  19  20
ENDBRANCH   1  19
TORSDOF 10
ENDMDL
MODEL 7
REMARK VINA RESULT:      -6.9      1.338      1.549
REMARK  Name = 
REMARK  12 active torsions:
REMARK  status: ('A' for Active; 'I' for Inactive)
REMARK    1  A    between atoms: C_1  and  N_2
REMARK    2  A    between atoms: N_2  and  C_3
REMARK    3  A    between atoms: N_2  and  C_4
REMARK    4  A    between atoms: C_4  and  C_5
REMARK    5  A    between atoms: C_4  and  C_22
REMARK    6  A    between atoms: C_5  and  C_6
REMARK    7  A    between atoms: C_6  and  C_7
REMARK    8  A    between atoms: N_9  and  C_10
REMARK    9  A    between atoms: C_15  and  S_16
REMARK   10  A    between atoms: S_16  and  O_19
REMARK   11  A    between atoms: C_20  and  O_21
REMARK   12  A    between atoms: C_22  and  O_24
REMARK                            x       y       z     vdW  Elec       q    Type
REMARK                         _______ _______ _______ _____ _____    ______ ____
ROOT
ATOM      1  C   UNL     1       8.000   8.373  18.077  0.00  0.00    +0.000 C 
ATOM      2  O   UNL     1       7.266   8.868  17.223  0.00  0.00    +0.000 OA
ATOM      3  N   UNL     1       8.021   7.026  18.387  0.00  0.00    +0.000 N 
ATOM      4  H   UNL     1       8.396   6.777  19.298  0.00  0.00    +0.000 HD
ENDROOT
BRANCH   3   5
ATOM      5  C   UNL     1       7.158   6.081  17.774  0.00  0.00    +0.000 A 
ATOM      6  C   UNL     1       7.273   5.933  16.388  0.00  0.00    +0.000 A 
ATOM      7  C   UNL     1       6.550   4.933  15.733  0.00  0.00    +0.000 A 
ATOM      8 CL   UNL     1       6.800   4.673  14.051  0.00  0.00    +0.000 Cl
ATOM      9  C   UNL     1       5.661   4.125  16.432  0.00  0.00    +0.000 A 
ATOM     10  C   UNL     1       5.476   4.334  17.805  0.00  0.00    +0.000 A 
ATOM     11  C   UNL     1       6.228   5.295  18.480  0.00  0.00    +0.000 A 
BRANCH  10  12
ATOM     12  S   UNL     1       4.306   3.301  18.640  0.00  0.00    +0.000 S 
ATOM     13  O   UNL     1       4.963   2.820  19.831  0.00  0.00    +0.000 OA
ATOM     14  O   UNL     1       3.063   4.045  18.698  0.00  0.00    +0.000 OA
BRANCH  12  15
ATOM     15  O   UNL     1       4.050   2.018  17.699  0.00  0.00    +0.000 OA
ATOM     16  H   UNL     1       3.796   2.342  16.800  0.00  0.00    +0.000 HD
ENDBRANCH  12  15
ENDBRANCH  10  12
BRANCH  11  17
ATOM     17  O   UNL     1       6.009   5.492  19.817  0.00  0.00    +0.000 OA
ATOM     18  H   UNL     1       5.190   6.040  19.867  0.00  0.00    +0.000 HD
ENDBRANCH  11  17
ENDBRANCH   3   5
BRANCH   1  19
ATOM     19  C   UNL     1       8.979   9.218  18.867  0.00  0.00    +0.000 C 
BRANCH  19  20
ATOM     20  C   UNL     1       9.229  10.594  18.233  0.00  0.00    +0.000 C 
BRANCH  20  21
ATOM     21  C   UNL     1       9.153  11.778  19.235  0.00  0.00    +0.000 C 
BRANCH  21  23
ATOM     22  C   UNL     1      10.283  12.947  17.406  0.00  0.00    +0.000 C 
ATOM     23  N   UNL     1       9.534  13.125  18.674  0.00  0.00    +0.000 NA
ATOM     24  C   UNL     1       8.327  13.916  18.339  0.00  0.00    +0.000 C 
ENDBRANCH  21  23
BRANCH  21  25
ATOM     25  C   UNL     1      10.087  11.421  20.406  0.00  0.00    +0.000 C 
ATOM     26  O   UNL     1      11.308  11.454  20.354  0.00  0.00    +0.000 OA
BRANCH  25  27
ATOM     27  O   UNL     1       9.403  11.174  21.554  0.00  0.00    +0.000 OA
ATOM     28  H   UNL     1       8.512  10.839  21.298  0.00  0.00    +0.000 HD
ENDBRANCH  25  27
ENDBRANCH  21  25
ENDBRANCH  20  21
ENDBRANCH  19  20
ENDBRANCH   1  19
TORSDOF 10
ENDMDL
MODEL 8
REMARK VINA RESULT:      -6.9      1.676      2.124
REMARK  Name = 
REMARK  12 active torsions:
REMARK  status: ('A' for Active; 'I' for Inactive)
REMARK    1  A    between atoms: C_1  and  N_2
REMARK    2  A    between atoms: N_2  and  C_3
REMARK    3  A    between atoms: N_2  and  C_4
REMARK    4  A    between atoms: C_4  and  C_5
REMARK    5  A    between atoms: C_4  and  C_22
REMARK    6  A    between atoms: C_5  and  C_6
REMARK    7  A    between atoms: C_6  and  C_7
REMARK    8  A    between atoms: N_9  and  C_10
REMARK    9  A    between atoms: C_15  and  S_16
REMARK   10  A    between atoms: S_16  and  O_19
REMARK   11  A    between atoms: C_20  and  O_21
REMARK   12  A    between atoms: C_22  and  O_24
REMARK                            x       y       z     vdW  Elec       q    Type
REMARK                         _______ _______ _______ _____ _____    ______ ____
ROOT
ATOM      1  C   UNL     1       7.843   8.135  17.951  0.00  0.00    +0.000 C 
ATOM      2  O   UNL     1       7.057   8.620  17.138  0.00  0.00    +0.000 OA
ATOM      3  N   UNL     1       7.885   6.791  18.274  0.00  0.00    +0.000 N 
ATOM      4  H   UNL     1       8.316   6.553  19.162  0.00  0.00    +0.000 HD
ENDROOT
BRANCH   3   5
ATOM      5  C   UNL     1       6.987   5.840  17.725  0.00  0.00    +0.000 A 
ATOM      6  C   UNL     1       7.070   5.619  16.346  0.00  0.00    +0.000 A 
ATOM      7  C   UNL     1       6.309   4.607  15.757  0.00  0.00    +0.000 A 
ATOM      8 CL   UNL     1       6.518   4.257  14.085  0.00  0.00    +0.000 Cl
ATOM      9  C   UNL     1       5.415   3.858  16.513  0.00  0.00    +0.000 A 
ATOM     10  C   UNL     1       5.264   4.140  17.876  0.00  0.00    +0.000 A 
ATOM     11  C   UNL     1       6.052   5.114  18.487  0.00  0.00    +0.000 A 
BRANCH  10  12
ATOM     12  S   UNL     1       4.085   3.180  18.785  0.00  0.00    +0.000 S 
ATOM     13  O   UNL     1       3.367   2.390  17.815  0.00  0.00    +0.000 OA
ATOM     14  O   UNL     1       4.807   2.571  19.885  0.00  0.00    +0.000 OA
BRANCH  12  15
ATOM     15  O   UNL     1       3.026   4.212  19.424  0.00  0.00    +0.000 OA
ATOM     16  H   UNL     1       2.251   4.275  18.813  0.00  0.00    +0.000 HD
ENDBRANCH  12  15
ENDBRANCH  10  12
BRANCH  11  17
ATOM     17  O   UNL     1       5.865   5.383  19.818  0.00  0.00    +0.000 OA
ATOM     18  H   UNL     1       6.320   6.245  19.972  0.00  0.00    +0.000 HD
ENDBRANCH  11  17
ENDBRANCH   3   5
BRANCH   1  19
ATOM     19  C   UNL     1       8.869   8.989  18.669  0.00  0.00    +0.000 C 
BRANCH  19  20
ATOM     20  C   UNL     1       8.915  10.433  18.148  0.00  0.00    +0.000 C 
BRANCH  20  21
ATOM     21  C   UNL     1       9.615  11.432  19.108  0.00  0.00    +0.000 C 
BRANCH  21  23
ATOM     22  C   UNL     1      10.053  13.808  19.500  0.00  0.00    +0.000 C 
ATOM     23  N   UNL     1       9.007  12.811  19.162  0.00  0.00    +0.000 NA
ATOM     24  C   UNL     1       8.471  13.202  17.837  0.00  0.00    +0.000 C 
ENDBRANCH  21  23
BRANCH  21  25
ATOM     25  C   UNL     1      11.081  11.529  18.648  0.00  0.00    +0.000 C 
ATOM     26  O   UNL     1      12.047  11.518  19.397  0.00  0.00    +0.000 OA
BRANCH  25  27
ATOM     27  O   UNL     1      11.198  11.512  17.294  0.00  0.00    +0.000 OA
ATOM     28  H   UNL     1      10.921  10.617  16.987  0.00  0.00    +0.000 HD
ENDBRANCH  25  27
ENDBRANCH  21  25
ENDBRANCH  20  21
ENDBRANCH  19  20
ENDBRANCH   1  19
TORSDOF 10
ENDMDL
MODEL 9
REMARK VINA RESULT:      -6.8      1.650      1.950
REMARK  Name = 
REMARK  12 active torsions:
REMARK  status: ('A' for Active; 'I' for Inactive)
REMARK    1  A    between atoms: C_1  and  N_2
REMARK    2  A    between atoms: N_2  and  C_3
REMARK    3  A    between atoms: N_2  and  C_4
REMARK    4  A    between atoms: C_4  and  C_5
REMARK    5  A    between atoms: C_4  and  C_22
REMARK    6  A    between atoms: C_5  and  C_6
REMARK    7  A    between atoms: C_6  and  C_7
REMARK    8  A    between atoms: N_9  and  C_10
REMARK    9  A    between atoms: C_15  and  S_16
REMARK   10  A    between atoms: S_16  and  O_19
REMARK   11  A    between atoms: C_20  and  O_21
REMARK   12  A    between atoms: C_22  and  O_24
REMARK                            x       y       z     vdW  Elec       q    Type
REMARK                         _______ _______ _______ _____ _____    ______ ____
ROOT
ATOM      1  C   UNL     1       7.736   8.116  17.783  0.00  0.00    +0.000 C 
ATOM      2  O   UNL     1       6.817   8.608  17.130  0.00  0.00    +0.000 OA
ATOM      3  N   UNL     1       7.876   6.760  18.015  0.00  0.00    +0.000 N 
ATOM      4  H   UNL     1       8.447   6.494  18.812  0.00  0.00    +0.000 HD
ENDROOT
BRANCH   3   5
ATOM      5  C   UNL     1       6.938   5.800  17.555  0.00  0.00    +0.000 A 
ATOM      6  C   UNL     1       6.946   5.521  16.184  0.00  0.00    +0.000 A 
ATOM      7  C   UNL     1       6.143   4.496  15.679  0.00  0.00    +0.000 A 
ATOM      8 CL   UNL     1       6.260   4.074  14.015  0.00  0.00    +0.000 Cl
ATOM      9  C   UNL     1       5.280   3.793  16.510  0.00  0.00    +0.000 A 
ATOM     10  C   UNL     1       5.204   4.134  17.867  0.00  0.00    +0.000 A 
ATOM     11  C   UNL     1       6.035   5.121  18.395  0.00  0.00    +0.000 A 
BRANCH  10  12
ATOM     12  S   UNL     1       4.062   3.230  18.875  0.00  0.00    +0.000 S 
ATOM     13  O   UNL     1       4.851   2.547  19.872  0.00  0.00    +0.000 OA
ATOM     14  O   UNL     1       3.006   4.155  19.237  0.00  0.00    +0.000 OA
BRANCH  12  15
ATOM     15  O   UNL     1       3.402   2.094  17.942  0.00  0.00    +0.000 OA
ATOM     16  H   UNL     1       3.748   2.212  17.024  0.00  0.00    +0.000 HD
ENDBRANCH  12  15
ENDBRANCH  10  12
BRANCH  11  17
ATOM     17  O   UNL     1       5.922   5.448  19.720  0.00  0.00    +0.000 OA
ATOM     18  H   UNL     1       6.829   5.714  19.998  0.00  0.00    +0.000 HD
ENDBRANCH  11  17
ENDBRANCH   3   5
BRANCH   1  19
ATOM     19  C   UNL     1       8.829   8.976  18.385  0.00  0.00    +0.000 C 
BRANCH  19  20
ATOM     20  C   UNL     1       8.492  10.473  18.366  0.00  0.00    +0.000 C 
BRANCH  20  21
ATOM     21  C   UNL     1       9.722  11.404  18.544  0.00  0.00    +0.000 C 
BRANCH  21  23
ATOM     22  C   UNL     1       9.241  11.121  20.927  0.00  0.00    +0.000 C 
ATOM     23  N   UNL     1       9.889  11.997  19.920  0.00  0.00    +0.000 NA
ATOM     24  C   UNL     1      11.322  12.071  20.292  0.00  0.00    +0.000 C 
ENDBRANCH  21  23
BRANCH  21  25
ATOM     25  C   UNL     1       9.573  12.532  17.508  0.00  0.00    +0.000 C 
ATOM     26  O   UNL     1      10.507  13.131  16.995  0.00  0.00    +0.000 OA
BRANCH  25  27
ATOM     27  O   UNL     1       8.281  12.716  17.129  0.00  0.00    +0.000 OA
ATOM     28  H   UNL     1       7.788  13.046  17.918  0.00  0.00    +0.000 HD
ENDBRANCH  25  27
ENDBRANCH  21  25
ENDBRANCH  20  21
ENDBRANCH  19  20
ENDBRANCH   1  19
TORSDOF 10
ENDMDL
