MODEL 1
REMARK VINA RESULT:      -6.9      0.000      0.000
REMARK  Name = 
REMARK  1 active torsions:
REMARK  status: ('A' for Active; 'I' for Inactive)
REMARK    1  A    between atoms: N_7  and  C_8
REMARK                            x       y       z     vdW  Elec       q    Type
REMARK                         _______ _______ _______ _____ _____    ______ ____
ROOT
ATOM      1  N   UNL     1       5.225   6.629  15.524  0.00  0.00    +0.000 N 
ATOM      2  C   UNL     1       5.824   6.036  16.616  0.00  0.00    +0.000 A 
ATOM      3  N   UNL     1       7.038   6.438  16.951  0.00  0.00    +0.000 NA
ATOM      4  C   UNL     1       7.559   5.785  17.983  0.00  0.00    +0.000 A 
ATOM      5  N   UNL     1       6.975   4.811  18.674  0.00  0.00    +0.000 NA
ATOM      6  C   UNL     1       5.738   4.524  18.282  0.00  0.00    +0.000 A 
ATOM      7  N   UNL     1       5.088   3.497  18.969  0.00  0.00    +0.000 N 
ATOM      8  N   UNL     1       5.124   5.123  17.263  0.00  0.00    +0.000 NA
ATOM      9  H   UNL     1       5.600   7.552  15.358  0.00  0.00    +0.000 HD
ATOM     10  H   UNL     1       4.222   6.523  15.573  0.00  0.00    +0.000 HD
ATOM     11  H   UNL     1       5.702   3.096  19.663  0.00  0.00    +0.000 HD
ENDROOT
BRANCH   7  12
ATOM     12  C   UNL     1       3.719   3.369  19.256  0.00  0.00    +0.000 A 
ATOM     13  C   UNL     1       3.002   2.309  18.687  0.00  0.00    +0.000 A 
ATOM     14  C   UNL     1       1.632   2.161  18.923  0.00  0.00    +0.000 A 
ATOM     15  C   UNL     1       0.965   3.063  19.749  0.00  0.00    +0.000 A 
ATOM     16  C   UNL     1       1.665   4.115  20.332  0.00  0.00    +0.000 A 
ATOM     17  C   UNL     1       3.030   4.270  20.078  0.00  0.00    +0.000 A 
ENDBRANCH   7  12
TORSDOF 1
ENDMDL
MODEL 2
REMARK VINA RESULT:      -6.9      0.072      1.287
REMARK  Name = 
REMARK  1 active torsions:
REMARK  status: ('A' for Active; 'I' for Inactive)
REMARK    1  A    between atoms: N_7  and  C_8
REMARK                            x       y       z     vdW  Elec       q    Type
REMARK                         _______ _______ _______ _____ _____    ______ ____
ROOT
ATOM      1  N   UNL     1       5.261   6.599  15.455  0.00  0.00    +0.000 N 
ATOM      2  C   UNL     1       5.839   6.021  16.566  0.00  0.00    +0.000 A 
ATOM      3  N   UNL     1       7.035   6.445  16.932  0.00  0.00    +0.000 NA
ATOM      4  C   UNL     1       7.538   5.805  17.982  0.00  0.00    +0.000 A 
ATOM      5  N   UNL     1       6.952   4.825  18.661  0.00  0.00    +0.000 NA
ATOM      6  C   UNL     1       5.731   4.515  18.237  0.00  0.00    +0.000 A 
ATOM      7  N   UNL     1       5.078   3.481  18.911  0.00  0.00    +0.000 N 
ATOM      8  N   UNL     1       5.136   5.100  17.198  0.00  0.00    +0.000 NA
ATOM      9  H   UNL     1       5.624   7.527  15.295  0.00  0.00    +0.000 HD
ATOM     10  H   UNL     1       4.259   6.477  15.476  0.00  0.00    +0.000 HD
ATOM     11  H   UNL     1       5.680   3.094  19.623  0.00  0.00    +0.000 HD
ENDROOT
BRANCH   7  12
ATOM     12  C   UNL     1       3.704   3.332  19.159  0.00  0.00    +0.000 A 
ATOM     13  C   UNL     1       3.073   4.216  20.042  0.00  0.00    +0.000 A 
ATOM     14  C   UNL     1       1.714   4.085  20.340  0.00  0.00    +0.000 A 
ATOM     15  C   UNL     1       0.962   3.077  19.741  0.00  0.00    +0.000 A 
ATOM     16  C   UNL     1       1.571   2.197  18.852  0.00  0.00    +0.000 A 
ATOM     17  C   UNL     1       2.934   2.319  18.571  0.00  0.00    +0.000 A 
ENDBRANCH   7  12
TORSDOF 1
ENDMDL
MODEL 3
REMARK VINA RESULT:      -6.9      1.449      2.252
REMARK  Name = 
REMARK  1 active torsions:
REMARK  status: ('A' for Active; 'I' for Inactive)
REMARK    1  A    between atoms: N_7  and  C_8
REMARK                            x       y       z     vdW  Elec       q    Type
REMARK                         _______ _______ _______ _____ _____    ______ ____
ROOT
ATOM      1  N   UNL     1       7.885   5.072  19.186  0.00  0.00    +0.000 N 
ATOM      2  C   UNL     1       7.071   4.905  18.084  0.00  0.00    +0.000 A 
ATOM      3  N   UNL     1       7.644   4.613  16.930  0.00  0.00    +0.000 NA
ATOM      4  C   UNL     1       6.795   4.515  15.913  0.00  0.00    +0.000 A 
ATOM      5  N   UNL     1       5.477   4.674  15.971  0.00  0.00    +0.000 NA
ATOM      6  C   UNL     1       5.004   4.914  17.190  0.00  0.00    +0.000 A 
ATOM      7  N   UNL     1       3.625   5.102  17.300  0.00  0.00    +0.000 N 
ATOM      8  N   UNL     1       5.770   5.026  18.274  0.00  0.00    +0.000 NA
ATOM      9  H   UNL     1       8.754   4.569  19.077  0.00  0.00    +0.000 HD
ATOM     10  H   UNL     1       7.358   4.934  20.036  0.00  0.00    +0.000 HD
ATOM     11  H   UNL     1       3.192   5.057  16.389  0.00  0.00    +0.000 HD
ENDROOT
BRANCH   7  12
ATOM     12  C   UNL     1       2.780   4.759  18.367  0.00  0.00    +0.000 A 
ATOM     13  C   UNL     1       2.048   3.567  18.298  0.00  0.00    +0.000 A 
ATOM     14  C   UNL     1       1.173   3.202  19.325  0.00  0.00    +0.000 A 
ATOM     15  C   UNL     1       1.035   4.016  20.447  0.00  0.00    +0.000 A 
ATOM     16  C   UNL     1       1.765   5.197  20.537  0.00  0.00    +0.000 A 
ATOM     17  C   UNL     1       2.623   5.569  19.500  0.00  0.00    +0.000 A 
ENDBRANCH   7  12
TORSDOF 1
ENDMDL
MODEL 4
REMARK VINA RESULT:      -6.8      1.368      2.454
REMARK  Name = 
REMARK  1 active torsions:
REMARK  status: ('A' for Active; 'I' for Inactive)
REMARK    1  A    between atoms: N_7  and  C_8
REMARK                            x       y       z     vdW  Elec       q    Type
REMARK                         _______ _______ _______ _____ _____    ______ ____
ROOT
ATOM      1  N   UNL     1       7.619   5.172  19.292  0.00  0.00    +0.000 N 
ATOM      2  C   UNL     1       6.942   4.833  18.139  0.00  0.00    +0.000 A 
ATOM      3  N   UNL     1       7.648   4.641  17.040  0.00  0.00    +0.000 NA
ATOM      4  C   UNL     1       6.915   4.364  15.967  0.00  0.00    +0.000 A 
ATOM      5  N   UNL     1       5.591   4.265  15.923  0.00  0.00    +0.000 NA
ATOM      6  C   UNL     1       4.988   4.427  17.096  0.00  0.00    +0.000 A 
ATOM      7  N   UNL     1       3.594   4.344  17.099  0.00  0.00    +0.000 N 
ATOM      8  N   UNL     1       5.631   4.702  18.229  0.00  0.00    +0.000 NA
ATOM      9  H   UNL     1       8.575   4.847  19.263  0.00  0.00    +0.000 HD
ATOM     10  H   UNL     1       7.064   4.947  20.105  0.00  0.00    +0.000 HD
ATOM     11  H   UNL     1       3.250   4.202  16.160  0.00  0.00    +0.000 HD
ENDROOT
BRANCH   7  12
ATOM     12  C   UNL     1       2.750   3.859  18.111  0.00  0.00    +0.000 A 
ATOM     13  C   UNL     1       2.163   4.768  19.000  0.00  0.00    +0.000 A 
ATOM     14  C   UNL     1       1.340   4.326  20.039  0.00  0.00    +0.000 A 
ATOM     15  C   UNL     1       1.078   2.966  20.191  0.00  0.00    +0.000 A 
ATOM     16  C   UNL     1       1.644   2.050  19.310  0.00  0.00    +0.000 A 
ATOM     17  C   UNL     1       2.481   2.495  18.284  0.00  0.00    +0.000 A 
ENDBRANCH   7  12
TORSDOF 1
ENDMDL
MODEL 5
REMARK VINA RESULT:      -6.7      1.125      1.687
REMARK  Name = 
REMARK  1 active torsions:
REMARK  status: ('A' for Active; 'I' for Inactive)
REMARK    1  A    between atoms: N_7  and  C_8
REMARK                            x       y       z     vdW  Elec       q    Type
REMARK                         _______ _______ _______ _____ _____    ______ ____
ROOT
ATOM      1  N   UNL     1       5.384   4.353  14.794  0.00  0.00    +0.000 N 
ATOM      2  C   UNL     1       5.925   4.409  16.062  0.00  0.00    +0.000 A 
ATOM      3  N   UNL     1       7.148   4.892  16.192  0.00  0.00    +0.000 NA
ATOM      4  C   UNL     1       7.610   4.868  17.437  0.00  0.00    +0.000 A 
ATOM      5  N   UNL     1       6.962   4.422  18.508  0.00  0.00    +0.000 NA
ATOM      6  C   UNL     1       5.722   4.007  18.268  0.00  0.00    +0.000 A 
ATOM      7  N   UNL     1       5.005   3.516  19.361  0.00  0.00    +0.000 N 
ATOM      8  N   UNL     1       5.165   3.996  17.058  0.00  0.00    +0.000 NA
ATOM      9  H   UNL     1       5.808   5.039  14.186  0.00  0.00    +0.000 HD
ATOM     10  H   UNL     1       4.376   4.318  14.843  0.00  0.00    +0.000 HD
ATOM     11  H   UNL     1       5.581   3.524  20.190  0.00  0.00    +0.000 HD
ENDROOT
BRANCH   7  12
ATOM     12  C   UNL     1       3.624   3.598  19.606  0.00  0.00    +0.000 A 
ATOM     13  C   UNL     1       3.088   4.802  20.078  0.00  0.00    +0.000 A 
ATOM     14  C   UNL     1       1.725   4.918  20.363  0.00  0.00    +0.000 A 
ATOM     15  C   UNL     1       0.875   3.833  20.160  0.00  0.00    +0.000 A 
ATOM     16  C   UNL     1       1.389   2.633  19.679  0.00  0.00    +0.000 A 
ATOM     17  C   UNL     1       2.756   2.515  19.414  0.00  0.00    +0.000 A 
ENDBRANCH   7  12
TORSDOF 1
ENDMDL
MODEL 6
REMARK VINA RESULT:      -6.6      1.333      2.492
REMARK  Name = 
REMARK  1 active torsions:
REMARK  status: ('A' for Active; 'I' for Inactive)
REMARK    1  A    between atoms: N_7  and  C_8
REMARK                            x       y       z     vdW  Elec       q    Type
REMARK                         _______ _______ _______ _____ _____    ______ ____
ROOT
ATOM      1  N   UNL     1       7.411   4.300  18.146  0.00  0.00    +0.000 N 
ATOM      2  C   UNL     1       6.375   5.094  17.701  0.00  0.00    +0.000 A 
ATOM      3  N   UNL     1       6.579   5.836  16.627  0.00  0.00    +0.000 NA
ATOM      4  C   UNL     1       5.549   6.604  16.294  0.00  0.00    +0.000 A 
ATOM      5  N   UNL     1       4.382   6.672  16.926  0.00  0.00    +0.000 NA
ATOM      6  C   UNL     1       4.268   5.847  17.962  0.00  0.00    +0.000 A 
ATOM      7  N   UNL     1       3.064   5.892  18.667  0.00  0.00    +0.000 N 
ATOM      8  N   UNL     1       5.240   5.034  18.373  0.00  0.00    +0.000 NA
ATOM      9  H   UNL     1       8.045   4.073  17.394  0.00  0.00    +0.000 HD
ATOM     10  H   UNL     1       7.055   3.544  18.713  0.00  0.00    +0.000 HD
ATOM     11  H   UNL     1       2.458   6.601  18.281  0.00  0.00    +0.000 HD
ENDROOT
BRANCH   7  12
ATOM     12  C   UNL     1       2.396   4.843  19.321  0.00  0.00    +0.000 A 
ATOM     13  C   UNL     1       2.524   4.717  20.709  0.00  0.00    +0.000 A 
ATOM     14  C   UNL     1       1.900   3.672  21.396  0.00  0.00    +0.000 A 
ATOM     15  C   UNL     1       1.121   2.749  20.702  0.00  0.00    +0.000 A 
ATOM     16  C   UNL     1       0.972   2.867  19.324  0.00  0.00    +0.000 A 
ATOM     17  C   UNL     1       1.614   3.902  18.639  0.00  0.00    +0.000 A 
ENDBRANCH   7  12
TORSDOF 1
ENDMDL
MODEL 7
REMARK VINA RESULT:      -6.5      1.380      1.447
REMARK  Name = 
REMARK  1 active torsions:
REMARK  status: ('A' for Active; 'I' for Inactive)
REMARK    1  A    between atoms: N_7  and  C_8
REMARK                            x       y       z     vdW  Elec       q    Type
REMARK                         _______ _______ _______ _____ _____    ______ ____
ROOT
ATOM      1  N   UNL     1       6.699   4.369  14.561  0.00  0.00    +0.000 N 
ATOM      2  C   UNL     1       6.642   4.966  15.803  0.00  0.00    +0.000 A 
ATOM      3  N   UNL     1       7.403   6.025  16.017  0.00  0.00    +0.000 NA
ATOM      4  C   UNL     1       7.322   6.510  17.251  0.00  0.00    +0.000 A 
ATOM      5  N   UNL     1       6.565   6.036  18.234  0.00  0.00    +0.000 NA
ATOM      6  C   UNL     1       5.803   5.001  17.893  0.00  0.00    +0.000 A 
ATOM      7  N   UNL     1       4.998   4.459  18.897  0.00  0.00    +0.000 N 
ATOM      8  N   UNL     1       5.806   4.446  16.682  0.00  0.00    +0.000 NA
ATOM      9  H   UNL     1       6.996   5.026  13.854  0.00  0.00    +0.000 HD
ATOM     10  H   UNL     1       5.861   3.832  14.390  0.00  0.00    +0.000 HD
ATOM     11  H   UNL     1       5.156   4.941  19.770  0.00  0.00    +0.000 HD
ENDROOT
BRANCH   7  12
ATOM     12  C   UNL     1       3.730   3.869  18.775  0.00  0.00    +0.000 A 
ATOM     13  C   UNL     1       3.558   2.538  19.175  0.00  0.00    +0.000 A 
ATOM     14  C   UNL     1       2.320   1.903  19.044  0.00  0.00    +0.000 A 
ATOM     15  C   UNL     1       1.230   2.600  18.529  0.00  0.00    +0.000 A 
ATOM     16  C   UNL     1       1.380   3.927  18.139  0.00  0.00    +0.000 A 
ATOM     17  C   UNL     1       2.623   4.553  18.253  0.00  0.00    +0.000 A 
ENDBRANCH   7  12
TORSDOF 1
ENDMDL
MODEL 8
REMARK VINA RESULT:      -6.5      1.372      1.686
REMARK  Name = 
REMARK  1 active torsions:
REMARK  status: ('A' for Active; 'I' for Inactive)
REMARK    1  A    between atoms: N_7  and  C_8
REMARK                            x       y       z     vdW  Elec       q    Type
REMARK                         _______ _______ _______ _____ _____    ______ ____
ROOT
ATOM      1  N   UNL     1       6.630   4.354  14.497  0.00  0.00    +0.000 N 
ATOM      2  C   UNL     1       6.603   4.925  15.752  0.00  0.00    +0.000 A 
ATOM      3  N   UNL     1       7.376   5.974  15.972  0.00  0.00    +0.000 NA
ATOM      4  C   UNL     1       7.324   6.434  17.216  0.00  0.00    +0.000 A 
ATOM      5  N   UNL     1       6.583   5.945  18.205  0.00  0.00    +0.000 NA
ATOM      6  C   UNL     1       5.807   4.923  17.859  0.00  0.00    +0.000 A 
ATOM      7  N   UNL     1       5.019   4.366  18.867  0.00  0.00    +0.000 N 
ATOM      8  N   UNL     1       5.782   4.392  16.637  0.00  0.00    +0.000 NA
ATOM      9  H   UNL     1       6.918   5.022  13.797  0.00  0.00    +0.000 HD
ATOM     10  H   UNL     1       5.786   3.825  14.333  0.00  0.00    +0.000 HD
ATOM     11  H   UNL     1       5.199   4.829  19.747  0.00  0.00    +0.000 HD
ENDROOT
BRANCH   7  12
ATOM     12  C   UNL     1       3.744   3.787  18.760  0.00  0.00    +0.000 A 
ATOM     13  C   UNL     1       2.689   4.557  18.256  0.00  0.00    +0.000 A 
ATOM     14  C   UNL     1       1.398   4.029  18.159  0.00  0.00    +0.000 A 
ATOM     15  C   UNL     1       1.151   2.714  18.548  0.00  0.00    +0.000 A 
ATOM     16  C   UNL     1       2.192   1.932  19.039  0.00  0.00    +0.000 A 
ATOM     17  C   UNL     1       3.476   2.469  19.152  0.00  0.00    +0.000 A 
ENDBRANCH   7  12
TORSDOF 1
ENDMDL
MODEL 9
REMARK VINA RESULT:      -6.5      1.311      2.202
REMARK  Name = 
REMARK  1 active torsions:
REMARK  status: ('A' for Active; 'I' for Inactive)
REMARK    1  A    between atoms: N_7  and  C_8
REMARK                            x       y       z     vdW  Elec       q    Type
REMARK                         _______ _______ _______ _____ _____    ______ ____
ROOT
ATOM      1  N   UNL     1       7.491   4.324  18.195  0.00  0.00    +0.000 N 
ATOM      2  C   UNL     1       6.448   5.091  17.719  0.00  0.00    +0.000 A 
ATOM      3  N   UNL     1       6.651   5.802  16.624  0.00  0.00    +0.000 NA
ATOM      4  C   UNL     1       5.613   6.546  16.261  0.00  0.00    +0.000 A 
ATOM      5  N   UNL     1       4.441   6.618  16.883  0.00  0.00    +0.000 NA
ATOM      6  C   UNL     1       4.330   5.824  17.943  0.00  0.00    +0.000 A 
ATOM      7  N   UNL     1       3.121   5.874  18.639  0.00  0.00    +0.000 N 
ATOM      8  N   UNL     1       5.310   5.037  18.385  0.00  0.00    +0.000 NA
ATOM      9  H   UNL     1       8.134   4.083  17.455  0.00  0.00    +0.000 HD
ATOM     10  H   UNL     1       7.142   3.582  18.784  0.00  0.00    +0.000 HD
ATOM     11  H   UNL     1       2.509   6.563  18.226  0.00  0.00    +0.000 HD
ENDROOT
BRANCH   7  12
ATOM     12  C   UNL     1       2.462   4.838  19.320  0.00  0.00    +0.000 A 
ATOM     13  C   UNL     1       1.677   3.937  18.591  0.00  0.00    +0.000 A 
ATOM     14  C   UNL     1       0.980   2.909  19.233  0.00  0.00    +0.000 A 
ATOM     15  C   UNL     1       1.078   2.757  20.614  0.00  0.00    +0.000 A 
ATOM     16  C   UNL     1       1.864   3.636  21.352  0.00  0.00    +0.000 A 
ATOM     17  C   UNL     1       2.543   4.674  20.710  0.00  0.00    +0.000 A 
ENDBRANCH   7  12
TORSDOF 1
ENDMDL
