MODEL 1
REMARK VINA RESULT:      -7.6      0.000      0.000
REMARK  Name = 
REMARK  4 active torsions:
REMARK  status: ('A' for Active; 'I' for Inactive)
REMARK    1  A    between atoms: C_1  and  C_2
REMARK    2  A    between atoms: C_2  and  C_3
REMARK    3  A    between atoms: C_8  and  C_9
REMARK    4  A    between atoms: C_17  and  C_18
REMARK                            x       y       z     vdW  Elec       q    Type
REMARK                         _______ _______ _______ _____ _____    ______ ____
ROOT
ATOM      1  C   UNL     1       6.233   4.262  14.189  0.00  0.00    +0.000 C 
ATOM      2  O   UNL     1       5.218   3.759  14.660  0.00  0.00    +0.000 OA
ATOM      3  N   UNL     1       7.029   5.210  14.794  0.00  0.00    +0.000 N 
ATOM      4  C   UNL     1       6.819   5.688  16.083  0.00  0.00    +0.000 A 
ATOM      5  N   UNL     1       5.974   5.054  16.895  0.00  0.00    +0.000 NA
ATOM      6  C   UNL     1       5.746   5.566  18.113  0.00  0.00    +0.000 A 
ATOM      7  C   UNL     1       6.396   6.702  18.537  0.00  0.00    +0.000 A 
ATOM      8  C   UNL     1       7.283   7.295  17.655  0.00  0.00    +0.000 A 
ATOM      9  N   UNL     1       7.509   6.787  16.420  0.00  0.00    +0.000 NA
ATOM     10  H   UNL     1       7.745   5.697  14.280  0.00  0.00    +0.000 HD
ENDROOT
BRANCH   6  11
ATOM     11  C   UNL     1       4.746   4.852  18.928  0.00  0.00    +0.000 A 
ATOM     12  C   UNL     1       4.786   3.448  19.049  0.00  0.00    +0.000 A 
ATOM     13  C   UNL     1       3.833   2.752  19.802  0.00  0.00    +0.000 A 
ATOM     14  C   UNL     1       2.818   3.454  20.443  0.00  0.00    +0.000 A 
ATOM     15 CL   UNL     1       1.635   2.607  21.359  0.00  0.00    +0.000 Cl
ATOM     16  C   UNL     1       2.749   4.840  20.340  0.00  0.00    +0.000 A 
ATOM     17  C   UNL     1       3.704   5.530  19.587  0.00  0.00    +0.000 A 
ENDBRANCH   6  11
BRANCH   8  18
ATOM     18  C   UNL     1       7.981   8.554  17.998  0.00  0.00    +0.000 A 
ATOM     19  C   UNL     1       8.906   8.624  19.060  0.00  0.00    +0.000 A 
ATOM     20  C   UNL     1       9.501   9.834  19.435  0.00  0.00    +0.000 A 
ATOM     21  C   UNL     1       9.191  10.997  18.740  0.00  0.00    +0.000 A 
ATOM     22 CL   UNL     1       9.910  12.488  19.210  0.00  0.00    +0.000 Cl
ATOM     23  C   UNL     1       8.303  10.958  17.671  0.00  0.00    +0.000 A 
ATOM     24  C   UNL     1       7.705   9.747  17.304  0.00  0.00    +0.000 A 
ENDBRANCH   8  18
BRANCH   1  26
ATOM     25  C   UNL     1       5.688   3.055  12.058  0.00  0.00    +0.000 C 
ATOM     26  C   UNL     1       6.733   3.869  12.810  0.00  0.00    +0.000 C 
ENDBRANCH   1  26
TORSDOF 3
ENDMDL
MODEL 2
REMARK VINA RESULT:      -7.4      8.175     10.332
REMARK  Name = 
REMARK  4 active torsions:
REMARK  status: ('A' for Active; 'I' for Inactive)
REMARK    1  A    between atoms: C_1  and  C_2
REMARK    2  A    between atoms: C_2  and  C_3
REMARK    3  A    between atoms: C_8  and  C_9
REMARK    4  A    between atoms: C_17  and  C_18
REMARK                            x       y       z     vdW  Elec       q    Type
REMARK                         _______ _______ _______ _____ _____    ______ ____
ROOT
ATOM      1  C   UNL     1       1.060  14.999  18.836  0.00  0.00    +0.000 C 
ATOM      2  O   UNL     1      -0.126  15.268  18.997  0.00  0.00    +0.000 OA
ATOM      3  N   UNL     1       1.597  13.739  18.684  0.00  0.00    +0.000 N 
ATOM      4  C   UNL     1       0.835  12.576  18.625  0.00  0.00    +0.000 A 
ATOM      5  N   UNL     1      -0.484  12.656  18.457  0.00  0.00    +0.000 NA
ATOM      6  C   UNL     1      -1.203  11.525  18.460  0.00  0.00    +0.000 A 
ATOM      7  C   UNL     1      -0.592  10.299  18.596  0.00  0.00    +0.000 A 
ATOM      8  C   UNL     1       0.784  10.284  18.738  0.00  0.00    +0.000 A 
ATOM      9  N   UNL     1       1.512  11.426  18.746  0.00  0.00    +0.000 NA
ATOM     10  H   UNL     1       2.590  13.585  18.728  0.00  0.00    +0.000 HD
ENDROOT
BRANCH   6  11
ATOM     11  C   UNL     1      -2.663  11.695  18.340  0.00  0.00    +0.000 A 
ATOM     12  C   UNL     1      -3.420  12.187  19.422  0.00  0.00    +0.000 A 
ATOM     13  C   UNL     1      -4.809  12.336  19.333  0.00  0.00    +0.000 A 
ATOM     14  C   UNL     1      -5.463  11.988  18.156  0.00  0.00    +0.000 A 
ATOM     15 CL   UNL     1      -7.171  12.155  18.042  0.00  0.00    +0.000 Cl
ATOM     16  C   UNL     1      -4.744  11.497  17.071  0.00  0.00    +0.000 A 
ATOM     17  C   UNL     1      -3.357  11.351  17.165  0.00  0.00    +0.000 A 
ENDBRANCH   6  11
BRANCH   8  18
ATOM     18  C   UNL     1       1.521   9.019  18.954  0.00  0.00    +0.000 A 
ATOM     19  C   UNL     1       2.275   8.415  17.926  0.00  0.00    +0.000 A 
ATOM     20  C   UNL     1       2.901   7.177  18.108  0.00  0.00    +0.000 A 
ATOM     21  C   UNL     1       2.798   6.527  19.332  0.00  0.00    +0.000 A 
ATOM     22 CL   UNL     1       3.555   4.998  19.551  0.00  0.00    +0.000 Cl
ATOM     23  C   UNL     1       2.084   7.108  20.375  0.00  0.00    +0.000 A 
ATOM     24  C   UNL     1       1.453   8.342  20.186  0.00  0.00    +0.000 A 
ENDBRANCH   8  18
BRANCH   1  26
ATOM     25  C   UNL     1       3.218  15.755  17.804  0.00  0.00    +0.000 C 
ATOM     26  C   UNL     1       2.111  16.093  18.794  0.00  0.00    +0.000 C 
ENDBRANCH   1  26
TORSDOF 3
ENDMDL
MODEL 3
REMARK VINA RESULT:      -7.3      4.635      6.968
REMARK  Name = 
REMARK  4 active torsions:
REMARK  status: ('A' for Active; 'I' for Inactive)
REMARK    1  A    between atoms: C_1  and  C_2
REMARK    2  A    between atoms: C_2  and  C_3
REMARK    3  A    between atoms: C_8  and  C_9
REMARK    4  A    between atoms: C_17  and  C_18
REMARK                            x       y       z     vdW  Elec       q    Type
REMARK                         _______ _______ _______ _____ _____    ______ ____
ROOT
ATOM      1  C   UNL     1       3.097   3.006  20.713  0.00  0.00    +0.000 C 
ATOM      2  O   UNL     1       4.054   2.681  20.016  0.00  0.00    +0.000 OA
ATOM      3  N   UNL     1       2.393   4.187  20.631  0.00  0.00    +0.000 N 
ATOM      4  C   UNL     1       2.637   5.169  19.676  0.00  0.00    +0.000 A 
ATOM      5  N   UNL     1       3.409   4.894  18.625  0.00  0.00    +0.000 NA
ATOM      6  C   UNL     1       3.675   5.872  17.749  0.00  0.00    +0.000 A 
ATOM      7  C   UNL     1       3.136   7.129  17.906  0.00  0.00    +0.000 A 
ATOM      8  C   UNL     1       2.320   7.340  19.003  0.00  0.00    +0.000 A 
ATOM      9  N   UNL     1       2.057   6.357  19.896  0.00  0.00    +0.000 NA
ATOM     10  H   UNL     1       1.734   4.454  21.343  0.00  0.00    +0.000 HD
ENDROOT
BRANCH   6  11
ATOM     11  C   UNL     1       4.593   5.514  16.652  0.00  0.00    +0.000 A 
ATOM     12  C   UNL     1       5.144   6.510  15.820  0.00  0.00    +0.000 A 
ATOM     13  C   UNL     1       6.000   6.186  14.762  0.00  0.00    +0.000 A 
ATOM     14  C   UNL     1       6.313   4.854  14.515  0.00  0.00    +0.000 A 
ATOM     15 CL   UNL     1       7.354   4.445  13.208  0.00  0.00    +0.000 Cl
ATOM     16  C   UNL     1       5.783   3.847  15.315  0.00  0.00    +0.000 A 
ATOM     17  C   UNL     1       4.929   4.176  16.372  0.00  0.00    +0.000 A 
ENDBRANCH   6  11
BRANCH   8  18
ATOM     18  C   UNL     1       1.747   8.674  19.289  0.00  0.00    +0.000 A 
ATOM     19  C   UNL     1       1.104   8.959  20.511  0.00  0.00    +0.000 A 
ATOM     20  C   UNL     1       0.490  10.194  20.746  0.00  0.00    +0.000 A 
ATOM     21  C   UNL     1       0.524  11.177  19.764  0.00  0.00    +0.000 A 
ATOM     22 CL   UNL     1      -0.243  12.691  20.046  0.00  0.00    +0.000 Cl
ATOM     23  C   UNL     1       1.173  10.938  18.557  0.00  0.00    +0.000 A 
ATOM     24  C   UNL     1       1.779   9.699  18.324  0.00  0.00    +0.000 A 
ENDBRANCH   8  18
BRANCH   1  26
ATOM     25  C   UNL     1       1.142   2.438  22.179  0.00  0.00    +0.000 C 
ATOM     26  C   UNL     1       2.573   2.084  21.799  0.00  0.00    +0.000 C 
ENDBRANCH   1  26
TORSDOF 3
ENDMDL
MODEL 4
REMARK VINA RESULT:      -7.3      1.117      6.722
REMARK  Name = 
REMARK  4 active torsions:
REMARK  status: ('A' for Active; 'I' for Inactive)
REMARK    1  A    between atoms: C_1  and  C_2
REMARK    2  A    between atoms: C_2  and  C_3
REMARK    3  A    between atoms: C_8  and  C_9
REMARK    4  A    between atoms: C_17  and  C_18
REMARK                            x       y       z     vdW  Elec       q    Type
REMARK                         _______ _______ _______ _____ _____    ______ ____
ROOT
ATOM      1  C   UNL     1       7.044   4.815  13.817  0.00  0.00    +0.000 C 
ATOM      2  O   UNL     1       7.988   5.565  14.047  0.00  0.00    +0.000 OA
ATOM      3  N   UNL     1       5.998   4.536  14.669  0.00  0.00    +0.000 N 
ATOM      4  C   UNL     1       5.833   5.136  15.913  0.00  0.00    +0.000 A 
ATOM      5  N   UNL     1       6.555   6.209  16.232  0.00  0.00    +0.000 NA
ATOM      6  C   UNL     1       6.418   6.735  17.458  0.00  0.00    +0.000 A 
ATOM      7  C   UNL     1       5.526   6.205  18.361  0.00  0.00    +0.000 A 
ATOM      8  C   UNL     1       4.787   5.107  17.956  0.00  0.00    +0.000 A 
ATOM      9  N   UNL     1       4.929   4.567  16.723  0.00  0.00    +0.000 NA
ATOM     10  H   UNL     1       5.355   3.785  14.480  0.00  0.00    +0.000 HD
ENDROOT
BRANCH   6  11
ATOM     11  C   UNL     1       7.300   7.877  17.764  0.00  0.00    +0.000 A 
ATOM     12  C   UNL     1       8.361   7.741  18.682  0.00  0.00    +0.000 A 
ATOM     13  C   UNL     1       9.195   8.820  18.999  0.00  0.00    +0.000 A 
ATOM     14  C   UNL     1       8.974  10.057  18.404  0.00  0.00    +0.000 A 
ATOM     15 CL   UNL     1       9.985  11.391  18.798  0.00  0.00    +0.000 Cl
ATOM     16  C   UNL     1       7.933  10.225  17.496  0.00  0.00    +0.000 A 
ATOM     17  C   UNL     1       7.104   9.143  17.182  0.00  0.00    +0.000 A 
ENDBRANCH   6  11
BRANCH   8  18
ATOM     18  C   UNL     1       3.849   4.430  18.879  0.00  0.00    +0.000 A 
ATOM     19  C   UNL     1       2.920   5.153  19.655  0.00  0.00    +0.000 A 
ATOM     20  C   UNL     1       2.092   4.519  20.588  0.00  0.00    +0.000 A 
ATOM     21  C   UNL     1       2.169   3.140  20.750  0.00  0.00    +0.000 A 
ATOM     22 CL   UNL     1       1.163   2.361  21.908  0.00  0.00    +0.000 Cl
ATOM     23  C   UNL     1       3.057   2.394  19.982  0.00  0.00    +0.000 A 
ATOM     24  C   UNL     1       3.887   3.034  19.056  0.00  0.00    +0.000 A 
ENDBRANCH   8  18
BRANCH   1  26
ATOM     25  C   UNL     1       5.607   3.346  12.378  0.00  0.00    +0.000 C 
ATOM     26  C   UNL     1       6.938   4.075  12.496  0.00  0.00    +0.000 C 
ENDBRANCH   1  26
TORSDOF 3
ENDMDL
MODEL 5
REMARK VINA RESULT:      -7.2      8.132     10.510
REMARK  Name = 
REMARK  4 active torsions:
REMARK  status: ('A' for Active; 'I' for Inactive)
REMARK    1  A    between atoms: C_1  and  C_2
REMARK    2  A    between atoms: C_2  and  C_3
REMARK    3  A    between atoms: C_8  and  C_9
REMARK    4  A    between atoms: C_17  and  C_18
REMARK                            x       y       z     vdW  Elec       q    Type
REMARK                         _______ _______ _______ _____ _____    ______ ____
ROOT
ATOM      1  C   UNL     1       2.599  14.086  18.559  0.00  0.00    +0.000 C 
ATOM      2  O   UNL     1       3.370  13.156  18.341  0.00  0.00    +0.000 OA
ATOM      3  N   UNL     1       1.238  13.989  18.745  0.00  0.00    +0.000 N 
ATOM      4  C   UNL     1       0.546  12.783  18.776  0.00  0.00    +0.000 A 
ATOM      5  N   UNL     1       1.216  11.636  18.882  0.00  0.00    +0.000 NA
ATOM      6  C   UNL     1       0.531  10.485  18.854  0.00  0.00    +0.000 A 
ATOM      7  C   UNL     1      -0.842  10.480  18.755  0.00  0.00    +0.000 A 
ATOM      8  C   UNL     1      -1.479  11.706  18.678  0.00  0.00    +0.000 A 
ATOM      9  N   UNL     1      -0.790  12.871  18.696  0.00  0.00    +0.000 NA
ATOM     10  H   UNL     1       0.651  14.806  18.749  0.00  0.00    +0.000 HD
ENDROOT
BRANCH   6  11
ATOM     11  C   UNL     1       1.345   9.256  18.904  0.00  0.00    +0.000 A 
ATOM     12  C   UNL     1       2.084   8.837  17.780  0.00  0.00    +0.000 A 
ATOM     13  C   UNL     1       2.845   7.663  17.803  0.00  0.00    +0.000 A 
ATOM     14  C   UNL     1       2.873   6.885  18.955  0.00  0.00    +0.000 A 
ATOM     15 CL   UNL     1       3.795   5.434  18.989  0.00  0.00    +0.000 Cl
ATOM     16  C   UNL     1       2.152   7.269  20.080  0.00  0.00    +0.000 A 
ATOM     17  C   UNL     1       1.393   8.444  20.052  0.00  0.00    +0.000 A 
ENDBRANCH   6  11
BRANCH   8  18
ATOM     18  C   UNL     1      -2.946  11.799  18.505  0.00  0.00    +0.000 A 
ATOM     19  C   UNL     1      -3.577  11.418  17.303  0.00  0.00    +0.000 A 
ATOM     20  C   UNL     1      -4.953  11.586  17.112  0.00  0.00    +0.000 A 
ATOM     21  C   UNL     1      -5.728  12.125  18.132  0.00  0.00    +0.000 A 
ATOM     22 CL   UNL     1      -7.418  12.346  17.894  0.00  0.00    +0.000 Cl
ATOM     23  C   UNL     1      -5.141  12.487  19.340  0.00  0.00    +0.000 A 
ATOM     24  C   UNL     1      -3.764  12.325  19.523  0.00  0.00    +0.000 A 
ENDBRANCH   8  18
BRANCH   1  26
ATOM     25  C   UNL     1       3.202  16.147  17.261  0.00  0.00    +0.000 C 
ATOM     26  C   UNL     1       3.103  15.515  18.643  0.00  0.00    +0.000 C 
ENDBRANCH   1  26
TORSDOF 3
ENDMDL
MODEL 6
REMARK VINA RESULT:      -7.2      8.128     10.516
REMARK  Name = 
REMARK  4 active torsions:
REMARK  status: ('A' for Active; 'I' for Inactive)
REMARK    1  A    between atoms: C_1  and  C_2
REMARK    2  A    between atoms: C_2  and  C_3
REMARK    3  A    between atoms: C_8  and  C_9
REMARK    4  A    between atoms: C_17  and  C_18
REMARK                            x       y       z     vdW  Elec       q    Type
REMARK                         _______ _______ _______ _____ _____    ______ ____
ROOT
ATOM      1  C   UNL     1       2.639  13.984  18.366  0.00  0.00    +0.000 C 
ATOM      2  O   UNL     1       3.393  13.039  18.154  0.00  0.00    +0.000 OA
ATOM      3  N   UNL     1       1.280  13.911  18.581  0.00  0.00    +0.000 N 
ATOM      4  C   UNL     1       0.572  12.716  18.655  0.00  0.00    +0.000 A 
ATOM      5  N   UNL     1       1.229  11.563  18.774  0.00  0.00    +0.000 NA
ATOM      6  C   UNL     1       0.527  10.421  18.787  0.00  0.00    +0.000 A 
ATOM      7  C   UNL     1      -0.847  10.434  18.715  0.00  0.00    +0.000 A 
ATOM      8  C   UNL     1      -1.469  11.667  18.622  0.00  0.00    +0.000 A 
ATOM      9  N   UNL     1      -0.763  12.822  18.599  0.00  0.00    +0.000 NA
ATOM     10  H   UNL     1       0.705  14.737  18.578  0.00  0.00    +0.000 HD
ENDROOT
BRANCH   6  11
ATOM     11  C   UNL     1       1.325   9.182  18.849  0.00  0.00    +0.000 A 
ATOM     12  C   UNL     1       1.348   8.401  20.021  0.00  0.00    +0.000 A 
ATOM     13  C   UNL     1       2.116   7.233  20.104  0.00  0.00    +0.000 A 
ATOM     14  C   UNL     1       2.879   6.833  19.013  0.00  0.00    +0.000 A 
ATOM     15 CL   UNL     1       3.835   5.407  19.111  0.00  0.00    +0.000 Cl
ATOM     16  C   UNL     1       2.879   7.585  17.843  0.00  0.00    +0.000 A 
ATOM     17  C   UNL     1       2.110   8.750  17.764  0.00  0.00    +0.000 A 
ENDBRANCH   6  11
BRANCH   8  18
ATOM     18  C   UNL     1      -2.937  11.777  18.477  0.00  0.00    +0.000 A 
ATOM     19  C   UNL     1      -3.592  11.434  17.276  0.00  0.00    +0.000 A 
ATOM     20  C   UNL     1      -4.969  11.618  17.113  0.00  0.00    +0.000 A 
ATOM     21  C   UNL     1      -5.722  12.137  18.160  0.00  0.00    +0.000 A 
ATOM     22 CL   UNL     1      -7.413  12.378  17.956  0.00  0.00    +0.000 Cl
ATOM     23  C   UNL     1      -5.112  12.461  19.367  0.00  0.00    +0.000 A 
ATOM     24  C   UNL     1      -3.733  12.282  19.522  0.00  0.00    +0.000 A 
ENDBRANCH   8  18
BRANCH   1  26
ATOM     25  C   UNL     1       2.034  16.417  18.252  0.00  0.00    +0.000 C 
ATOM     26  C   UNL     1       3.165  15.408  18.406  0.00  0.00    +0.000 C 
ENDBRANCH   1  26
TORSDOF 3
ENDMDL
MODEL 7
REMARK VINA RESULT:      -7.1      7.956      9.162
REMARK  Name = 
REMARK  4 active torsions:
REMARK  status: ('A' for Active; 'I' for Inactive)
REMARK    1  A    between atoms: C_1  and  C_2
REMARK    2  A    between atoms: C_2  and  C_3
REMARK    3  A    between atoms: C_8  and  C_9
REMARK    4  A    between atoms: C_17  and  C_18
REMARK                            x       y       z     vdW  Elec       q    Type
REMARK                         _______ _______ _______ _____ _____    ______ ____
ROOT
ATOM      1  C   UNL     1      -3.325  10.855  17.410  0.00  0.00    +0.000 C 
ATOM      2  O   UNL     1      -3.037   9.724  17.791  0.00  0.00    +0.000 OA
ATOM      3  N   UNL     1      -2.534  11.977  17.518  0.00  0.00    +0.000 N 
ATOM      4  C   UNL     1      -1.240  11.965  18.027  0.00  0.00    +0.000 A 
ATOM      5  N   UNL     1      -0.607  10.806  18.202  0.00  0.00    +0.000 NA
ATOM      6  C   UNL     1       0.618  10.817  18.747  0.00  0.00    +0.000 A 
ATOM      7  C   UNL     1       1.231  12.001  19.087  0.00  0.00    +0.000 A 
ATOM      8  C   UNL     1       0.531  13.171  18.852  0.00  0.00    +0.000 A 
ATOM      9  N   UNL     1      -0.711  13.164  18.312  0.00  0.00    +0.000 NA
ATOM     10  H   UNL     1      -2.903  12.897  17.339  0.00  0.00    +0.000 HD
ENDROOT
BRANCH   6  11
ATOM     11  C   UNL     1       1.226   9.493  18.976  0.00  0.00    +0.000 A 
ATOM     12  C   UNL     1       1.150   8.876  20.241  0.00  0.00    +0.000 A 
ATOM     13  C   UNL     1       1.739   7.629  20.481  0.00  0.00    +0.000 A 
ATOM     14  C   UNL     1       2.421   6.983  19.456  0.00  0.00    +0.000 A 
ATOM     15 CL   UNL     1       3.160   5.457  19.747  0.00  0.00    +0.000 Cl
ATOM     16  C   UNL     1       2.517   7.567  18.198  0.00  0.00    +0.000 A 
ATOM     17  C   UNL     1       1.926   8.813  17.963  0.00  0.00    +0.000 A 
ENDBRANCH   6  11
BRANCH   8  18
ATOM     18  C   UNL     1       1.082  14.488  19.244  0.00  0.00    +0.000 A 
ATOM     19  C   UNL     1       2.291  14.602  19.961  0.00  0.00    +0.000 A 
ATOM     20  C   UNL     1       2.767  15.842  20.402  0.00  0.00    +0.000 A 
ATOM     21  C   UNL     1       2.047  16.996  20.118  0.00  0.00    +0.000 A 
ATOM     22 CL   UNL     1       2.623  18.519  20.673  0.00  0.00    +0.000 Cl
ATOM     23  C   UNL     1       0.864  16.921  19.390  0.00  0.00    +0.000 A 
ATOM     24  C   UNL     1       0.388  15.678  18.957  0.00  0.00    +0.000 A 
ENDBRANCH   8  18
BRANCH   1  26
ATOM     25  C   UNL     1      -5.748  11.384  17.791  0.00  0.00    +0.000 C 
ATOM     26  C   UNL     1      -4.663  11.140  16.751  0.00  0.00    +0.000 C 
ENDBRANCH   1  26
TORSDOF 3
ENDMDL
MODEL 8
REMARK VINA RESULT:      -7.1      8.538      9.885
REMARK  Name = 
REMARK  4 active torsions:
REMARK  status: ('A' for Active; 'I' for Inactive)
REMARK    1  A    between atoms: C_1  and  C_2
REMARK    2  A    between atoms: C_2  and  C_3
REMARK    3  A    between atoms: C_8  and  C_9
REMARK    4  A    between atoms: C_17  and  C_18
REMARK                            x       y       z     vdW  Elec       q    Type
REMARK                         _______ _______ _______ _____ _____    ______ ____
ROOT
ATOM      1  C   UNL     1      -2.679  10.634  16.337  0.00  0.00    +0.000 C 
ATOM      2  O   UNL     1      -2.100   9.555  16.255  0.00  0.00    +0.000 OA
ATOM      3  N   UNL     1      -2.594  11.528  17.382  0.00  0.00    +0.000 N 
ATOM      4  C   UNL     1      -1.766  11.351  18.485  0.00  0.00    +0.000 A 
ATOM      5  N   UNL     1      -0.816  10.417  18.458  0.00  0.00    +0.000 NA
ATOM      6  C   UNL     1      -0.068  10.228  19.554  0.00  0.00    +0.000 A 
ATOM      7  C   UNL     1      -0.248  11.004  20.677  0.00  0.00    +0.000 A 
ATOM      8  C   UNL     1      -1.232  11.975  20.629  0.00  0.00    +0.000 A 
ATOM      9  N   UNL     1      -1.996  12.163  19.527  0.00  0.00    +0.000 NA
ATOM     10  H   UNL     1      -3.225  12.308  17.455  0.00  0.00    +0.000 HD
ENDROOT
BRANCH   6  11
ATOM     11  C   UNL     1       0.914   9.131  19.475  0.00  0.00    +0.000 A 
ATOM     12  C   UNL     1       1.631   8.892  18.286  0.00  0.00    +0.000 A 
ATOM     13  C   UNL     1       2.552   7.842  18.187  0.00  0.00    +0.000 A 
ATOM     14  C   UNL     1       2.765   7.010  19.280  0.00  0.00    +0.000 A 
ATOM     15 CL   UNL     1       3.885   5.710  19.163  0.00  0.00    +0.000 Cl
ATOM     16  C   UNL     1       2.071   7.218  20.467  0.00  0.00    +0.000 A 
ATOM     17  C   UNL     1       1.152   8.268  20.561  0.00  0.00    +0.000 A 
ENDBRANCH   6  11
BRANCH   8  18
ATOM     18  C   UNL     1      -1.541  12.815  21.808  0.00  0.00    +0.000 A 
ATOM     19  C   UNL     1      -0.658  13.820  22.254  0.00  0.00    +0.000 A 
ATOM     20  C   UNL     1      -0.913  14.555  23.417  0.00  0.00    +0.000 A 
ATOM     21  C   UNL     1      -2.069  14.308  24.148  0.00  0.00    +0.000 A 
ATOM     22 CL   UNL     1      -2.375  15.201  25.586  0.00  0.00    +0.000 Cl
ATOM     23  C   UNL     1      -2.973  13.341  23.721  0.00  0.00    +0.000 A 
ATOM     24  C   UNL     1      -2.710  12.603  22.561  0.00  0.00    +0.000 A 
ENDBRANCH   8  18
BRANCH   1  26
ATOM     25  C   UNL     1      -3.704  10.077  14.116  0.00  0.00    +0.000 C 
ATOM     26  C   UNL     1      -3.602  11.111  15.230  0.00  0.00    +0.000 C 
ENDBRANCH   1  26
TORSDOF 3
ENDMDL
MODEL 9
REMARK VINA RESULT:      -7.1      4.388      6.898
REMARK  Name = 
REMARK  4 active torsions:
REMARK  status: ('A' for Active; 'I' for Inactive)
REMARK    1  A    between atoms: C_1  and  C_2
REMARK    2  A    between atoms: C_2  and  C_3
REMARK    3  A    between atoms: C_8  and  C_9
REMARK    4  A    between atoms: C_17  and  C_18
REMARK                            x       y       z     vdW  Elec       q    Type
REMARK                         _______ _______ _______ _____ _____    ______ ____
ROOT
ATOM      1  C   UNL     1       3.327   3.053  20.517  0.00  0.00    +0.000 C 
ATOM      2  O   UNL     1       4.333   2.769  19.874  0.00  0.00    +0.000 OA
ATOM      3  N   UNL     1       2.582   4.206  20.395  0.00  0.00    +0.000 N 
ATOM      4  C   UNL     1       2.839   5.198  19.456  0.00  0.00    +0.000 A 
ATOM      5  N   UNL     1       3.677   4.956  18.449  0.00  0.00    +0.000 NA
ATOM      6  C   UNL     1       3.952   5.945  17.588  0.00  0.00    +0.000 A 
ATOM      7  C   UNL     1       3.356   7.179  17.714  0.00  0.00    +0.000 A 
ATOM      8  C   UNL     1       2.472   7.356  18.764  0.00  0.00    +0.000 A 
ATOM      9  N   UNL     1       2.200   6.361  19.642  0.00  0.00    +0.000 NA
ATOM     10  H   UNL     1       1.874   4.444  21.070  0.00  0.00    +0.000 HD
ENDROOT
BRANCH   6  11
ATOM     11  C   UNL     1       4.943   5.626  16.543  0.00  0.00    +0.000 A 
ATOM     12  C   UNL     1       6.181   6.297  16.496  0.00  0.00    +0.000 A 
ATOM     13  C   UNL     1       7.124   6.020  15.499  0.00  0.00    +0.000 A 
ATOM     14  C   UNL     1       6.837   5.068  14.527  0.00  0.00    +0.000 A 
ATOM     15 CL   UNL     1       7.984   4.732  13.291  0.00  0.00    +0.000 Cl
ATOM     16  C   UNL     1       5.623   4.391  14.544  0.00  0.00    +0.000 A 
ATOM     17  C   UNL     1       4.684   4.670  15.543  0.00  0.00    +0.000 A 
ENDBRANCH   6  11
BRANCH   8  18
ATOM     18  C   UNL     1       1.832   8.665  19.017  0.00  0.00    +0.000 A 
ATOM     19  C   UNL     1       1.925   9.728  18.094  0.00  0.00    +0.000 A 
ATOM     20  C   UNL     1       1.390  10.990  18.372  0.00  0.00    +0.000 A 
ATOM     21  C   UNL     1       0.734  11.208  19.578  0.00  0.00    +0.000 A 
ATOM     22 CL   UNL     1       0.089  12.764  19.928  0.00  0.00    +0.000 Cl
ATOM     23  C   UNL     1       0.601  10.175  20.499  0.00  0.00    +0.000 A 
ATOM     24  C   UNL     1       1.144   8.916  20.219  0.00  0.00    +0.000 A 
ENDBRANCH   8  18
BRANCH   1  26
ATOM     25  C   UNL     1       1.345   2.460  21.937  0.00  0.00    +0.000 C 
ATOM     26  C   UNL     1       2.782   2.109  21.573  0.00  0.00    +0.000 C 
ENDBRANCH   1  26
TORSDOF 3
ENDMDL
