MODEL 1
REMARK VINA RESULT:      -7.7      0.000      0.000
REMARK  Name = 
REMARK  6 active torsions:
REMARK  status: ('A' for Active; 'I' for Inactive)
REMARK    1  A    between atoms: C_1  and  O_2
REMARK    2  A    between atoms: O_2  and  C_3
REMARK    3  A    between atoms: C_14  and  N_15
REMARK    4  A    between atoms: N_15  and  C_16
REMARK    5  A    between atoms: C_16  and  C_17
REMARK    6  A    between atoms: C_17  and  C_18
REMARK                            x       y       z     vdW  Elec       q    Type
REMARK                         _______ _______ _______ _____ _____    ______ ____
ROOT
ATOM      1  C   UNL     1       5.414   5.307  17.193  0.00  0.00    +0.000 A 
ATOM      2  C   UNL     1       5.303   6.235  16.167  0.00  0.00    +0.000 A 
ATOM      3  C   UNL     1       4.373   7.263  16.280  0.00  0.00    +0.000 A 
ATOM      4  C   UNL     1       3.553   7.397  17.387  0.00  0.00    +0.000 A 
ATOM      5  N   UNL     1       2.728   8.439  17.369  0.00  0.00    +0.000 NA
ATOM      6  C   UNL     1       1.953   8.687  18.420  0.00  0.00    +0.000 A 
ATOM      7  C   UNL     1       1.156   9.821  18.311  0.00  0.00    +0.000 A 
ATOM      8  C   UNL     1       0.316  10.247  19.333  0.00  0.00    +0.000 A 
ATOM      9  C   UNL     1       0.297   9.539  20.514  0.00  0.00    +0.000 A 
ATOM     10  C   UNL     1       1.099   8.403  20.639  0.00  0.00    +0.000 A 
ATOM     11  C   UNL     1       1.923   7.893  19.586  0.00  0.00    +0.000 A 
ATOM     12  C   UNL     1       2.737   6.691  19.568  0.00  0.00    +0.000 A 
ATOM     13  C   UNL     1       3.622   6.474  18.448  0.00  0.00    +0.000 A 
ATOM     14  C   UNL     1       4.558   5.407  18.306  0.00  0.00    +0.000 A 
ENDROOT
BRANCH   1  16
ATOM     15  C   UNL     1       7.621   4.564  17.639  0.00  0.00    +0.000 C 
ATOM     16  O   UNL     1       6.296   4.259  17.197  0.00  0.00    +0.000 OA
ENDBRANCH   1  16
BRANCH  12  17
ATOM     17  N   UNL     1       2.771   5.708  20.617  0.00  0.00    +0.000 N 
ATOM     18  H   UNL     1       3.167   6.150  21.449  0.00  0.00    +0.000 HD
BRANCH  17  19
ATOM     19  C   UNL     1       1.550   4.958  20.934  0.00  0.00    +0.000 C 
BRANCH  19  20
ATOM     20  C   UNL     1       1.717   3.441  21.065  0.00  0.00    +0.000 C 
BRANCH  20  21
ATOM     21  C   UNL     1       2.288   2.891  19.771  0.00  0.00    +0.000 A 
ATOM     22  C   UNL     1       1.693   2.850  18.522  0.00  0.00    +0.000 A 
ATOM     23  C   UNL     1       2.506   2.204  17.547  0.00  0.00    +0.000 A 
ATOM     24  C   UNL     1       3.697   1.761  18.080  0.00  0.00    +0.000 A 
ATOM     25  S   UNL     1       3.826   2.130  19.747  0.00  0.00    +0.000 S 
ENDBRANCH  20  21
ENDBRANCH  19  20
ENDBRANCH  17  19
ENDBRANCH  12  17
TORSDOF 5
ENDMDL
MODEL 2
REMARK VINA RESULT:      -7.6      2.540      5.857
REMARK  Name = 
REMARK  6 active torsions:
REMARK  status: ('A' for Active; 'I' for Inactive)
REMARK    1  A    between atoms: C_1  and  O_2
REMARK    2  A    between atoms: O_2  and  C_3
REMARK    3  A    between atoms: C_14  and  N_15
REMARK    4  A    between atoms: N_15  and  C_16
REMARK    5  A    between atoms: C_16  and  C_17
REMARK    6  A    between atoms: C_17  and  C_18
REMARK                            x       y       z     vdW  Elec       q    Type
REMARK                         _______ _______ _______ _____ _____    ______ ____
ROOT
ATOM      1  C   UNL     1       7.135   6.928  17.571  0.00  0.00    +0.000 A 
ATOM      2  C   UNL     1       7.786   5.830  18.119  0.00  0.00    +0.000 A 
ATOM      3  C   UNL     1       7.032   4.760  18.587  0.00  0.00    +0.000 A 
ATOM      4  C   UNL     1       5.648   4.747  18.521  0.00  0.00    +0.000 A 
ATOM      5  N   UNL     1       5.061   3.649  18.985  0.00  0.00    +0.000 NA
ATOM      6  C   UNL     1       3.741   3.518  18.899  0.00  0.00    +0.000 A 
ATOM      7  C   UNL     1       3.234   2.318  19.380  0.00  0.00    +0.000 A 
ATOM      8  C   UNL     1       1.881   2.002  19.330  0.00  0.00    +0.000 A 
ATOM      9  C   UNL     1       1.013   2.898  18.749  0.00  0.00    +0.000 A 
ATOM     10  C   UNL     1       1.511   4.104  18.253  0.00  0.00    +0.000 A 
ATOM     11  C   UNL     1       2.884   4.496  18.350  0.00  0.00    +0.000 A 
ATOM     12  C   UNL     1       3.506   5.743  17.944  0.00  0.00    +0.000 A 
ATOM     13  C   UNL     1       4.945   5.842  17.983  0.00  0.00    +0.000 A 
ATOM     14  C   UNL     1       5.728   6.946  17.534  0.00  0.00    +0.000 A 
ENDROOT
BRANCH   1  16
ATOM     15  C   UNL     1       8.212   8.987  18.042  0.00  0.00    +0.000 C 
ATOM     16  O   UNL     1       7.771   8.034  17.072  0.00  0.00    +0.000 OA
ENDBRANCH   1  16
BRANCH  12  17
ATOM     17  N   UNL     1       2.793   6.892  17.451  0.00  0.00    +0.000 N 
ATOM     18  H   UNL     1       2.110   6.566  16.765  0.00  0.00    +0.000 HD
BRANCH  17  19
ATOM     19  C   UNL     1       2.193   7.826  18.409  0.00  0.00    +0.000 C 
BRANCH  19  20
ATOM     20  C   UNL     1       1.844   9.213  17.857  0.00  0.00    +0.000 C 
BRANCH  20  21
ATOM     21  C   UNL     1       0.703   9.797  18.668  0.00  0.00    +0.000 A 
ATOM     22  C   UNL     1      -0.462  10.384  18.207  0.00  0.00    +0.000 A 
ATOM     23  C   UNL     1      -1.283  10.877  19.262  0.00  0.00    +0.000 A 
ATOM     24  C   UNL     1      -0.720  10.659  20.499  0.00  0.00    +0.000 A 
ATOM     25  S   UNL     1       0.791   9.862  20.381  0.00  0.00    +0.000 S 
ENDBRANCH  20  21
ENDBRANCH  19  20
ENDBRANCH  17  19
ENDBRANCH  12  17
TORSDOF 5
ENDMDL
MODEL 3
REMARK VINA RESULT:      -7.6      4.095      5.412
REMARK  Name = 
REMARK  6 active torsions:
REMARK  status: ('A' for Active; 'I' for Inactive)
REMARK    1  A    between atoms: C_1  and  O_2
REMARK    2  A    between atoms: O_2  and  C_3
REMARK    3  A    between atoms: C_14  and  N_15
REMARK    4  A    between atoms: N_15  and  C_16
REMARK    5  A    between atoms: C_16  and  C_17
REMARK    6  A    between atoms: C_17  and  C_18
REMARK                            x       y       z     vdW  Elec       q    Type
REMARK                         _______ _______ _______ _____ _____    ______ ____
ROOT
ATOM      1  C   UNL     1       6.050   3.305  12.411  0.00  0.00    +0.000 A 
ATOM      2  C   UNL     1       7.008   4.273  12.140  0.00  0.00    +0.000 A 
ATOM      3  C   UNL     1       7.468   5.079  13.176  0.00  0.00    +0.000 A 
ATOM      4  C   UNL     1       7.008   4.946  14.475  0.00  0.00    +0.000 A 
ATOM      5  N   UNL     1       7.553   5.767  15.366  0.00  0.00    +0.000 NA
ATOM      6  C   UNL     1       7.224   5.665  16.649  0.00  0.00    +0.000 A 
ATOM      7  C   UNL     1       7.879   6.548  17.500  0.00  0.00    +0.000 A 
ATOM      8  C   UNL     1       7.681   6.549  18.875  0.00  0.00    +0.000 A 
ATOM      9  C   UNL     1       6.829   5.617  19.423  0.00  0.00    +0.000 A 
ATOM     10  C   UNL     1       6.171   4.719  18.581  0.00  0.00    +0.000 A 
ATOM     11  C   UNL     1       6.294   4.732  17.155  0.00  0.00    +0.000 A 
ATOM     12  C   UNL     1       5.611   3.907  16.175  0.00  0.00    +0.000 A 
ATOM     13  C   UNL     1       6.029   3.985  14.796  0.00  0.00    +0.000 A 
ATOM     14  C   UNL     1       5.543   3.186  13.719  0.00  0.00    +0.000 A 
ENDROOT
BRANCH   1  16
ATOM     15  C   UNL     1       6.294   1.271  11.216  0.00  0.00    +0.000 C 
ATOM     16  O   UNL     1       5.528   2.451  11.476  0.00  0.00    +0.000 OA
ENDBRANCH   1  16
BRANCH  12  17
ATOM     17  N   UNL     1       4.567   2.966  16.480  0.00  0.00    +0.000 N 
ATOM     18  H   UNL     1       4.982   2.197  17.009  0.00  0.00    +0.000 HD
BRANCH  17  19
ATOM     19  C   UNL     1       3.331   3.448  17.107  0.00  0.00    +0.000 C 
BRANCH  19  20
ATOM     20  C   UNL     1       2.386   2.363  17.635  0.00  0.00    +0.000 C 
BRANCH  20  21
ATOM     21  C   UNL     1       2.173   2.571  19.123  0.00  0.00    +0.000 A 
ATOM     22  C   UNL     1       0.988   2.821  19.791  0.00  0.00    +0.000 A 
ATOM     23  C   UNL     1       1.178   3.023  21.189  0.00  0.00    +0.000 A 
ATOM     24  C   UNL     1       2.504   2.929  21.548  0.00  0.00    +0.000 A 
ATOM     25  S   UNL     1       3.508   2.596  20.202  0.00  0.00    +0.000 S 
ENDBRANCH  20  21
ENDBRANCH  19  20
ENDBRANCH  17  19
ENDBRANCH  12  17
TORSDOF 5
ENDMDL
MODEL 4
REMARK VINA RESULT:      -7.5      2.479      5.625
REMARK  Name = 
REMARK  6 active torsions:
REMARK  status: ('A' for Active; 'I' for Inactive)
REMARK    1  A    between atoms: C_1  and  O_2
REMARK    2  A    between atoms: O_2  and  C_3
REMARK    3  A    between atoms: C_14  and  N_15
REMARK    4  A    between atoms: N_15  and  C_16
REMARK    5  A    between atoms: C_16  and  C_17
REMARK    6  A    between atoms: C_17  and  C_18
REMARK                            x       y       z     vdW  Elec       q    Type
REMARK                         _______ _______ _______ _____ _____    ______ ____
ROOT
ATOM      1  C   UNL     1       6.799   6.115  16.743  0.00  0.00    +0.000 A 
ATOM      2  C   UNL     1       6.901   4.920  16.044  0.00  0.00    +0.000 A 
ATOM      3  C   UNL     1       5.964   3.918  16.273  0.00  0.00    +0.000 A 
ATOM      4  C   UNL     1       4.924   4.073  17.175  0.00  0.00    +0.000 A 
ATOM      5  N   UNL     1       4.092   3.042  17.275  0.00  0.00    +0.000 NA
ATOM      6  C   UNL     1       3.026   3.127  18.064  0.00  0.00    +0.000 A 
ATOM      7  C   UNL     1       2.202   2.008  18.067  0.00  0.00    +0.000 A 
ATOM      8  C   UNL     1       1.026   1.944  18.804  0.00  0.00    +0.000 A 
ATOM      9  C   UNL     1       0.642   3.047  19.534  0.00  0.00    +0.000 A 
ATOM     10  C   UNL     1       1.455   4.181  19.533  0.00  0.00    +0.000 A 
ATOM     11  C   UNL     1       2.708   4.259  18.844  0.00  0.00    +0.000 A 
ATOM     12  C   UNL     1       3.670   5.345  18.826  0.00  0.00    +0.000 A 
ATOM     13  C   UNL     1       4.786   5.263  17.915  0.00  0.00    +0.000 A 
ATOM     14  C   UNL     1       5.771   6.271  17.693  0.00  0.00    +0.000 A 
ENDROOT
BRANCH   1  16
ATOM     15  C   UNL     1       7.841   7.990  17.755  0.00  0.00    +0.000 C 
ATOM     16  O   UNL     1       7.656   7.173  16.596  0.00  0.00    +0.000 OA
ENDBRANCH   1  16
BRANCH  12  17
ATOM     17  N   UNL     1       3.574   6.539  19.623  0.00  0.00    +0.000 N 
ATOM     18  H   UNL     1       4.414   7.097  19.455  0.00  0.00    +0.000 HD
BRANCH  17  19
ATOM     19  C   UNL     1       2.358   7.355  19.543  0.00  0.00    +0.000 C 
BRANCH  19  20
ATOM     20  C   UNL     1       2.176   8.154  18.248  0.00  0.00    +0.000 C 
BRANCH  20  21
ATOM     21  C   UNL     1       1.695   9.552  18.591  0.00  0.00    +0.000 A 
ATOM     22  C   UNL     1       2.088  10.754  18.028  0.00  0.00    +0.000 A 
ATOM     23  C   UNL     1       1.465  11.878  18.645  0.00  0.00    +0.000 A 
ATOM     24  C   UNL     1       0.621  11.504  19.667  0.00  0.00    +0.000 A 
ATOM     25  S   UNL     1       0.583   9.805  19.874  0.00  0.00    +0.000 S 
ENDBRANCH  20  21
ENDBRANCH  19  20
ENDBRANCH  17  19
ENDBRANCH  12  17
TORSDOF 5
ENDMDL
MODEL 5
REMARK VINA RESULT:      -7.4      2.457      5.558
REMARK  Name = 
REMARK  6 active torsions:
REMARK  status: ('A' for Active; 'I' for Inactive)
REMARK    1  A    between atoms: C_1  and  O_2
REMARK    2  A    between atoms: O_2  and  C_3
REMARK    3  A    between atoms: C_14  and  N_15
REMARK    4  A    between atoms: N_15  and  C_16
REMARK    5  A    between atoms: C_16  and  C_17
REMARK    6  A    between atoms: C_17  and  C_18
REMARK                            x       y       z     vdW  Elec       q    Type
REMARK                         _______ _______ _______ _____ _____    ______ ____
ROOT
ATOM      1  C   UNL     1       6.727   6.228  16.795  0.00  0.00    +0.000 A 
ATOM      2  C   UNL     1       6.859   5.033  16.101  0.00  0.00    +0.000 A 
ATOM      3  C   UNL     1       5.942   4.013  16.328  0.00  0.00    +0.000 A 
ATOM      4  C   UNL     1       4.894   4.149  17.224  0.00  0.00    +0.000 A 
ATOM      5  N   UNL     1       4.082   3.102  17.322  0.00  0.00    +0.000 NA
ATOM      6  C   UNL     1       3.010   3.167  18.104  0.00  0.00    +0.000 A 
ATOM      7  C   UNL     1       2.210   2.030  18.107  0.00  0.00    +0.000 A 
ATOM      8  C   UNL     1       1.031   1.945  18.838  0.00  0.00    +0.000 A 
ATOM      9  C   UNL     1       0.620   3.041  19.562  0.00  0.00    +0.000 A 
ATOM     10  C   UNL     1       1.409   4.193  19.561  0.00  0.00    +0.000 A 
ATOM     11  C   UNL     1       2.664   4.295  18.879  0.00  0.00    +0.000 A 
ATOM     12  C   UNL     1       3.604   5.400  18.863  0.00  0.00    +0.000 A 
ATOM     13  C   UNL     1       4.726   5.339  17.958  0.00  0.00    +0.000 A 
ATOM     14  C   UNL     1       5.692   6.366  17.738  0.00  0.00    +0.000 A 
ENDROOT
BRANCH   1  16
ATOM     15  C   UNL     1       7.813   8.063  17.835  0.00  0.00    +0.000 C 
ATOM     16  O   UNL     1       7.564   7.304  16.649  0.00  0.00    +0.000 OA
ENDBRANCH   1  16
BRANCH  12  17
ATOM     17  N   UNL     1       3.478   6.595  19.655  0.00  0.00    +0.000 N 
ATOM     18  H   UNL     1       4.382   7.071  19.650  0.00  0.00    +0.000 HD
BRANCH  17  19
ATOM     19  C   UNL     1       2.376   7.523  19.379  0.00  0.00    +0.000 C 
BRANCH  19  20
ATOM     20  C   UNL     1       1.564   7.974  20.598  0.00  0.00    +0.000 C 
BRANCH  20  21
ATOM     21  C   UNL     1       0.825   9.254  20.256  0.00  0.00    +0.000 A 
ATOM     22  C   UNL     1      -0.049   9.975  21.049  0.00  0.00    +0.000 A 
ATOM     23  C   UNL     1      -0.604  11.100  20.373  0.00  0.00    +0.000 A 
ATOM     24  C   UNL     1      -0.145  11.202  19.079  0.00  0.00    +0.000 A 
ATOM     25  S   UNL     1       0.952   9.946  18.690  0.00  0.00    +0.000 S 
ENDBRANCH  20  21
ENDBRANCH  19  20
ENDBRANCH  17  19
ENDBRANCH  12  17
TORSDOF 5
ENDMDL
MODEL 6
REMARK VINA RESULT:      -7.4      2.523      5.571
REMARK  Name = 
REMARK  6 active torsions:
REMARK  status: ('A' for Active; 'I' for Inactive)
REMARK    1  A    between atoms: C_1  and  O_2
REMARK    2  A    between atoms: O_2  and  C_3
REMARK    3  A    between atoms: C_14  and  N_15
REMARK    4  A    between atoms: N_15  and  C_16
REMARK    5  A    between atoms: C_16  and  C_17
REMARK    6  A    between atoms: C_17  and  C_18
REMARK                            x       y       z     vdW  Elec       q    Type
REMARK                         _______ _______ _______ _____ _____    ______ ____
ROOT
ATOM      1  C   UNL     1       7.202   6.941  17.604  0.00  0.00    +0.000 A 
ATOM      2  C   UNL     1       7.827   5.870  18.229  0.00  0.00    +0.000 A 
ATOM      3  C   UNL     1       7.052   4.823  18.715  0.00  0.00    +0.000 A 
ATOM      4  C   UNL     1       5.672   4.808  18.594  0.00  0.00    +0.000 A 
ATOM      5  N   UNL     1       5.064   3.733  19.084  0.00  0.00    +0.000 NA
ATOM      6  C   UNL     1       3.749   3.599  18.951  0.00  0.00    +0.000 A 
ATOM      7  C   UNL     1       3.219   2.422  19.467  0.00  0.00    +0.000 A 
ATOM      8  C   UNL     1       1.869   2.105  19.377  0.00  0.00    +0.000 A 
ATOM      9  C   UNL     1       1.027   2.974  18.721  0.00  0.00    +0.000 A 
ATOM     10  C   UNL     1       1.547   4.156  18.190  0.00  0.00    +0.000 A 
ATOM     11  C   UNL     1       2.917   4.551  18.324  0.00  0.00    +0.000 A 
ATOM     12  C   UNL     1       3.557   5.778  17.886  0.00  0.00    +0.000 A 
ATOM     13  C   UNL     1       4.994   5.877  17.978  0.00  0.00    +0.000 A 
ATOM     14  C   UNL     1       5.798   6.959  17.511  0.00  0.00    +0.000 A 
ENDROOT
BRANCH   1  16
ATOM     15  C   UNL     1       8.138   9.084  17.997  0.00  0.00    +0.000 C 
ATOM     16  O   UNL     1       7.860   8.022  17.081  0.00  0.00    +0.000 OA
ENDBRANCH   1  16
BRANCH  12  17
ATOM     17  N   UNL     1       2.868   6.902  17.312  0.00  0.00    +0.000 N 
ATOM     18  H   UNL     1       2.308   6.561  16.529  0.00  0.00    +0.000 HD
BRANCH  17  19
ATOM     19  C   UNL     1       2.091   7.787  18.187  0.00  0.00    +0.000 C 
BRANCH  19  20
ATOM     20  C   UNL     1       2.229   7.525  19.691  0.00  0.00    +0.000 C 
BRANCH  20  21
ATOM     21  C   UNL     1       1.404   8.548  20.450  0.00  0.00    +0.000 A 
ATOM     22  C   UNL     1       1.040   8.533  21.785  0.00  0.00    +0.000 A 
ATOM     23  C   UNL     1       0.207   9.633  22.139  0.00  0.00    +0.000 A 
ATOM     24  C   UNL     1      -0.049  10.454  21.064  0.00  0.00    +0.000 A 
ATOM     25  S   UNL     1       0.717   9.895  19.638  0.00  0.00    +0.000 S 
ENDBRANCH  20  21
ENDBRANCH  19  20
ENDBRANCH  17  19
ENDBRANCH  12  17
TORSDOF 5
ENDMDL
MODEL 7
REMARK VINA RESULT:      -7.3      2.030      4.667
REMARK  Name = 
REMARK  6 active torsions:
REMARK  status: ('A' for Active; 'I' for Inactive)
REMARK    1  A    between atoms: C_1  and  O_2
REMARK    2  A    between atoms: O_2  and  C_3
REMARK    3  A    between atoms: C_14  and  N_15
REMARK    4  A    between atoms: N_15  and  C_16
REMARK    5  A    between atoms: C_16  and  C_17
REMARK    6  A    between atoms: C_17  and  C_18
REMARK                            x       y       z     vdW  Elec       q    Type
REMARK                         _______ _______ _______ _____ _____    ______ ____
ROOT
ATOM      1  C   UNL     1       0.708   9.414  19.897  0.00  0.00    +0.000 A 
ATOM      2  C   UNL     1       0.960  10.157  18.751  0.00  0.00    +0.000 A 
ATOM      3  C   UNL     1       1.888   9.686  17.829  0.00  0.00    +0.000 A 
ATOM      4  C   UNL     1       2.569   8.494  18.010  0.00  0.00    +0.000 A 
ATOM      5  N   UNL     1       3.408   8.157  17.037  0.00  0.00    +0.000 NA
ATOM      6  C   UNL     1       4.054   6.997  17.091  0.00  0.00    +0.000 A 
ATOM      7  C   UNL     1       4.878   6.727  16.005  0.00  0.00    +0.000 A 
ATOM      8  C   UNL     1       5.594   5.542  15.884  0.00  0.00    +0.000 A 
ATOM      9  C   UNL     1       5.456   4.581  16.860  0.00  0.00    +0.000 A 
ATOM     10  C   UNL     1       4.624   4.836  17.952  0.00  0.00    +0.000 A 
ATOM     11  C   UNL     1       3.926   6.070  18.148  0.00  0.00    +0.000 A 
ATOM     12  C   UNL     1       3.099   6.480  19.268  0.00  0.00    +0.000 A 
ATOM     13  C   UNL     1       2.354   7.712  19.161  0.00  0.00    +0.000 A 
ATOM     14  C   UNL     1       1.423   8.221  20.114  0.00  0.00    +0.000 A 
ENDROOT
BRANCH   1  16
ATOM     15  C   UNL     1      -0.361   8.831  21.931  0.00  0.00    +0.000 C 
ATOM     16  O   UNL     1      -0.187   9.773  20.869  0.00  0.00    +0.000 OA
ENDBRANCH   1  16
BRANCH  12  17
ATOM     17  N   UNL     1       2.920   5.720  20.476  0.00  0.00    +0.000 N 
ATOM     18  H   UNL     1       3.275   6.279  21.254  0.00  0.00    +0.000 HD
BRANCH  17  19
ATOM     19  C   UNL     1       1.600   5.154  20.776  0.00  0.00    +0.000 C 
BRANCH  19  20
ATOM     20  C   UNL     1       1.573   3.651  21.073  0.00  0.00    +0.000 C 
BRANCH  20  21
ATOM     21  C   UNL     1       2.171   2.902  19.896  0.00  0.00    +0.000 A 
ATOM     22  C   UNL     1       1.619   2.696  18.644  0.00  0.00    +0.000 A 
ATOM     23  C   UNL     1       2.446   1.891  17.806  0.00  0.00    +0.000 A 
ATOM     24  C   UNL     1       3.601   1.499  18.444  0.00  0.00    +0.000 A 
ATOM     25  S   UNL     1       3.684   2.104  20.044  0.00  0.00    +0.000 S 
ENDBRANCH  20  21
ENDBRANCH  19  20
ENDBRANCH  17  19
ENDBRANCH  12  17
TORSDOF 5
ENDMDL
MODEL 8
REMARK VINA RESULT:      -7.3      3.211      5.372
REMARK  Name = 
REMARK  6 active torsions:
REMARK  status: ('A' for Active; 'I' for Inactive)
REMARK    1  A    between atoms: C_1  and  O_2
REMARK    2  A    between atoms: O_2  and  C_3
REMARK    3  A    between atoms: C_14  and  N_15
REMARK    4  A    between atoms: N_15  and  C_16
REMARK    5  A    between atoms: C_16  and  C_17
REMARK    6  A    between atoms: C_17  and  C_18
REMARK                            x       y       z     vdW  Elec       q    Type
REMARK                         _______ _______ _______ _____ _____    ______ ____
ROOT
ATOM      1  C   UNL     1       5.717   3.464  12.425  0.00  0.00    +0.000 A 
ATOM      2  C   UNL     1       6.893   4.181  12.246  0.00  0.00    +0.000 A 
ATOM      3  C   UNL     1       7.443   4.859  13.328  0.00  0.00    +0.000 A 
ATOM      4  C   UNL     1       6.861   4.840  14.585  0.00  0.00    +0.000 A 
ATOM      5  N   UNL     1       7.509   5.513  15.529  0.00  0.00    +0.000 NA
ATOM      6  C   UNL     1       7.063   5.495  16.780  0.00  0.00    +0.000 A 
ATOM      7  C   UNL     1       7.835   6.201  17.694  0.00  0.00    +0.000 A 
ATOM      8  C   UNL     1       7.533   6.252  19.050  0.00  0.00    +0.000 A 
ATOM      9  C   UNL     1       6.445   5.546  19.513  0.00  0.00    +0.000 A 
ATOM     10  C   UNL     1       5.666   4.825  18.607  0.00  0.00    +0.000 A 
ATOM     11  C   UNL     1       5.903   4.805  17.195  0.00  0.00    +0.000 A 
ATOM     12  C   UNL     1       5.128   4.161  16.151  0.00  0.00    +0.000 A 
ATOM     13  C   UNL     1       5.663   4.135  14.811  0.00  0.00    +0.000 A 
ATOM     14  C   UNL     1       5.092   3.470  13.686  0.00  0.00    +0.000 A 
ENDROOT
BRANCH   1  16
ATOM     15  C   UNL     1       3.790   3.224  11.063  0.00  0.00    +0.000 C 
ATOM     16  O   UNL     1       5.088   2.753  11.437  0.00  0.00    +0.000 OA
ENDBRANCH   1  16
BRANCH  12  17
ATOM     17  N   UNL     1       3.872   3.491  16.357  0.00  0.00    +0.000 N 
ATOM     18  H   UNL     1       3.522   3.193  15.445  0.00  0.00    +0.000 HD
BRANCH  17  19
ATOM     19  C   UNL     1       3.792   2.411  17.347  0.00  0.00    +0.000 C 
BRANCH  19  20
ATOM     20  C   UNL     1       2.421   2.209  18.002  0.00  0.00    +0.000 C 
BRANCH  20  21
ATOM     21  C   UNL     1       2.252   3.222  19.119  0.00  0.00    +0.000 A 
ATOM     22  C   UNL     1       1.851   4.543  19.022  0.00  0.00    +0.000 A 
ATOM     23  C   UNL     1       1.864   5.214  20.280  0.00  0.00    +0.000 A 
ATOM     24  C   UNL     1       2.281   4.389  21.301  0.00  0.00    +0.000 A 
ATOM     25  S   UNL     1       2.651   2.815  20.738  0.00  0.00    +0.000 S 
ENDBRANCH  20  21
ENDBRANCH  19  20
ENDBRANCH  17  19
ENDBRANCH  12  17
TORSDOF 5
ENDMDL
MODEL 9
REMARK VINA RESULT:      -7.2      2.754      5.767
REMARK  Name = 
REMARK  6 active torsions:
REMARK  status: ('A' for Active; 'I' for Inactive)
REMARK    1  A    between atoms: C_1  and  O_2
REMARK    2  A    between atoms: O_2  and  C_3
REMARK    3  A    between atoms: C_14  and  N_15
REMARK    4  A    between atoms: N_15  and  C_16
REMARK    5  A    between atoms: C_16  and  C_17
REMARK    6  A    between atoms: C_17  and  C_18
REMARK                            x       y       z     vdW  Elec       q    Type
REMARK                         _______ _______ _______ _____ _____    ______ ____
ROOT
ATOM      1  C   UNL     1       6.820   6.727  17.458  0.00  0.00    +0.000 A 
ATOM      2  C   UNL     1       7.450   5.519  17.728  0.00  0.00    +0.000 A 
ATOM      3  C   UNL     1       6.742   4.516  18.380  0.00  0.00    +0.000 A 
ATOM      4  C   UNL     1       5.422   4.677  18.767  0.00  0.00    +0.000 A 
ATOM      5  N   UNL     1       4.865   3.627  19.360  0.00  0.00    +0.000 NA
ATOM      6  C   UNL     1       3.581   3.664  19.704  0.00  0.00    +0.000 A 
ATOM      7  C   UNL     1       3.090   2.501  20.284  0.00  0.00    +0.000 A 
ATOM      8  C   UNL     1       1.762   2.357  20.666  0.00  0.00    +0.000 A 
ATOM      9  C   UNL     1       0.888   3.395  20.429  0.00  0.00    +0.000 A 
ATOM     10  C   UNL     1       1.367   4.566  19.839  0.00  0.00    +0.000 A 
ATOM     11  C   UNL     1       2.740   4.779  19.497  0.00  0.00    +0.000 A 
ATOM     12  C   UNL     1       3.369   5.968  18.952  0.00  0.00    +0.000 A 
ATOM     13  C   UNL     1       4.744   5.887  18.524  0.00  0.00    +0.000 A 
ATOM     14  C   UNL     1       5.491   6.919  17.882  0.00  0.00    +0.000 A 
ENDROOT
BRANCH   1  16
ATOM     15  C   UNL     1       7.949   8.802  17.663  0.00  0.00    +0.000 C 
ATOM     16  O   UNL     1       7.412   7.782  16.816  0.00  0.00    +0.000 OA
ENDBRANCH   1  16
BRANCH  12  17
ATOM     17  N   UNL     1       2.705   7.229  18.756  0.00  0.00    +0.000 N 
ATOM     18  H   UNL     1       2.093   7.138  17.943  0.00  0.00    +0.000 HD
BRANCH  17  19
ATOM     19  C   UNL     1       2.012   7.856  19.887  0.00  0.00    +0.000 C 
BRANCH  19  20
ATOM     20  C   UNL     1       1.153   9.079  19.547  0.00  0.00    +0.000 C 
BRANCH  20  21
ATOM     21  C   UNL     1       0.500   9.595  20.815  0.00  0.00    +0.000 A 
ATOM     22  C   UNL     1       0.036   8.866  21.896  0.00  0.00    +0.000 A 
ATOM     23  C   UNL     1      -0.576   9.685  22.889  0.00  0.00    +0.000 A 
ATOM     24  C   UNL     1      -0.569  11.016  22.535  0.00  0.00    +0.000 A 
ATOM     25  S   UNL     1       0.175  11.268  21.014  0.00  0.00    +0.000 S 
ENDBRANCH  20  21
ENDBRANCH  19  20
ENDBRANCH  17  19
ENDBRANCH  12  17
TORSDOF 5
ENDMDL
