MODEL 1
REMARK VINA RESULT:      -8.0      0.000      0.000
REMARK  Name = 
REMARK  6 active torsions:
REMARK  status: ('A' for Active; 'I' for Inactive)
REMARK    1  A    between atoms: C_1  and  C_2
REMARK    2  A    between atoms: C_4  and  N_5
REMARK    3  A    between atoms: N_5  and  C_6
REMARK    4  A    between atoms: C_6  and  C_7
REMARK    5  A    between atoms: C_7  and  C_8
REMARK    6  A    between atoms: C_8  and  C_9
REMARK                            x       y       z     vdW  Elec       q    Type
REMARK                         _______ _______ _______ _____ _____    ______ ____
ROOT
ATOM      1  C   UNL     1       2.254   7.387  18.236  0.00  0.00    +0.000 C 
ATOM      2  C   UNL     1       2.713   5.967  18.379  0.00  0.00    +0.000 A 
ATOM      3  C   UNL     1       4.089   5.660  18.508  0.00  0.00    +0.000 A 
ATOM      4  C   UNL     1       4.523   4.319  18.629  0.00  0.00    +0.000 A 
ATOM      5  C   UNL     1       3.532   3.333  18.616  0.00  0.00    +0.000 A 
ATOM      6  N   UNL     1       3.711   1.994  18.709  0.00  0.00    +0.000 NA
ATOM      7  N   UNL     1       2.499   1.450  18.644  0.00  0.00    +0.000 N 
ATOM      8  C   UNL     1       1.601   2.460  18.510  0.00  0.00    +0.000 A 
ATOM      9  O   UNL     1       0.396   2.307  18.419  0.00  0.00    +0.000 OA
ATOM     10  N   UNL     1       2.236   3.651  18.490  0.00  0.00    +0.000 N 
ATOM     11  C   UNL     1       1.775   4.921  18.373  0.00  0.00    +0.000 A 
ATOM     12  H   UNL     1       2.299   0.427  18.687  0.00  0.00    +0.000 HD
ENDROOT
BRANCH   4  13
ATOM     13  N   UNL     1       5.901   3.968  18.752  0.00  0.00    +0.000 N 
ATOM     14  H   UNL     1       6.139   3.118  19.285  0.00  0.00    +0.000 HD
BRANCH  13  15
ATOM     15  C   UNL     1       6.965   4.754  18.150  0.00  0.00    +0.000 C 
BRANCH  15  16
ATOM     16  C   UNL     1       6.608   5.222  16.732  0.00  0.00    +0.000 C 
BRANCH  16  17
ATOM     17  C   UNL     1       6.183   4.052  15.824  0.00  0.00    +0.000 C 
BRANCH  17  18
ATOM     18  C   UNL     1       6.629   4.260  14.404  0.00  0.00    +0.000 A 
ATOM     19  C   UNL     1       6.092   3.491  13.358  0.00  0.00    +0.000 A 
ATOM     20  C   UNL     1       6.518   3.723  12.049  0.00  0.00    +0.000 A 
ATOM     21  C   UNL     1       7.463   4.717  11.791  0.00  0.00    +0.000 A 
ATOM     22  C   UNL     1       7.972   5.467  12.854  0.00  0.00    +0.000 A 
ATOM     23  N   UNL     1       7.549   5.225  14.123  0.00  0.00    +0.000 NA
ENDBRANCH  17  18
ENDBRANCH  16  17
ENDBRANCH  15  16
ENDBRANCH  13  15
ENDBRANCH   4  13
TORSDOF 5
ENDMDL
MODEL 2
REMARK VINA RESULT:      -7.8      2.750      6.382
REMARK  Name = 
REMARK  6 active torsions:
REMARK  status: ('A' for Active; 'I' for Inactive)
REMARK    1  A    between atoms: C_1  and  C_2
REMARK    2  A    between atoms: C_4  and  N_5
REMARK    3  A    between atoms: N_5  and  C_6
REMARK    4  A    between atoms: C_6  and  C_7
REMARK    5  A    between atoms: C_7  and  C_8
REMARK    6  A    between atoms: C_8  and  C_9
REMARK                            x       y       z     vdW  Elec       q    Type
REMARK                         _______ _______ _______ _____ _____    ______ ____
ROOT
ATOM      1  C   UNL     1       8.054   8.037  18.261  0.00  0.00    +0.000 C 
ATOM      2  C   UNL     1       7.438   6.781  17.722  0.00  0.00    +0.000 A 
ATOM      3  C   UNL     1       6.794   5.862  18.584  0.00  0.00    +0.000 A 
ATOM      4  C   UNL     1       6.223   4.671  18.077  0.00  0.00    +0.000 A 
ATOM      5  C   UNL     1       6.329   4.459  16.699  0.00  0.00    +0.000 A 
ATOM      6  N   UNL     1       5.868   3.396  15.997  0.00  0.00    +0.000 NA
ATOM      7  N   UNL     1       6.199   3.615  14.728  0.00  0.00    +0.000 N 
ATOM      8  C   UNL     1       6.856   4.802  14.672  0.00  0.00    +0.000 A 
ATOM      9  O   UNL     1       7.301   5.301  13.653  0.00  0.00    +0.000 OA
ATOM     10  N   UNL     1       6.946   5.346  15.904  0.00  0.00    +0.000 N 
ATOM     11  C   UNL     1       7.505   6.499  16.347  0.00  0.00    +0.000 A 
ATOM     12  H   UNL     1       5.984   2.972  13.934  0.00  0.00    +0.000 HD
ENDROOT
BRANCH   4  13
ATOM     13  N   UNL     1       5.574   3.715  18.914  0.00  0.00    +0.000 N 
ATOM     14  H   UNL     1       6.161   3.126  19.524  0.00  0.00    +0.000 HD
BRANCH  13  15
ATOM     15  C   UNL     1       4.129   3.552  18.942  0.00  0.00    +0.000 C 
BRANCH  15  16
ATOM     16  C   UNL     1       3.394   4.845  18.559  0.00  0.00    +0.000 C 
BRANCH  16  17
ATOM     17  C   UNL     1       2.997   5.676  19.793  0.00  0.00    +0.000 C 
BRANCH  17  18
ATOM     18  C   UNL     1       2.435   7.014  19.406  0.00  0.00    +0.000 A 
ATOM     19  C   UNL     1       2.587   7.512  18.101  0.00  0.00    +0.000 A 
ATOM     20  C   UNL     1       2.037   8.752  17.772  0.00  0.00    +0.000 A 
ATOM     21  C   UNL     1       1.337   9.480  18.735  0.00  0.00    +0.000 A 
ATOM     22  C   UNL     1       1.200   8.953  20.021  0.00  0.00    +0.000 A 
ATOM     23  N   UNL     1       1.746   7.745  20.326  0.00  0.00    +0.000 NA
ENDBRANCH  17  18
ENDBRANCH  16  17
ENDBRANCH  15  16
ENDBRANCH  13  15
ENDBRANCH   4  13
TORSDOF 5
ENDMDL
MODEL 3
REMARK VINA RESULT:      -7.7      0.667      1.158
REMARK  Name = 
REMARK  6 active torsions:
REMARK  status: ('A' for Active; 'I' for Inactive)
REMARK    1  A    between atoms: C_1  and  C_2
REMARK    2  A    between atoms: C_4  and  N_5
REMARK    3  A    between atoms: N_5  and  C_6
REMARK    4  A    between atoms: C_6  and  C_7
REMARK    5  A    between atoms: C_7  and  C_8
REMARK    6  A    between atoms: C_8  and  C_9
REMARK                            x       y       z     vdW  Elec       q    Type
REMARK                         _______ _______ _______ _____ _____    ______ ____
ROOT
ATOM      1  C   UNL     1       2.213   7.519  18.143  0.00  0.00    +0.000 C 
ATOM      2  C   UNL     1       2.744   6.135  18.372  0.00  0.00    +0.000 A 
ATOM      3  C   UNL     1       4.114   5.923  18.656  0.00  0.00    +0.000 A 
ATOM      4  C   UNL     1       4.619   4.617  18.859  0.00  0.00    +0.000 A 
ATOM      5  C   UNL     1       3.701   3.567  18.765  0.00  0.00    +0.000 A 
ATOM      6  N   UNL     1       3.954   2.245  18.912  0.00  0.00    +0.000 NA
ATOM      7  N   UNL     1       2.794   1.620  18.731  0.00  0.00    +0.000 N 
ATOM      8  C   UNL     1       1.853   2.565  18.475  0.00  0.00    +0.000 A 
ATOM      9  O   UNL     1       0.677   2.330  18.258  0.00  0.00    +0.000 OA
ATOM     10  N   UNL     1       2.408   3.795  18.492  0.00  0.00    +0.000 N 
ATOM     11  C   UNL     1       1.882   5.029  18.292  0.00  0.00    +0.000 A 
ATOM     12  H   UNL     1       2.657   0.586  18.779  0.00  0.00    +0.000 HD
ENDROOT
BRANCH   4  13
ATOM     13  N   UNL     1       5.995   4.361  19.139  0.00  0.00    +0.000 N 
ATOM     14  H   UNL     1       6.228   3.866  20.012  0.00  0.00    +0.000 HD
BRANCH  13  15
ATOM     15  C   UNL     1       7.064   4.763  18.239  0.00  0.00    +0.000 C 
BRANCH  15  16
ATOM     16  C   UNL     1       6.837   4.254  16.808  0.00  0.00    +0.000 C 
BRANCH  16  17
ATOM     17  C   UNL     1       6.954   5.381  15.765  0.00  0.00    +0.000 C 
BRANCH  17  18
ATOM     18  C   UNL     1       6.874   4.850  14.361  0.00  0.00    +0.000 A 
ATOM     19  C   UNL     1       7.724   5.337  13.355  0.00  0.00    +0.000 A 
ATOM     20  C   UNL     1       7.633   4.809  12.066  0.00  0.00    +0.000 A 
ATOM     21  C   UNL     1       6.708   3.801  11.791  0.00  0.00    +0.000 A 
ATOM     22  C   UNL     1       5.882   3.336  12.817  0.00  0.00    +0.000 A 
ATOM     23  N   UNL     1       5.980   3.865  14.066  0.00  0.00    +0.000 NA
ENDBRANCH  17  18
ENDBRANCH  16  17
ENDBRANCH  15  16
ENDBRANCH  13  15
ENDBRANCH   4  13
TORSDOF 5
ENDMDL
MODEL 4
REMARK VINA RESULT:      -7.7      2.623      6.337
REMARK  Name = 
REMARK  6 active torsions:
REMARK  status: ('A' for Active; 'I' for Inactive)
REMARK    1  A    between atoms: C_1  and  C_2
REMARK    2  A    between atoms: C_4  and  N_5
REMARK    3  A    between atoms: N_5  and  C_6
REMARK    4  A    between atoms: C_6  and  C_7
REMARK    5  A    between atoms: C_7  and  C_8
REMARK    6  A    between atoms: C_8  and  C_9
REMARK                            x       y       z     vdW  Elec       q    Type
REMARK                         _______ _______ _______ _____ _____    ______ ____
ROOT
ATOM      1  C   UNL     1       7.620   5.864  19.410  0.00  0.00    +0.000 C 
ATOM      2  C   UNL     1       6.928   5.267  18.222  0.00  0.00    +0.000 A 
ATOM      3  C   UNL     1       5.772   4.467  18.382  0.00  0.00    +0.000 A 
ATOM      4  C   UNL     1       5.127   3.893  17.262  0.00  0.00    +0.000 A 
ATOM      5  C   UNL     1       5.687   4.157  16.009  0.00  0.00    +0.000 A 
ATOM      6  N   UNL     1       5.250   3.711  14.807  0.00  0.00    +0.000 NA
ATOM      7  N   UNL     1       6.089   4.202  13.899  0.00  0.00    +0.000 N 
ATOM      8  C   UNL     1       7.024   4.935  14.556  0.00  0.00    +0.000 A 
ATOM      9  O   UNL     1       7.947   5.523  14.019  0.00  0.00    +0.000 OA
ATOM     10  N   UNL     1       6.786   4.916  15.885  0.00  0.00    +0.000 N 
ATOM     11  C   UNL     1       7.434   5.487  16.930  0.00  0.00    +0.000 A 
ATOM     12  H   UNL     1       6.022   4.036  12.871  0.00  0.00    +0.000 HD
ENDROOT
BRANCH   4  13
ATOM     13  N   UNL     1       3.964   3.073  17.383  0.00  0.00    +0.000 N 
ATOM     14  H   UNL     1       3.253   3.128  16.639  0.00  0.00    +0.000 HD
BRANCH  13  15
ATOM     15  C   UNL     1       3.757   2.170  18.503  0.00  0.00    +0.000 C 
BRANCH  15  16
ATOM     16  C   UNL     1       2.271   2.024  18.861  0.00  0.00    +0.000 C 
BRANCH  16  17
ATOM     17  C   UNL     1       1.409   3.132  18.228  0.00  0.00    +0.000 C 
BRANCH  17  18
ATOM     18  C   UNL     1       1.698   4.477  18.834  0.00  0.00    +0.000 A 
ATOM     19  C   UNL     1       1.476   4.717  20.200  0.00  0.00    +0.000 A 
ATOM     20  C   UNL     1       1.771   5.973  20.732  0.00  0.00    +0.000 A 
ATOM     21  C   UNL     1       2.290   6.973  19.908  0.00  0.00    +0.000 A 
ATOM     22  C   UNL     1       2.505   6.698  18.555  0.00  0.00    +0.000 A 
ATOM     23  N   UNL     1       2.207   5.470  18.052  0.00  0.00    +0.000 NA
ENDBRANCH  17  18
ENDBRANCH  16  17
ENDBRANCH  15  16
ENDBRANCH  13  15
ENDBRANCH   4  13
TORSDOF 5
ENDMDL
MODEL 5
REMARK VINA RESULT:      -7.7      2.591      5.954
REMARK  Name = 
REMARK  6 active torsions:
REMARK  status: ('A' for Active; 'I' for Inactive)
REMARK    1  A    between atoms: C_1  and  C_2
REMARK    2  A    between atoms: C_4  and  N_5
REMARK    3  A    between atoms: N_5  and  C_6
REMARK    4  A    between atoms: C_6  and  C_7
REMARK    5  A    between atoms: C_7  and  C_8
REMARK    6  A    between atoms: C_8  and  C_9
REMARK                            x       y       z     vdW  Elec       q    Type
REMARK                         _______ _______ _______ _____ _____    ______ ____
ROOT
ATOM      1  C   UNL     1       5.591   4.090  13.766  0.00  0.00    +0.000 C 
ATOM      2  C   UNL     1       5.748   4.641  15.151  0.00  0.00    +0.000 A 
ATOM      3  C   UNL     1       4.811   5.562  15.676  0.00  0.00    +0.000 A 
ATOM      4  C   UNL     1       4.967   6.092  16.979  0.00  0.00    +0.000 A 
ATOM      5  C   UNL     1       6.079   5.657  17.706  0.00  0.00    +0.000 A 
ATOM      6  N   UNL     1       6.434   6.031  18.958  0.00  0.00    +0.000 NA
ATOM      7  N   UNL     1       7.558   5.377  19.238  0.00  0.00    +0.000 N 
ATOM      8  C   UNL     1       7.874   4.619  18.157  0.00  0.00    +0.000 A 
ATOM      9  O   UNL     1       8.851   3.895  18.081  0.00  0.00    +0.000 OA
ATOM     10  N   UNL     1       6.954   4.784  17.184  0.00  0.00    +0.000 N 
ATOM     11  C   UNL     1       6.843   4.252  15.942  0.00  0.00    +0.000 A 
ATOM     12  H   UNL     1       8.086   5.453  20.135  0.00  0.00    +0.000 HD
ENDROOT
BRANCH   4  13
ATOM     13  N   UNL     1       4.049   7.030  17.540  0.00  0.00    +0.000 N 
ATOM     14  H   UNL     1       4.345   8.015  17.611  0.00  0.00    +0.000 HD
BRANCH  13  15
ATOM     15  C   UNL     1       2.724   6.648  18.001  0.00  0.00    +0.000 C 
BRANCH  15  16
ATOM     16  C   UNL     1       2.614   6.678  19.533  0.00  0.00    +0.000 C 
BRANCH  16  17
ATOM     17  C   UNL     1       1.967   5.398  20.093  0.00  0.00    +0.000 C 
BRANCH  17  18
ATOM     18  C   UNL     1       2.494   4.165  19.414  0.00  0.00    +0.000 A 
ATOM     19  C   UNL     1       1.722   3.479  18.462  0.00  0.00    +0.000 A 
ATOM     20  C   UNL     1       2.250   2.346  17.839  0.00  0.00    +0.000 A 
ATOM     21  C   UNL     1       3.538   1.913  18.159  0.00  0.00    +0.000 A 
ATOM     22  C   UNL     1       4.280   2.623  19.106  0.00  0.00    +0.000 A 
ATOM     23  N   UNL     1       3.748   3.721  19.707  0.00  0.00    +0.000 NA
ENDBRANCH  17  18
ENDBRANCH  16  17
ENDBRANCH  15  16
ENDBRANCH  13  15
ENDBRANCH   4  13
TORSDOF 5
ENDMDL
MODEL 6
REMARK VINA RESULT:      -7.7      2.697      6.411
REMARK  Name = 
REMARK  6 active torsions:
REMARK  status: ('A' for Active; 'I' for Inactive)
REMARK    1  A    between atoms: C_1  and  C_2
REMARK    2  A    between atoms: C_4  and  N_5
REMARK    3  A    between atoms: N_5  and  C_6
REMARK    4  A    between atoms: C_6  and  C_7
REMARK    5  A    between atoms: C_7  and  C_8
REMARK    6  A    between atoms: C_8  and  C_9
REMARK                            x       y       z     vdW  Elec       q    Type
REMARK                         _______ _______ _______ _____ _____    ______ ____
ROOT
ATOM      1  C   UNL     1       7.804   5.791  19.608  0.00  0.00    +0.000 C 
ATOM      2  C   UNL     1       6.989   5.295  18.451  0.00  0.00    +0.000 A 
ATOM      3  C   UNL     1       5.737   4.670  18.661  0.00  0.00    +0.000 A 
ATOM      4  C   UNL     1       4.974   4.190  17.570  0.00  0.00    +0.000 A 
ATOM      5  C   UNL     1       5.519   4.367  16.295  0.00  0.00    +0.000 A 
ATOM      6  N   UNL     1       4.978   3.985  15.115  0.00  0.00    +0.000 NA
ATOM      7  N   UNL     1       5.844   4.346  14.172  0.00  0.00    +0.000 N 
ATOM      8  C   UNL     1       6.898   4.939  14.788  0.00  0.00    +0.000 A 
ATOM      9  O   UNL     1       7.875   5.386  14.211  0.00  0.00    +0.000 OA
ATOM     10  N   UNL     1       6.710   4.960  16.124  0.00  0.00    +0.000 N 
ATOM     11  C   UNL     1       7.472   5.435  17.139  0.00  0.00    +0.000 A 
ATOM     12  H   UNL     1       5.714   4.187  13.149  0.00  0.00    +0.000 HD
ENDROOT
BRANCH   4  13
ATOM     13  N   UNL     1       3.711   3.547  17.742  0.00  0.00    +0.000 N 
ATOM     14  H   UNL     1       3.196   3.258  16.897  0.00  0.00    +0.000 HD
BRANCH  13  15
ATOM     15  C   UNL     1       3.140   3.282  19.052  0.00  0.00    +0.000 C 
BRANCH  15  16
ATOM     16  C   UNL     1       2.012   4.265  19.400  0.00  0.00    +0.000 C 
BRANCH  16  17
ATOM     17  C   UNL     1       2.504   5.425  20.285  0.00  0.00    +0.000 C 
BRANCH  17  18
ATOM     18  C   UNL     1       2.253   6.760  19.643  0.00  0.00    +0.000 A 
ATOM     19  C   UNL     1       2.622   7.001  18.309  0.00  0.00    +0.000 A 
ATOM     20  C   UNL     1       2.359   8.249  17.740  0.00  0.00    +0.000 A 
ATOM     21  C   UNL     1       1.726   9.238  18.495  0.00  0.00    +0.000 A 
ATOM     22  C   UNL     1       1.367   8.962  19.816  0.00  0.00    +0.000 A 
ATOM     23  N   UNL     1       1.636   7.743  20.357  0.00  0.00    +0.000 NA
ENDBRANCH  17  18
ENDBRANCH  16  17
ENDBRANCH  15  16
ENDBRANCH  13  15
ENDBRANCH   4  13
TORSDOF 5
ENDMDL
MODEL 7
REMARK VINA RESULT:      -7.7      0.875      1.424
REMARK  Name = 
REMARK  6 active torsions:
REMARK  status: ('A' for Active; 'I' for Inactive)
REMARK    1  A    between atoms: C_1  and  C_2
REMARK    2  A    between atoms: C_4  and  N_5
REMARK    3  A    between atoms: N_5  and  C_6
REMARK    4  A    between atoms: C_6  and  C_7
REMARK    5  A    between atoms: C_7  and  C_8
REMARK    6  A    between atoms: C_8  and  C_9
REMARK                            x       y       z     vdW  Elec       q    Type
REMARK                         _______ _______ _______ _____ _____    ______ ____
ROOT
ATOM      1  C   UNL     1       2.067   7.524  18.083  0.00  0.00    +0.000 C 
ATOM      2  C   UNL     1       2.615   6.159  18.374  0.00  0.00    +0.000 A 
ATOM      3  C   UNL     1       3.966   5.987  18.761  0.00  0.00    +0.000 A 
ATOM      4  C   UNL     1       4.486   4.698  19.022  0.00  0.00    +0.000 A 
ATOM      5  C   UNL     1       3.604   3.623  18.881  0.00  0.00    +0.000 A 
ATOM      6  N   UNL     1       3.879   2.310  19.070  0.00  0.00    +0.000 NA
ATOM      7  N   UNL     1       2.751   1.653  18.816  0.00  0.00    +0.000 N 
ATOM      8  C   UNL     1       1.808   2.568  18.475  0.00  0.00    +0.000 A 
ATOM      9  O   UNL     1       0.657   2.300  18.179  0.00  0.00    +0.000 OA
ATOM     10  N   UNL     1       2.329   3.813  18.511  0.00  0.00    +0.000 N 
ATOM     11  C   UNL     1       1.789   5.029  18.252  0.00  0.00    +0.000 A 
ATOM     12  H   UNL     1       2.637   0.617  18.872  0.00  0.00    +0.000 HD
ENDROOT
BRANCH   4  13
ATOM     13  N   UNL     1       5.844   4.483  19.406  0.00  0.00    +0.000 N 
ATOM     14  H   UNL     1       6.053   4.374  20.409  0.00  0.00    +0.000 HD
BRANCH  13  15
ATOM     15  C   UNL     1       6.927   4.404  18.439  0.00  0.00    +0.000 C 
BRANCH  15  16
ATOM     16  C   UNL     1       7.596   5.767  18.207  0.00  0.00    +0.000 C 
BRANCH  16  17
ATOM     17  C   UNL     1       6.911   6.568  17.085  0.00  0.00    +0.000 C 
BRANCH  17  18
ATOM     18  C   UNL     1       6.659   5.720  15.870  0.00  0.00    +0.000 A 
ATOM     19  C   UNL     1       5.392   5.165  15.626  0.00  0.00    +0.000 A 
ATOM     20  C   UNL     1       5.191   4.395  14.479  0.00  0.00    +0.000 A 
ATOM     21  C   UNL     1       6.243   4.192  13.585  0.00  0.00    +0.000 A 
ATOM     22  C   UNL     1       7.488   4.763  13.855  0.00  0.00    +0.000 A 
ATOM     23  N   UNL     1       7.668   5.506  14.980  0.00  0.00    +0.000 NA
ENDBRANCH  17  18
ENDBRANCH  16  17
ENDBRANCH  15  16
ENDBRANCH  13  15
ENDBRANCH   4  13
TORSDOF 5
ENDMDL
MODEL 8
REMARK VINA RESULT:      -7.6      4.788      5.912
REMARK  Name = 
REMARK  6 active torsions:
REMARK  status: ('A' for Active; 'I' for Inactive)
REMARK    1  A    between atoms: C_1  and  C_2
REMARK    2  A    between atoms: C_4  and  N_5
REMARK    3  A    between atoms: N_5  and  C_6
REMARK    4  A    between atoms: C_6  and  C_7
REMARK    5  A    between atoms: C_7  and  C_8
REMARK    6  A    between atoms: C_8  and  C_9
REMARK                            x       y       z     vdW  Elec       q    Type
REMARK                         _______ _______ _______ _____ _____    ______ ____
ROOT
ATOM      1  C   UNL     1       2.005   8.021  17.761  0.00  0.00    +0.000 C 
ATOM      2  C   UNL     1       3.194   7.118  17.898  0.00  0.00    +0.000 A 
ATOM      3  C   UNL     1       4.444   7.477  17.341  0.00  0.00    +0.000 A 
ATOM      4  C   UNL     1       5.563   6.619  17.459  0.00  0.00    +0.000 A 
ATOM      5  C   UNL     1       5.366   5.418  18.147  0.00  0.00    +0.000 A 
ATOM      6  N   UNL     1       6.281   4.447  18.375  0.00  0.00    +0.000 NA
ATOM      7  N   UNL     1       5.652   3.492  19.054  0.00  0.00    +0.000 N 
ATOM      8  C   UNL     1       4.366   3.891  19.228  0.00  0.00    +0.000 A 
ATOM      9  O   UNL     1       3.513   3.245  19.812  0.00  0.00    +0.000 OA
ATOM     10  N   UNL     1       4.169   5.101  18.663  0.00  0.00    +0.000 N 
ATOM     11  C   UNL     1       3.072   5.892  18.574  0.00  0.00    +0.000 A 
ATOM     12  H   UNL     1       6.089   2.603  19.380  0.00  0.00    +0.000 HD
ENDROOT
BRANCH   4  13
ATOM     13  N   UNL     1       6.838   6.941  16.903  0.00  0.00    +0.000 N 
ATOM     14  H   UNL     1       6.977   6.796  15.892  0.00  0.00    +0.000 HD
BRANCH  13  15
ATOM     15  C   UNL     1       7.930   7.468  17.705  0.00  0.00    +0.000 C 
BRANCH  15  16
ATOM     16  C   UNL     1       7.947   9.004  17.721  0.00  0.00    +0.000 C 
BRANCH  16  17
ATOM     17  C   UNL     1       8.852   9.564  18.835  0.00  0.00    +0.000 C 
BRANCH  17  18
ATOM     18  C   UNL     1       9.446  10.891  18.454  0.00  0.00    +0.000 A 
ATOM     19  C   UNL     1       8.653  11.901  17.886  0.00  0.00    +0.000 A 
ATOM     20  C   UNL     1       9.235  13.127  17.559  0.00  0.00    +0.000 A 
ATOM     21  C   UNL     1      10.592  13.340  17.807  0.00  0.00    +0.000 A 
ATOM     22  C   UNL     1      11.350  12.316  18.379  0.00  0.00    +0.000 A 
ATOM     23  N   UNL     1      10.768  11.126  18.686  0.00  0.00    +0.000 NA
ENDBRANCH  17  18
ENDBRANCH  16  17
ENDBRANCH  15  16
ENDBRANCH  13  15
ENDBRANCH   4  13
TORSDOF 5
ENDMDL
MODEL 9
REMARK VINA RESULT:      -7.6      2.663      6.240
REMARK  Name = 
REMARK  6 active torsions:
REMARK  status: ('A' for Active; 'I' for Inactive)
REMARK    1  A    between atoms: C_1  and  C_2
REMARK    2  A    between atoms: C_4  and  N_5
REMARK    3  A    between atoms: N_5  and  C_6
REMARK    4  A    between atoms: C_6  and  C_7
REMARK    5  A    between atoms: C_7  and  C_8
REMARK    6  A    between atoms: C_8  and  C_9
REMARK                            x       y       z     vdW  Elec       q    Type
REMARK                         _______ _______ _______ _____ _____    ______ ____
ROOT
ATOM      1  C   UNL     1       5.547   4.451  14.154  0.00  0.00    +0.000 C 
ATOM      2  C   UNL     1       5.736   4.488  15.641  0.00  0.00    +0.000 A 
ATOM      3  C   UNL     1       5.052   3.577  16.481  0.00  0.00    +0.000 A 
ATOM      4  C   UNL     1       5.221   3.621  17.886  0.00  0.00    +0.000 A 
ATOM      5  C   UNL     1       6.088   4.597  18.386  0.00  0.00    +0.000 A 
ATOM      6  N   UNL     1       6.395   4.830  19.684  0.00  0.00    +0.000 NA
ATOM      7  N   UNL     1       7.245   5.852  19.688  0.00  0.00    +0.000 N 
ATOM      8  C   UNL     1       7.443   6.229  18.399  0.00  0.00    +0.000 A 
ATOM      9  O   UNL     1       8.169   7.143  18.048  0.00  0.00    +0.000 OA
ATOM     10  N   UNL     1       6.721   5.450  17.567  0.00  0.00    +0.000 N 
ATOM     11  C   UNL     1       6.590   5.443  16.217  0.00  0.00    +0.000 A 
ATOM     12  H   UNL     1       7.669   6.274  20.544  0.00  0.00    +0.000 HD
ENDROOT
BRANCH   4  13
ATOM     13  N   UNL     1       4.542   2.726  18.767  0.00  0.00    +0.000 N 
ATOM     14  H   UNL     1       4.739   2.798  19.776  0.00  0.00    +0.000 HD
BRANCH  13  15
ATOM     15  C   UNL     1       3.589   1.736  18.295  0.00  0.00    +0.000 C 
BRANCH  15  16
ATOM     16  C   UNL     1       2.352   2.383  17.655  0.00  0.00    +0.000 C 
BRANCH  16  17
ATOM     17  C   UNL     1       1.394   2.972  18.707  0.00  0.00    +0.000 C 
BRANCH  17  18
ATOM     18  C   UNL     1       1.723   4.405  19.018  0.00  0.00    +0.000 A 
ATOM     19  C   UNL     1       2.121   5.292  18.004  0.00  0.00    +0.000 A 
ATOM     20  C   UNL     1       2.404   6.620  18.328  0.00  0.00    +0.000 A 
ATOM     21  C   UNL     1       2.281   7.055  19.648  0.00  0.00    +0.000 A 
ATOM     22  C   UNL     1       1.877   6.148  20.631  0.00  0.00    +0.000 A 
ATOM     23  N   UNL     1       1.611   4.857  20.299  0.00  0.00    +0.000 NA
ENDBRANCH  17  18
ENDBRANCH  16  17
ENDBRANCH  15  16
ENDBRANCH  13  15
ENDBRANCH   4  13
TORSDOF 5
ENDMDL
