MODEL 1
REMARK VINA RESULT:      -7.6      0.000      0.000
REMARK  Name = 
REMARK  3 active torsions:
REMARK  status: ('A' for Active; 'I' for Inactive)
REMARK    1  A    between atoms: C_1  and  C_2
REMARK    2  A    between atoms: C_5  and  C_6
REMARK    3  A    between atoms: N_15  and  C_16
REMARK                            x       y       z     vdW  Elec       q    Type
REMARK                         _______ _______ _______ _____ _____    ______ ____
ROOT
ATOM      1  C   UNL     1      -2.127  10.201  17.456  0.00  0.00    +0.000 C 
ATOM      2  C   UNL     1      -1.178  10.795  18.454  0.00  0.00    +0.000 A 
ATOM      3  C   UNL     1      -1.165  12.109  18.725  0.00  0.00    +0.000 A 
ATOM      4  N   UNL     1      -0.238  12.592  19.629  0.00  0.00    +0.000 N 
ATOM      5  C   UNL     1       0.084  13.860  20.051  0.00  0.00    +0.000 A 
ATOM      6  C   UNL     1       1.208  13.694  20.839  0.00  0.00    +0.000 A 
ATOM      7  N   UNL     1       1.546  12.358  20.966  0.00  0.00    +0.000 NA
ATOM      8  C   UNL     1       0.659  11.735  20.217  0.00  0.00    +0.000 A 
ATOM      9  C   UNL     1       0.587  10.307  19.918  0.00  0.00    +0.000 A 
ATOM     10  N   UNL     1       1.440   9.418  20.542  0.00  0.00    +0.000 N 
ATOM     11  N   UNL     1      -0.322   9.895  19.060  0.00  0.00    +0.000 NA
ATOM     12  H   UNL     1       2.013   9.807  21.282  0.00  0.00    +0.000 HD
ENDROOT
BRANCH  10  13
ATOM     13  C   UNL     1       1.700   8.090  20.181  0.00  0.00    +0.000 A 
ATOM     14  C   UNL     1       1.299   7.057  21.021  0.00  0.00    +0.000 A 
ATOM     15  C   UNL     1       1.498   5.722  20.645  0.00  0.00    +0.000 A 
ATOM     16  C   UNL     1       2.109   5.405  19.431  0.00  0.00    +0.000 A 
ATOM     17  N   UNL     1       2.286   4.090  19.048  0.00  0.00    +0.000 N 
ATOM     18  C   UNL     1       2.730   3.074  20.009  0.00  0.00    +0.000 C 
ATOM     19  C   UNL     1       4.147   2.573  19.684  0.00  0.00    +0.000 C 
ATOM     20  O   UNL     1       4.273   2.156  18.319  0.00  0.00    +0.000 OA
ATOM     21  C   UNL     1       3.998   3.266  17.447  0.00  0.00    +0.000 C 
ATOM     22  C   UNL     1       2.564   3.778  17.637  0.00  0.00    +0.000 C 
ATOM     23  N   UNL     1       2.474   6.392  18.592  0.00  0.00    +0.000 NA
ATOM     24  C   UNL     1       2.253   7.683  18.969  0.00  0.00    +0.000 A 
ENDBRANCH  10  13
BRANCH   5  25
ATOM     25  C   UNL     1      -0.603  15.123  19.699  0.00  0.00    +0.000 A 
ATOM     26  C   UNL     1      -0.253  16.092  18.737  0.00  0.00    +0.000 A 
ATOM     27  N   UNL     1      -1.082  17.138  18.740  0.00  0.00    +0.000 NA
ATOM     28  N   UNL     1      -1.971  16.830  19.700  0.00  0.00    +0.000 N 
ATOM     29  C   UNL     1      -1.750  15.611  20.278  0.00  0.00    +0.000 A 
ATOM     30  H   UNL     1      -2.697  17.507  19.914  0.00  0.00    +0.000 HD
ENDBRANCH   5  25
TORSDOF 2
ENDMDL
MODEL 2
REMARK VINA RESULT:      -7.5      2.729      3.361
REMARK  Name = 
REMARK  3 active torsions:
REMARK  status: ('A' for Active; 'I' for Inactive)
REMARK    1  A    between atoms: C_1  and  C_2
REMARK    2  A    between atoms: C_5  and  C_6
REMARK    3  A    between atoms: N_15  and  C_16
REMARK                            x       y       z     vdW  Elec       q    Type
REMARK                         _______ _______ _______ _____ _____    ______ ____
ROOT
ATOM      1  C   UNL     1       1.745  11.997  18.315  0.00  0.00    +0.000 C 
ATOM      2  C   UNL     1       1.121  11.244  19.452  0.00  0.00    +0.000 A 
ATOM      3  C   UNL     1       0.348  11.851  20.365  0.00  0.00    +0.000 A 
ATOM      4  N   UNL     1      -0.163  11.101  21.407  0.00  0.00    +0.000 N 
ATOM      5  C   UNL     1      -0.901  11.428  22.520  0.00  0.00    +0.000 A 
ATOM      6  C   UNL     1      -0.955  10.261  23.261  0.00  0.00    +0.000 A 
ATOM      7  N   UNL     1      -0.330   9.215  22.606  0.00  0.00    +0.000 NA
ATOM      8  C   UNL     1       0.137   9.765  21.504  0.00  0.00    +0.000 A 
ATOM      9  C   UNL     1       0.956   9.138  20.470  0.00  0.00    +0.000 A 
ATOM     10  N   UNL     1       1.223   7.784  20.514  0.00  0.00    +0.000 N 
ATOM     11  N   UNL     1       1.409   9.892  19.491  0.00  0.00    +0.000 NA
ATOM     12  H   UNL     1       0.725   7.262  21.227  0.00  0.00    +0.000 HD
ENDROOT
BRANCH  10  13
ATOM     13  C   UNL     1       2.194   7.082  19.788  0.00  0.00    +0.000 A 
ATOM     14  C   UNL     1       2.653   5.857  20.257  0.00  0.00    +0.000 A 
ATOM     15  C   UNL     1       3.578   5.115  19.512  0.00  0.00    +0.000 A 
ATOM     16  C   UNL     1       4.062   5.595  18.293  0.00  0.00    +0.000 A 
ATOM     17  N   UNL     1       4.957   4.855  17.545  0.00  0.00    +0.000 N 
ATOM     18  C   UNL     1       6.074   4.147  18.181  0.00  0.00    +0.000 C 
ATOM     19  C   UNL     1       7.427   4.772  17.800  0.00  0.00    +0.000 C 
ATOM     20  O   UNL     1       7.577   4.910  16.381  0.00  0.00    +0.000 OA
ATOM     21  C   UNL     1       6.544   5.770  15.867  0.00  0.00    +0.000 C 
ATOM     22  C   UNL     1       5.152   5.178  16.123  0.00  0.00    +0.000 C 
ATOM     23  N   UNL     1       3.604   6.764  17.809  0.00  0.00    +0.000 NA
ATOM     24  C   UNL     1       2.689   7.459  18.542  0.00  0.00    +0.000 A 
ENDBRANCH  10  13
BRANCH   5  25
ATOM     25  C   UNL     1      -1.470  12.750  22.862  0.00  0.00    +0.000 A 
ATOM     26  C   UNL     1      -0.809  13.972  23.102  0.00  0.00    +0.000 A 
ATOM     27  N   UNL     1      -1.651  14.950  23.444  0.00  0.00    +0.000 NA
ATOM     28  N   UNL     1      -2.855  14.353  23.410  0.00  0.00    +0.000 N 
ATOM     29  C   UNL     1      -2.803  13.041  23.027  0.00  0.00    +0.000 A 
ATOM     30  H   UNL     1      -3.668  14.901  23.673  0.00  0.00    +0.000 HD
ENDBRANCH   5  25
TORSDOF 2
ENDMDL
MODEL 3
REMARK VINA RESULT:      -7.4      3.728      9.965
REMARK  Name = 
REMARK  3 active torsions:
REMARK  status: ('A' for Active; 'I' for Inactive)
REMARK    1  A    between atoms: C_1  and  C_2
REMARK    2  A    between atoms: C_5  and  C_6
REMARK    3  A    between atoms: N_15  and  C_16
REMARK                            x       y       z     vdW  Elec       q    Type
REMARK                         _______ _______ _______ _____ _____    ______ ____
ROOT
ATOM      1  C   UNL     1       0.253   9.427  22.696  0.00  0.00    +0.000 C 
ATOM      2  C   UNL     1       0.820   9.077  21.353  0.00  0.00    +0.000 A 
ATOM      3  C   UNL     1       1.284   7.848  21.077  0.00  0.00    +0.000 A 
ATOM      4  N   UNL     1       1.826   7.609  19.829  0.00  0.00    +0.000 N 
ATOM      5  C   UNL     1       2.446   6.513  19.274  0.00  0.00    +0.000 A 
ATOM      6  C   UNL     1       2.912   6.956  18.049  0.00  0.00    +0.000 A 
ATOM      7  N   UNL     1       2.541   8.267  17.810  0.00  0.00    +0.000 NA
ATOM      8  C   UNL     1       1.901   8.621  18.906  0.00  0.00    +0.000 A 
ATOM      9  C   UNL     1       1.354   9.934  19.237  0.00  0.00    +0.000 A 
ATOM     10  N   UNL     1       1.365  10.952  18.304  0.00  0.00    +0.000 N 
ATOM     11  N   UNL     1       0.836  10.110  20.434  0.00  0.00    +0.000 NA
ATOM     12  H   UNL     1       1.660  10.688  17.371  0.00  0.00    +0.000 HD
ENDROOT
BRANCH  10  13
ATOM     13  C   UNL     1       1.149  12.318  18.529  0.00  0.00    +0.000 A 
ATOM     14  C   UNL     1       2.235  13.171  18.683  0.00  0.00    +0.000 A 
ATOM     15  C   UNL     1       2.036  14.548  18.848  0.00  0.00    +0.000 A 
ATOM     16  C   UNL     1       0.748  15.086  18.870  0.00  0.00    +0.000 A 
ATOM     17  N   UNL     1       0.550  16.446  19.010  0.00  0.00    +0.000 N 
ATOM     18  C   UNL     1       1.341  17.233  19.963  0.00  0.00    +0.000 C 
ATOM     19  C   UNL     1       0.474  17.747  21.124  0.00  0.00    +0.000 C 
ATOM     20  O   UNL     1      -0.699  18.428  20.662  0.00  0.00    +0.000 OA
ATOM     21  C   UNL     1      -1.508  17.525  19.888  0.00  0.00    +0.000 C 
ATOM     22  C   UNL     1      -0.752  17.027  18.649  0.00  0.00    +0.000 C 
ATOM     23  N   UNL     1      -0.313  14.278  18.691  0.00  0.00    +0.000 NA
ATOM     24  C   UNL     1      -0.095  12.944  18.512  0.00  0.00    +0.000 A 
ENDBRANCH  10  13
BRANCH   5  25
ATOM     25  C   UNL     1       2.610   5.173  19.880  0.00  0.00    +0.000 A 
ATOM     26  C   UNL     1       1.805   4.522  20.836  0.00  0.00    +0.000 A 
ATOM     27  N   UNL     1       2.298   3.334  21.195  0.00  0.00    +0.000 NA
ATOM     28  N   UNL     1       3.416   3.223  20.456  0.00  0.00    +0.000 N 
ATOM     29  C   UNL     1       3.625   4.284  19.620  0.00  0.00    +0.000 A 
ATOM     30  H   UNL     1       3.994   2.398  20.584  0.00  0.00    +0.000 HD
ENDBRANCH   5  25
TORSDOF 2
ENDMDL
MODEL 4
REMARK VINA RESULT:      -7.3      0.915      1.587
REMARK  Name = 
REMARK  3 active torsions:
REMARK  status: ('A' for Active; 'I' for Inactive)
REMARK    1  A    between atoms: C_1  and  C_2
REMARK    2  A    between atoms: C_5  and  C_6
REMARK    3  A    between atoms: N_15  and  C_16
REMARK                            x       y       z     vdW  Elec       q    Type
REMARK                         _______ _______ _______ _____ _____    ______ ____
ROOT
ATOM      1  C   UNL     1      -1.982  10.463  17.186  0.00  0.00    +0.000 C 
ATOM      2  C   UNL     1      -1.156  11.072  18.280  0.00  0.00    +0.000 A 
ATOM      3  C   UNL     1      -1.189  12.387  18.546  0.00  0.00    +0.000 A 
ATOM      4  N   UNL     1      -0.374  12.883  19.545  0.00  0.00    +0.000 N 
ATOM      5  C   UNL     1      -0.117  14.156  19.996  0.00  0.00    +0.000 A 
ATOM      6  C   UNL     1       0.916  14.006  20.904  0.00  0.00    +0.000 A 
ATOM      7  N   UNL     1       1.255  12.675  21.071  0.00  0.00    +0.000 NA
ATOM      8  C   UNL     1       0.464  12.039  20.231  0.00  0.00    +0.000 A 
ATOM      9  C   UNL     1       0.443  10.610  19.932  0.00  0.00    +0.000 A 
ATOM     10  N   UNL     1       1.233   9.733  20.648  0.00  0.00    +0.000 N 
ATOM     11  N   UNL     1      -0.361  10.184  18.980  0.00  0.00    +0.000 NA
ATOM     12  H   UNL     1       1.717  10.131  21.446  0.00  0.00    +0.000 HD
ENDROOT
BRANCH  10  13
ATOM     13  C   UNL     1       1.548   8.407  20.323  0.00  0.00    +0.000 A 
ATOM     14  C   UNL     1       2.175   8.124  19.115  0.00  0.00    +0.000 A 
ATOM     15  C   UNL     1       2.550   6.811  18.804  0.00  0.00    +0.000 A 
ATOM     16  C   UNL     1       2.294   5.765  19.692  0.00  0.00    +0.000 A 
ATOM     17  N   UNL     1       2.684   4.473  19.397  0.00  0.00    +0.000 N 
ATOM     18  C   UNL     1       2.513   3.918  18.049  0.00  0.00    +0.000 C 
ATOM     19  C   UNL     1       1.453   2.804  18.029  0.00  0.00    +0.000 C 
ATOM     20  O   UNL     1       1.702   1.804  19.027  0.00  0.00    +0.000 OA
ATOM     21  C   UNL     1       1.669   2.407  20.332  0.00  0.00    +0.000 C 
ATOM     22  C   UNL     1       2.760   3.476  20.477  0.00  0.00    +0.000 C 
ATOM     23  N   UNL     1       1.717   6.027  20.879  0.00  0.00    +0.000 NA
ATOM     24  C   UNL     1       1.379   7.314  21.170  0.00  0.00    +0.000 A 
ENDBRANCH  10  13
BRANCH   5  25
ATOM     25  C   UNL     1      -0.776  15.409  19.567  0.00  0.00    +0.000 A 
ATOM     26  C   UNL     1      -0.412  16.303  18.540  0.00  0.00    +0.000 A 
ATOM     27  N   UNL     1      -1.216  17.367  18.480  0.00  0.00    +0.000 NA
ATOM     28  N   UNL     1      -2.104  17.145  19.464  0.00  0.00    +0.000 N 
ATOM     29  C   UNL     1      -1.906  15.962  20.120  0.00  0.00    +0.000 A 
ATOM     30  H   UNL     1      -2.812  17.852  19.639  0.00  0.00    +0.000 HD
ENDBRANCH   5  25
TORSDOF 2
ENDMDL
MODEL 5
REMARK VINA RESULT:      -7.3      1.136      1.885
REMARK  Name = 
REMARK  3 active torsions:
REMARK  status: ('A' for Active; 'I' for Inactive)
REMARK    1  A    between atoms: C_1  and  C_2
REMARK    2  A    between atoms: C_5  and  C_6
REMARK    3  A    between atoms: N_15  and  C_16
REMARK                            x       y       z     vdW  Elec       q    Type
REMARK                         _______ _______ _______ _____ _____    ______ ____
ROOT
ATOM      1  C   UNL     1      -2.098  10.181  17.308  0.00  0.00    +0.000 C 
ATOM      2  C   UNL     1      -1.479  10.672  18.582  0.00  0.00    +0.000 A 
ATOM      3  C   UNL     1      -1.756  11.885  19.084  0.00  0.00    +0.000 A 
ATOM      4  N   UNL     1      -1.119  12.285  20.243  0.00  0.00    +0.000 N 
ATOM      5  C   UNL     1      -1.119  13.464  20.951  0.00  0.00    +0.000 A 
ATOM      6  C   UNL     1      -0.153  13.290  21.925  0.00  0.00    +0.000 A 
ATOM      7  N   UNL     1       0.392  12.019  21.877  0.00  0.00    +0.000 NA
ATOM      8  C   UNL     1      -0.209  11.455  20.850  0.00  0.00    +0.000 A 
ATOM      9  C   UNL     1       0.037  10.130  20.287  0.00  0.00    +0.000 A 
ATOM     10  N   UNL     1       0.904   9.255  20.911  0.00  0.00    +0.000 N 
ATOM     11  N   UNL     1      -0.603   9.790  19.188  0.00  0.00    +0.000 NA
ATOM     12  H   UNL     1       1.247   9.550  21.818  0.00  0.00    +0.000 HD
ENDROOT
BRANCH  10  13
ATOM     13  C   UNL     1       1.465   8.086  20.381  0.00  0.00    +0.000 A 
ATOM     14  C   UNL     1       2.171   8.140  19.185  0.00  0.00    +0.000 A 
ATOM     15  C   UNL     1       2.788   6.991  18.674  0.00  0.00    +0.000 A 
ATOM     16  C   UNL     1       2.697   5.772  19.349  0.00  0.00    +0.000 A 
ATOM     17  N   UNL     1       3.324   4.643  18.859  0.00  0.00    +0.000 N 
ATOM     18  C   UNL     1       3.300   4.324  17.427  0.00  0.00    +0.000 C 
ATOM     19  C   UNL     1       2.461   3.066  17.145  0.00  0.00    +0.000 C 
ATOM     20  O   UNL     1       2.855   1.959  17.966  0.00  0.00    +0.000 OA
ATOM     21  C   UNL     1       2.672   2.297  19.352  0.00  0.00    +0.000 C 
ATOM     22  C   UNL     1       3.545   3.494  19.751  0.00  0.00    +0.000 C 
ATOM     23  N   UNL     1       2.044   5.709  20.523  0.00  0.00    +0.000 NA
ATOM     24  C   UNL     1       1.469   6.844  21.012  0.00  0.00    +0.000 A 
ENDBRANCH  10  13
BRANCH   5  25
ATOM     25  C   UNL     1      -1.945  14.664  20.692  0.00  0.00    +0.000 A 
ATOM     26  C   UNL     1      -3.294  14.908  21.023  0.00  0.00    +0.000 A 
ATOM     27  N   UNL     1      -3.724  16.090  20.575  0.00  0.00    +0.000 NA
ATOM     28  N   UNL     1      -2.643  16.606  19.966  0.00  0.00    +0.000 N 
ATOM     29  C   UNL     1      -1.537  15.805  20.044  0.00  0.00    +0.000 A 
ATOM     30  H   UNL     1      -2.737  17.508  19.507  0.00  0.00    +0.000 HD
ENDBRANCH   5  25
TORSDOF 2
ENDMDL
MODEL 6
REMARK VINA RESULT:      -7.3      3.647      9.920
REMARK  Name = 
REMARK  3 active torsions:
REMARK  status: ('A' for Active; 'I' for Inactive)
REMARK    1  A    between atoms: C_1  and  C_2
REMARK    2  A    between atoms: C_5  and  C_6
REMARK    3  A    between atoms: N_15  and  C_16
REMARK                            x       y       z     vdW  Elec       q    Type
REMARK                         _______ _______ _______ _____ _____    ______ ____
ROOT
ATOM      1  C   UNL     1      -0.035   9.005  22.510  0.00  0.00    +0.000 C 
ATOM      2  C   UNL     1       0.678   8.671  21.234  0.00  0.00    +0.000 A 
ATOM      3  C   UNL     1       1.204   7.457  21.012  0.00  0.00    +0.000 A 
ATOM      4  N   UNL     1       1.879   7.233  19.827  0.00  0.00    +0.000 N 
ATOM      5  C   UNL     1       2.584   6.156  19.343  0.00  0.00    +0.000 A 
ATOM      6  C   UNL     1       3.160   6.611  18.171  0.00  0.00    +0.000 A 
ATOM      7  N   UNL     1       2.777   7.911  17.889  0.00  0.00    +0.000 NA
ATOM      8  C   UNL     1       2.018   8.246  18.912  0.00  0.00    +0.000 A 
ATOM      9  C   UNL     1       1.400   9.542  19.180  0.00  0.00    +0.000 A 
ATOM     10  N   UNL     1       1.476  10.559  18.249  0.00  0.00    +0.000 N 
ATOM     11  N   UNL     1       0.757   9.704  20.317  0.00  0.00    +0.000 NA
ATOM     12  H   UNL     1       1.874  10.303  17.352  0.00  0.00    +0.000 HD
ENDROOT
BRANCH  10  13
ATOM     13  C   UNL     1       1.198  11.918  18.445  0.00  0.00    +0.000 A 
ATOM     14  C   UNL     1      -0.120  12.340  18.576  0.00  0.00    +0.000 A 
ATOM     15  C   UNL     1      -0.410  13.686  18.833  0.00  0.00    +0.000 A 
ATOM     16  C   UNL     1       0.614  14.627  18.952  0.00  0.00    +0.000 A 
ATOM     17  N   UNL     1       0.332  15.951  19.228  0.00  0.00    +0.000 N 
ATOM     18  C   UNL     1      -0.787  16.640  18.573  0.00  0.00    +0.000 C 
ATOM     19  C   UNL     1      -0.289  17.728  17.606  0.00  0.00    +0.000 C 
ATOM     20  O   UNL     1       0.640  18.622  18.232  0.00  0.00    +0.000 OA
ATOM     21  C   UNL     1       1.791  17.886  18.682  0.00  0.00    +0.000 C 
ATOM     22  C   UNL     1       1.401  16.830  19.724  0.00  0.00    +0.000 C 
ATOM     23  N   UNL     1       1.896  14.230  18.859  0.00  0.00    +0.000 NA
ATOM     24  C   UNL     1       2.156  12.912  18.629  0.00  0.00    +0.000 A 
ENDBRANCH  10  13
BRANCH   5  25
ATOM     25  C   UNL     1       2.725   4.822  19.968  0.00  0.00    +0.000 A 
ATOM     26  C   UNL     1       2.186   4.342  21.178  0.00  0.00    +0.000 A 
ATOM     27  N   UNL     1       2.577   3.095  21.453  0.00  0.00    +0.000 NA
ATOM     28  N   UNL     1       3.359   2.775  20.408  0.00  0.00    +0.000 N 
ATOM     29  C   UNL     1       3.447   3.765  19.469  0.00  0.00    +0.000 A 
ATOM     30  H   UNL     1       3.810   1.865  20.409  0.00  0.00    +0.000 HD
ENDBRANCH   5  25
TORSDOF 2
ENDMDL
MODEL 7
REMARK VINA RESULT:      -7.2      1.895      2.802
REMARK  Name = 
REMARK  3 active torsions:
REMARK  status: ('A' for Active; 'I' for Inactive)
REMARK    1  A    between atoms: C_1  and  C_2
REMARK    2  A    between atoms: C_5  and  C_6
REMARK    3  A    between atoms: N_15  and  C_16
REMARK                            x       y       z     vdW  Elec       q    Type
REMARK                         _______ _______ _______ _____ _____    ______ ____
ROOT
ATOM      1  C   UNL     1      -0.010   9.400  23.388  0.00  0.00    +0.000 C 
ATOM      2  C   UNL     1       0.001  10.172  22.103  0.00  0.00    +0.000 A 
ATOM      3  C   UNL     1      -0.672  11.324  21.961  0.00  0.00    +0.000 A 
ATOM      4  N   UNL     1      -0.645  11.962  20.735  0.00  0.00    +0.000 N 
ATOM      5  C   UNL     1      -1.279  13.082  20.251  0.00  0.00    +0.000 A 
ATOM      6  C   UNL     1      -0.970  13.105  18.903  0.00  0.00    +0.000 A 
ATOM      7  N   UNL     1      -0.116  12.072  18.560  0.00  0.00    +0.000 NA
ATOM      8  C   UNL     1       0.044  11.407  19.686  0.00  0.00    +0.000 A 
ATOM      9  C   UNL     1       0.790  10.169  19.895  0.00  0.00    +0.000 A 
ATOM     10  N   UNL     1       1.539   9.623  18.871  0.00  0.00    +0.000 N 
ATOM     11  N   UNL     1       0.745   9.606  21.084  0.00  0.00    +0.000 NA
ATOM     12  H   UNL     1       1.622  10.192  18.037  0.00  0.00    +0.000 HD
ENDROOT
BRANCH  10  13
ATOM     13  C   UNL     1       2.075   8.330  18.802  0.00  0.00    +0.000 A 
ATOM     14  C   UNL     1       2.820   7.951  17.691  0.00  0.00    +0.000 A 
ATOM     15  C   UNL     1       3.413   6.683  17.635  0.00  0.00    +0.000 A 
ATOM     16  C   UNL     1       3.260   5.777  18.686  0.00  0.00    +0.000 A 
ATOM     17  N   UNL     1       3.862   4.534  18.643  0.00  0.00    +0.000 N 
ATOM     18  C   UNL     1       3.872   3.738  17.410  0.00  0.00    +0.000 C 
ATOM     19  C   UNL     1       3.000   2.479  17.547  0.00  0.00    +0.000 C 
ATOM     20  O   UNL     1       3.329   1.718  18.716  0.00  0.00    +0.000 OA
ATOM     21  C   UNL     1       3.115   2.520  19.891  0.00  0.00    +0.000 C 
ATOM     22  C   UNL     1       4.015   3.762  19.886  0.00  0.00    +0.000 C 
ATOM     23  N   UNL     1       2.569   6.139  19.782  0.00  0.00    +0.000 NA
ATOM     24  C   UNL     1       2.017   7.385  19.823  0.00  0.00    +0.000 A 
ENDBRANCH  10  13
BRANCH   5  25
ATOM     25  C   UNL     1      -2.134  14.025  21.005  0.00  0.00    +0.000 A 
ATOM     26  C   UNL     1      -1.761  15.045  21.903  0.00  0.00    +0.000 A 
ATOM     27  N   UNL     1      -2.816  15.660  22.444  0.00  0.00    +0.000 NA
ATOM     28  N   UNL     1      -3.864  15.038  21.880  0.00  0.00    +0.000 N 
ATOM     29  C   UNL     1      -3.507  14.075  20.978  0.00  0.00    +0.000 A 
ATOM     30  H   UNL     1      -4.798  15.316  22.168  0.00  0.00    +0.000 HD
ENDBRANCH   5  25
TORSDOF 2
ENDMDL
MODEL 8
REMARK VINA RESULT:      -7.2      2.601      3.606
REMARK  Name = 
REMARK  3 active torsions:
REMARK  status: ('A' for Active; 'I' for Inactive)
REMARK    1  A    between atoms: C_1  and  C_2
REMARK    2  A    between atoms: C_5  and  C_6
REMARK    3  A    between atoms: N_15  and  C_16
REMARK                            x       y       z     vdW  Elec       q    Type
REMARK                         _______ _______ _______ _____ _____    ______ ____
ROOT
ATOM      1  C   UNL     1       0.108   9.451  23.913  0.00  0.00    +0.000 C 
ATOM      2  C   UNL     1      -0.315  10.206  22.688  0.00  0.00    +0.000 A 
ATOM      3  C   UNL     1      -1.264  11.153  22.731  0.00  0.00    +0.000 A 
ATOM      4  N   UNL     1      -1.628  11.781  21.555  0.00  0.00    +0.000 N 
ATOM      5  C   UNL     1      -2.597  12.709  21.253  0.00  0.00    +0.000 A 
ATOM      6  C   UNL     1      -2.566  12.813  19.874  0.00  0.00    +0.000 A 
ATOM      7  N   UNL     1      -1.567  12.027  19.328  0.00  0.00    +0.000 NA
ATOM      8  C   UNL     1      -1.037  11.420  20.371  0.00  0.00    +0.000 A 
ATOM      9  C   UNL     1       0.015  10.407  20.376  0.00  0.00    +0.000 A 
ATOM     10  N   UNL     1       0.665  10.068  19.205  0.00  0.00    +0.000 N 
ATOM     11  N   UNL     1       0.336   9.846  21.522  0.00  0.00    +0.000 NA
ATOM     12  H   UNL     1       0.446  10.643  18.400  0.00  0.00    +0.000 HD
ENDROOT
BRANCH  10  13
ATOM     13  C   UNL     1       1.478   8.950  18.974  0.00  0.00    +0.000 A 
ATOM     14  C   UNL     1       2.191   8.851  17.784  0.00  0.00    +0.000 A 
ATOM     15  C   UNL     1       3.054   7.770  17.565  0.00  0.00    +0.000 A 
ATOM     16  C   UNL     1       3.207   6.771  18.527  0.00  0.00    +0.000 A 
ATOM     17  N   UNL     1       4.075   5.716  18.323  0.00  0.00    +0.000 N 
ATOM     18  C   UNL     1       4.161   5.048  17.019  0.00  0.00    +0.000 C 
ATOM     19  C   UNL     1       3.620   3.610  17.086  0.00  0.00    +0.000 C 
ATOM     20  O   UNL     1       4.216   2.857  18.150  0.00  0.00    +0.000 OA
ATOM     21  C   UNL     1       3.925   3.487  19.410  0.00  0.00    +0.000 C 
ATOM     22  C   UNL     1       4.509   4.904  19.470  0.00  0.00    +0.000 C 
ATOM     23  N   UNL     1       2.548   6.868  19.697  0.00  0.00    +0.000 NA
ATOM     24  C   UNL     1       1.729   7.939  19.898  0.00  0.00    +0.000 A 
ENDBRANCH  10  13
BRANCH   5  25
ATOM     25  C   UNL     1      -3.497  13.407  22.198  0.00  0.00    +0.000 A 
ATOM     26  C   UNL     1      -3.244  14.537  23.002  0.00  0.00    +0.000 A 
ATOM     27  N   UNL     1      -4.283  14.852  23.781  0.00  0.00    +0.000 NA
ATOM     28  N   UNL     1      -5.204  13.926  23.464  0.00  0.00    +0.000 N 
ATOM     29  C   UNL     1      -4.794  13.060  22.489  0.00  0.00    +0.000 A 
ATOM     30  H   UNL     1      -6.088  13.940  23.963  0.00  0.00    +0.000 HD
ENDBRANCH   5  25
TORSDOF 2
ENDMDL
MODEL 9
REMARK VINA RESULT:      -7.0      1.777      2.072
REMARK  Name = 
REMARK  3 active torsions:
REMARK  status: ('A' for Active; 'I' for Inactive)
REMARK    1  A    between atoms: C_1  and  C_2
REMARK    2  A    between atoms: C_5  and  C_6
REMARK    3  A    between atoms: N_15  and  C_16
REMARK                            x       y       z     vdW  Elec       q    Type
REMARK                         _______ _______ _______ _____ _____    ______ ____
ROOT
ATOM      1  C   UNL     1      -2.031  10.254  17.070  0.00  0.00    +0.000 C 
ATOM      2  C   UNL     1      -1.604  10.658  18.449  0.00  0.00    +0.000 A 
ATOM      3  C   UNL     1      -2.089  11.756  19.049  0.00  0.00    +0.000 A 
ATOM      4  N   UNL     1      -1.622  12.087  20.306  0.00  0.00    +0.000 N 
ATOM      5  C   UNL     1      -1.849  13.161  21.135  0.00  0.00    +0.000 A 
ATOM      6  C   UNL     1      -0.961  12.991  22.182  0.00  0.00    +0.000 A 
ATOM      7  N   UNL     1      -0.244  11.815  22.053  0.00  0.00    +0.000 NA
ATOM      8  C   UNL     1      -0.666  11.310  20.911  0.00  0.00    +0.000 A 
ATOM      9  C   UNL     1      -0.190  10.106  20.236  0.00  0.00    +0.000 A 
ATOM     10  N   UNL     1       0.729   9.277  20.849  0.00  0.00    +0.000 N 
ATOM     11  N   UNL     1      -0.674   9.826  19.045  0.00  0.00    +0.000 NA
ATOM     12  H   UNL     1       0.944   9.499  21.815  0.00  0.00    +0.000 HD
ENDROOT
BRANCH  10  13
ATOM     13  C   UNL     1       1.490   8.261  20.257  0.00  0.00    +0.000 A 
ATOM     14  C   UNL     1       1.553   7.008  20.855  0.00  0.00    +0.000 A 
ATOM     15  C   UNL     1       2.260   5.966  20.243  0.00  0.00    +0.000 A 
ATOM     16  C   UNL     1       2.923   6.168  19.030  0.00  0.00    +0.000 A 
ATOM     17  N   UNL     1       3.602   5.135  18.413  0.00  0.00    +0.000 N 
ATOM     18  C   UNL     1       4.434   4.207  19.187  0.00  0.00    +0.000 C 
ATOM     19  C   UNL     1       5.927   4.383  18.861  0.00  0.00    +0.000 C 
ATOM     20  O   UNL     1       6.181   4.334  17.451  0.00  0.00    +0.000 OA
ATOM     21  C   UNL     1       5.468   5.396  16.794  0.00  0.00    +0.000 C 
ATOM     22  C   UNL     1       3.953   5.251  16.989  0.00  0.00    +0.000 C 
ATOM     23  N   UNL     1       2.846   7.366  18.422  0.00  0.00    +0.000 NA
ATOM     24  C   UNL     1       2.135   8.360  19.026  0.00  0.00    +0.000 A 
ENDBRANCH  10  13
BRANCH   5  25
ATOM     25  C   UNL     1      -2.805  14.270  20.923  0.00  0.00    +0.000 A 
ATOM     26  C   UNL     1      -4.214  14.240  20.889  0.00  0.00    +0.000 A 
ATOM     27  N   UNL     1      -4.743  15.435  20.613  0.00  0.00    +0.000 NA
ATOM     28  N   UNL     1      -3.669  16.231  20.482  0.00  0.00    +0.000 N 
ATOM     29  C   UNL     1      -2.482  15.587  20.699  0.00  0.00    +0.000 A 
ATOM     30  H   UNL     1      -3.822  17.204  20.232  0.00  0.00    +0.000 HD
ENDBRANCH   5  25
TORSDOF 2
ENDMDL
