MODEL 1
REMARK VINA RESULT:      -8.7      0.000      0.000
REMARK  Name = 
REMARK  11 active torsions:
REMARK  status: ('A' for Active; 'I' for Inactive)
REMARK    1  A    between atoms: C_2  and  C_3
REMARK    2  A    between atoms: C_3  and  C_4
REMARK    3  A    between atoms: C_3  and  C_5
REMARK    4  A    between atoms: C_3  and  C_23
REMARK    5  A    between atoms: C_6  and  C_7
REMARK    6  A    between atoms: C_10  and  N_11
REMARK    7  A    between atoms: N_11  and  C_12
REMARK    8  A    between atoms: C_23  and  C_24
REMARK    9  A    between atoms: C_24  and  C_25
REMARK   10  A    between atoms: C_26  and  C_27
REMARK   11  A    between atoms: C_26  and  C_28
REMARK                            x       y       z     vdW  Elec       q    Type
REMARK                         _______ _______ _______ _____ _____    ______ ____
ROOT
ATOM      1  C   UNL     1       2.714   7.513  18.698  0.00  0.00    +0.000 A 
ATOM      2  C   UNL     1       2.571   8.387  17.622  0.00  0.00    +0.000 A 
ATOM      3  C   UNL     1       1.698   9.468  17.716  0.00  0.00    +0.000 A 
ATOM      4  C   UNL     1       0.955   9.700  18.881  0.00  0.00    +0.000 A 
ATOM      5  C   UNL     1       1.111   8.821  19.959  0.00  0.00    +0.000 A 
ATOM      6  C   UNL     1       1.987   7.733  19.870  0.00  0.00    +0.000 A 
ENDROOT
BRANCH   1   8
ATOM      7  C   UNL     1       3.300   5.287  17.863  0.00  0.00    +0.000 C 
ATOM      8  C   UNL     1       3.622   6.378  18.574  0.00  0.00    +0.000 C 
BRANCH   7   9
ATOM      9  C   UNL     1       4.158   4.026  17.720  0.00  0.00    +0.000 C 
ATOM     10  C   UNL     1       4.918   3.754  19.042  0.00  0.00    +0.000 C 
BRANCH   9  12
ATOM     11  C   UNL     1       5.183   5.325  15.752  0.00  0.00    +0.000 C 
ATOM     12  C   UNL     1       5.071   4.229  16.515  0.00  0.00    +0.000 C 
ENDBRANCH   9  12
BRANCH   9  13
ATOM     13  C   UNL     1       3.205   2.819  17.431  0.00  0.00    +0.000 C 
BRANCH  13  14
ATOM     14  C   UNL     1       1.793   2.965  18.021  0.00  0.00    +0.000 C 
BRANCH  14  15
ATOM     15  C   UNL     1       1.671   2.373  19.398  0.00  0.00    +0.000 C 
ATOM     16  C   UNL     1       1.407   3.043  20.537  0.00  0.00    +0.000 C 
ATOM     17  C   UNL     1       1.087   4.513  20.606  0.00  0.00    +0.000 C 
ATOM     18  C   UNL     1       1.414   2.345  21.869  0.00  0.00    +0.000 C 
ENDBRANCH  14  15
ENDBRANCH  13  14
ENDBRANCH   9  13
ENDBRANCH   7   9
ENDBRANCH   1   8
BRANCH   4  19
ATOM     19  N   UNL     1      -0.001  10.727  18.943  0.00  0.00    +0.000 N 
ATOM     20  H   UNL     1       0.214  11.497  19.569  0.00  0.00    +0.000 HD
BRANCH  19  21
ATOM     21  C   UNL     1      -1.303  10.755  18.408  0.00  0.00    +0.000 A 
ATOM     22  C   UNL     1      -1.637  10.030  17.254  0.00  0.00    +0.000 A 
ATOM     23  C   UNL     1      -2.919  10.108  16.723  0.00  0.00    +0.000 A 
ATOM     24  F   UNL     1      -3.220   9.390  15.632  0.00  0.00    +0.000 F 
ATOM     25  C   UNL     1      -3.879  10.918  17.317  0.00  0.00    +0.000 A 
ATOM     26  F   UNL     1      -5.113  10.987  16.798  0.00  0.00    +0.000 F 
ATOM     27  C   UNL     1      -3.572  11.661  18.447  0.00  0.00    +0.000 A 
ATOM     28  C   UNL     1      -2.290  11.573  18.984  0.00  0.00    +0.000 A 
ATOM     29  F   UNL     1      -1.994  12.306  20.069  0.00  0.00    +0.000 F 
ENDBRANCH  19  21
ENDBRANCH   4  19
TORSDOF 8
ENDMDL
MODEL 2
REMARK VINA RESULT:      -8.6      6.845     10.124
REMARK  Name = 
REMARK  11 active torsions:
REMARK  status: ('A' for Active; 'I' for Inactive)
REMARK    1  A    between atoms: C_2  and  C_3
REMARK    2  A    between atoms: C_3  and  C_4
REMARK    3  A    between atoms: C_3  and  C_5
REMARK    4  A    between atoms: C_3  and  C_23
REMARK    5  A    between atoms: C_6  and  C_7
REMARK    6  A    between atoms: C_10  and  N_11
REMARK    7  A    between atoms: N_11  and  C_12
REMARK    8  A    between atoms: C_23  and  C_24
REMARK    9  A    between atoms: C_24  and  C_25
REMARK   10  A    between atoms: C_26  and  C_27
REMARK   11  A    between atoms: C_26  and  C_28
REMARK                            x       y       z     vdW  Elec       q    Type
REMARK                         _______ _______ _______ _____ _____    ______ ____
ROOT
ATOM      1  C   UNL     1       7.650   7.750  17.942  0.00  0.00    +0.000 A 
ATOM      2  C   UNL     1       6.487   7.445  17.238  0.00  0.00    +0.000 A 
ATOM      3  C   UNL     1       5.894   6.193  17.385  0.00  0.00    +0.000 A 
ATOM      4  C   UNL     1       6.446   5.226  18.236  0.00  0.00    +0.000 A 
ATOM      5  C   UNL     1       7.611   5.545  18.944  0.00  0.00    +0.000 A 
ATOM      6  C   UNL     1       8.211   6.801  18.800  0.00  0.00    +0.000 A 
ENDROOT
BRANCH   1   8
ATOM      7  C   UNL     1       8.868   9.706  18.772  0.00  0.00    +0.000 C 
ATOM      8  C   UNL     1       8.264   9.062  17.762  0.00  0.00    +0.000 C 
BRANCH   7   9
ATOM      9  C   UNL     1       9.489  11.104  18.698  0.00  0.00    +0.000 C 
ATOM     10  C   UNL     1      10.767  11.066  17.821  0.00  0.00    +0.000 C 
BRANCH   9  12
ATOM     11  C   UNL     1      10.902  11.963  20.668  0.00  0.00    +0.000 C 
ATOM     12  C   UNL     1       9.739  11.569  20.129  0.00  0.00    +0.000 C 
ENDBRANCH   9  12
BRANCH   9  13
ATOM     13  C   UNL     1       8.451  12.065  18.031  0.00  0.00    +0.000 C 
BRANCH  13  14
ATOM     14  C   UNL     1       9.065  13.310  17.369  0.00  0.00    +0.000 C 
BRANCH  14  15
ATOM     15  C   UNL     1       9.079  14.508  18.278  0.00  0.00    +0.000 C 
ATOM     16  C   UNL     1      10.170  15.154  18.734  0.00  0.00    +0.000 C 
ATOM     17  C   UNL     1      11.583  14.837  18.320  0.00  0.00    +0.000 C 
ATOM     18  C   UNL     1      10.049  16.280  19.724  0.00  0.00    +0.000 C 
ENDBRANCH  14  15
ENDBRANCH  13  14
ENDBRANCH   9  13
ENDBRANCH   7   9
ENDBRANCH   1   8
BRANCH   4  19
ATOM     19  N   UNL     1       5.910   3.930  18.309  0.00  0.00    +0.000 N 
ATOM     20  H   UNL     1       6.549   3.172  18.090  0.00  0.00    +0.000 HD
BRANCH  19  21
ATOM     21  C   UNL     1       4.567   3.537  18.459  0.00  0.00    +0.000 A 
ATOM     22  C   UNL     1       4.057   3.127  19.700  0.00  0.00    +0.000 A 
ATOM     23  C   UNL     1       2.737   2.705  19.813  0.00  0.00    +0.000 A 
ATOM     24  F   UNL     1       2.267   2.338  21.013  0.00  0.00    +0.000 F 
ATOM     25  C   UNL     1       1.913   2.667  18.695  0.00  0.00    +0.000 A 
ATOM     26  F   UNL     1       0.641   2.259  18.812  0.00  0.00    +0.000 F 
ATOM     27  C   UNL     1       2.395   3.049  17.451  0.00  0.00    +0.000 A 
ATOM     28  C   UNL     1       3.714   3.481  17.343  0.00  0.00    +0.000 A 
ATOM     29  F   UNL     1       4.179   3.835  16.136  0.00  0.00    +0.000 F 
ENDBRANCH  19  21
ENDBRANCH   4  19
TORSDOF 8
ENDMDL
MODEL 3
REMARK VINA RESULT:      -8.6      6.960     10.089
REMARK  Name = 
REMARK  11 active torsions:
REMARK  status: ('A' for Active; 'I' for Inactive)
REMARK    1  A    between atoms: C_2  and  C_3
REMARK    2  A    between atoms: C_3  and  C_4
REMARK    3  A    between atoms: C_3  and  C_5
REMARK    4  A    between atoms: C_3  and  C_23
REMARK    5  A    between atoms: C_6  and  C_7
REMARK    6  A    between atoms: C_10  and  N_11
REMARK    7  A    between atoms: N_11  and  C_12
REMARK    8  A    between atoms: C_23  and  C_24
REMARK    9  A    between atoms: C_24  and  C_25
REMARK   10  A    between atoms: C_26  and  C_27
REMARK   11  A    between atoms: C_26  and  C_28
REMARK                            x       y       z     vdW  Elec       q    Type
REMARK                         _______ _______ _______ _____ _____    ______ ____
ROOT
ATOM      1  C   UNL     1       7.657   7.840  17.905  0.00  0.00    +0.000 A 
ATOM      2  C   UNL     1       8.223   6.941  18.807  0.00  0.00    +0.000 A 
ATOM      3  C   UNL     1       7.698   5.656  18.930  0.00  0.00    +0.000 A 
ATOM      4  C   UNL     1       6.605   5.244  18.156  0.00  0.00    +0.000 A 
ATOM      5  C   UNL     1       6.049   6.152  17.247  0.00  0.00    +0.000 A 
ATOM      6  C   UNL     1       6.572   7.444  17.120  0.00  0.00    +0.000 A 
ENDROOT
BRANCH   1   8
ATOM      7  C   UNL     1       8.948   9.725  18.786  0.00  0.00    +0.000 C 
ATOM      8  C   UNL     1       8.213   9.185  17.803  0.00  0.00    +0.000 C 
BRANCH   7   9
ATOM      9  C   UNL     1       9.525  11.144  18.798  0.00  0.00    +0.000 C 
ATOM     10  C   UNL     1       8.577  12.103  18.033  0.00  0.00    +0.000 C 
BRANCH   9  12
ATOM     11  C   UNL     1      11.992  11.820  18.540  0.00  0.00    +0.000 C 
ATOM     12  C   UNL     1      10.930  11.071  18.211  0.00  0.00    +0.000 C 
ENDBRANCH   9  12
BRANCH   9  13
ATOM     13  C   UNL     1       9.625  11.617  20.286  0.00  0.00    +0.000 C 
BRANCH  13  14
ATOM     14  C   UNL     1       8.912  12.947  20.582  0.00  0.00    +0.000 C 
BRANCH  14  15
ATOM     15  C   UNL     1       9.850  14.017  21.069  0.00  0.00    +0.000 C 
ATOM     16  C   UNL     1      10.466  14.946  20.312  0.00  0.00    +0.000 C 
ATOM     17  C   UNL     1      10.235  15.133  18.835  0.00  0.00    +0.000 C 
ATOM     18  C   UNL     1      11.464  15.899  20.910  0.00  0.00    +0.000 C 
ENDBRANCH  14  15
ENDBRANCH  13  14
ENDBRANCH   9  13
ENDBRANCH   7   9
ENDBRANCH   1   8
BRANCH   4  19
ATOM     19  N   UNL     1       6.009   3.987  18.349  0.00  0.00    +0.000 N 
ATOM     20  H   UNL     1       6.627   3.185  18.271  0.00  0.00    +0.000 HD
BRANCH  19  21
ATOM     21  C   UNL     1       4.642   3.664  18.448  0.00  0.00    +0.000 A 
ATOM     22  C   UNL     1       4.044   3.378  19.684  0.00  0.00    +0.000 A 
ATOM     23  C   UNL     1       2.702   3.021  19.750  0.00  0.00    +0.000 A 
ATOM     24  F   UNL     1       2.148   2.773  20.944  0.00  0.00    +0.000 F 
ATOM     25  C   UNL     1       1.942   2.926  18.590  0.00  0.00    +0.000 A 
ATOM     26  F   UNL     1       0.649   2.582  18.662  0.00  0.00    +0.000 F 
ATOM     27  C   UNL     1       2.511   3.184  17.352  0.00  0.00    +0.000 A 
ATOM     28  C   UNL     1       3.853   3.551  17.290  0.00  0.00    +0.000 A 
ATOM     29  F   UNL     1       4.402   3.786  16.089  0.00  0.00    +0.000 F 
ENDBRANCH  19  21
ENDBRANCH   4  19
TORSDOF 8
ENDMDL
MODEL 4
REMARK VINA RESULT:      -8.5      6.338      9.761
REMARK  Name = 
REMARK  11 active torsions:
REMARK  status: ('A' for Active; 'I' for Inactive)
REMARK    1  A    between atoms: C_2  and  C_3
REMARK    2  A    between atoms: C_3  and  C_4
REMARK    3  A    between atoms: C_3  and  C_5
REMARK    4  A    between atoms: C_3  and  C_23
REMARK    5  A    between atoms: C_6  and  C_7
REMARK    6  A    between atoms: C_10  and  N_11
REMARK    7  A    between atoms: N_11  and  C_12
REMARK    8  A    between atoms: C_23  and  C_24
REMARK    9  A    between atoms: C_24  and  C_25
REMARK   10  A    between atoms: C_26  and  C_27
REMARK   11  A    between atoms: C_26  and  C_28
REMARK                            x       y       z     vdW  Elec       q    Type
REMARK                         _______ _______ _______ _____ _____    ______ ____
ROOT
ATOM      1  C   UNL     1       7.598   7.805  17.883  0.00  0.00    +0.000 A 
ATOM      2  C   UNL     1       8.161   6.910  18.790  0.00  0.00    +0.000 A 
ATOM      3  C   UNL     1       7.664   5.612  18.885  0.00  0.00    +0.000 A 
ATOM      4  C   UNL     1       6.601   5.183  18.079  0.00  0.00    +0.000 A 
ATOM      5  C   UNL     1       6.048   6.087  17.165  0.00  0.00    +0.000 A 
ATOM      6  C   UNL     1       6.543   7.392  17.065  0.00  0.00    +0.000 A 
ENDROOT
BRANCH   1   8
ATOM      7  C   UNL     1       8.967   9.649  18.732  0.00  0.00    +0.000 C 
ATOM      8  C   UNL     1       8.123   9.164  17.809  0.00  0.00    +0.000 C 
BRANCH   7   9
ATOM      9  C   UNL     1       9.527  11.074  18.774  0.00  0.00    +0.000 C 
ATOM     10  C   UNL     1      10.980  11.083  18.235  0.00  0.00    +0.000 C 
BRANCH   9  12
ATOM     11  C   UNL     1      10.353  12.138  20.964  0.00  0.00    +0.000 C 
ATOM     12  C   UNL     1       9.400  11.574  20.209  0.00  0.00    +0.000 C 
ENDBRANCH   9  12
BRANCH   9  13
ATOM     13  C   UNL     1       8.643  11.973  17.848  0.00  0.00    +0.000 C 
BRANCH  13  14
ATOM     14  C   UNL     1       8.965  13.475  17.919  0.00  0.00    +0.000 C 
BRANCH  14  15
ATOM     15  C   UNL     1       7.736  14.339  17.856  0.00  0.00    +0.000 C 
ATOM     16  C   UNL     1       7.050  14.832  18.906  0.00  0.00    +0.000 C 
ATOM     17  C   UNL     1       7.466  14.678  20.345  0.00  0.00    +0.000 C 
ATOM     18  C   UNL     1       5.773  15.602  18.707  0.00  0.00    +0.000 C 
ENDBRANCH  14  15
ENDBRANCH  13  14
ENDBRANCH   9  13
ENDBRANCH   7   9
ENDBRANCH   1   8
BRANCH   4  19
ATOM     19  N   UNL     1       6.031   3.910  18.243  0.00  0.00    +0.000 N 
ATOM     20  H   UNL     1       6.651   3.121  18.087  0.00  0.00    +0.000 HD
BRANCH  19  21
ATOM     21  C   UNL     1       4.676   3.564  18.407  0.00  0.00    +0.000 A 
ATOM     22  C   UNL     1       4.152   3.229  19.664  0.00  0.00    +0.000 A 
ATOM     23  C   UNL     1       2.820   2.852  19.792  0.00  0.00    +0.000 A 
ATOM     24  F   UNL     1       2.337   2.557  21.007  0.00  0.00    +0.000 F 
ATOM     25  C   UNL     1       1.997   2.785  18.675  0.00  0.00    +0.000 A 
ATOM     26  F   UNL     1       0.714   2.420  18.807  0.00  0.00    +0.000 F 
ATOM     27  C   UNL     1       2.492   3.092  17.416  0.00  0.00    +0.000 A 
ATOM     28  C   UNL     1       3.824   3.479  17.292  0.00  0.00    +0.000 A 
ATOM     29  F   UNL     1       4.302   3.761  16.070  0.00  0.00    +0.000 F 
ENDBRANCH  19  21
ENDBRANCH   4  19
TORSDOF 8
ENDMDL
MODEL 5
REMARK VINA RESULT:      -8.4      0.776      1.266
REMARK  Name = 
REMARK  11 active torsions:
REMARK  status: ('A' for Active; 'I' for Inactive)
REMARK    1  A    between atoms: C_2  and  C_3
REMARK    2  A    between atoms: C_3  and  C_4
REMARK    3  A    between atoms: C_3  and  C_5
REMARK    4  A    between atoms: C_3  and  C_23
REMARK    5  A    between atoms: C_6  and  C_7
REMARK    6  A    between atoms: C_10  and  N_11
REMARK    7  A    between atoms: N_11  and  C_12
REMARK    8  A    between atoms: C_23  and  C_24
REMARK    9  A    between atoms: C_24  and  C_25
REMARK   10  A    between atoms: C_26  and  C_27
REMARK   11  A    between atoms: C_26  and  C_28
REMARK                            x       y       z     vdW  Elec       q    Type
REMARK                         _______ _______ _______ _____ _____    ______ ____
ROOT
ATOM      1  C   UNL     1       2.623   7.538  18.866  0.00  0.00    +0.000 A 
ATOM      2  C   UNL     1       2.509   8.386  17.767  0.00  0.00    +0.000 A 
ATOM      3  C   UNL     1       1.650   9.481  17.820  0.00  0.00    +0.000 A 
ATOM      4  C   UNL     1       0.892   9.751  18.967  0.00  0.00    +0.000 A 
ATOM      5  C   UNL     1       1.020   8.898  20.070  0.00  0.00    +0.000 A 
ATOM      6  C   UNL     1       1.882   7.796  20.021  0.00  0.00    +0.000 A 
ENDROOT
BRANCH   1   8
ATOM      7  C   UNL     1       4.423   6.262  17.802  0.00  0.00    +0.000 C 
ATOM      8  C   UNL     1       3.518   6.388  18.785  0.00  0.00    +0.000 C 
BRANCH   7   9
ATOM      9  C   UNL     1       5.365   5.072  17.598  0.00  0.00    +0.000 C 
ATOM     10  C   UNL     1       6.829   5.570  17.502  0.00  0.00    +0.000 C 
BRANCH   9  12
ATOM     11  C   UNL     1       5.488   4.255  15.164  0.00  0.00    +0.000 C 
ATOM     12  C   UNL     1       4.888   4.319  16.361  0.00  0.00    +0.000 C 
ENDBRANCH   9  12
BRANCH   9  13
ATOM     13  C   UNL     1       5.236   4.130  18.841  0.00  0.00    +0.000 C 
BRANCH  13  14
ATOM     14  C   UNL     1       4.314   2.917  18.631  0.00  0.00    +0.000 C 
BRANCH  14  15
ATOM     15  C   UNL     1       3.188   2.860  19.624  0.00  0.00    +0.000 C 
ATOM     16  C   UNL     1       1.907   3.218  19.404  0.00  0.00    +0.000 C 
ATOM     17  C   UNL     1       1.361   3.650  18.069  0.00  0.00    +0.000 C 
ATOM     18  C   UNL     1       0.896   3.210  20.517  0.00  0.00    +0.000 C 
ENDBRANCH  14  15
ENDBRANCH  13  14
ENDBRANCH   9  13
ENDBRANCH   7   9
ENDBRANCH   1   8
BRANCH   4  19
ATOM     19  N   UNL     1      -0.050  10.793  18.989  0.00  0.00    +0.000 N 
ATOM     20  H   UNL     1       0.180  11.588  19.576  0.00  0.00    +0.000 HD
BRANCH  19  21
ATOM     21  C   UNL     1      -1.356  10.813  18.464  0.00  0.00    +0.000 A 
ATOM     22  C   UNL     1      -1.700  10.066  17.327  0.00  0.00    +0.000 A 
ATOM     23  C   UNL     1      -2.987  10.135  16.804  0.00  0.00    +0.000 A 
ATOM     24  F   UNL     1      -3.297   9.396  15.730  0.00  0.00    +0.000 F 
ATOM     25  C   UNL     1      -3.940  10.958  17.389  0.00  0.00    +0.000 A 
ATOM     26  F   UNL     1      -5.179  11.019  16.878  0.00  0.00    +0.000 F 
ATOM     27  C   UNL     1      -3.624  11.723  18.502  0.00  0.00    +0.000 A 
ATOM     28  C   UNL     1      -2.338  11.644  19.030  0.00  0.00    +0.000 A 
ATOM     29  F   UNL     1      -2.032  12.397  20.098  0.00  0.00    +0.000 F 
ENDBRANCH  19  21
ENDBRANCH   4  19
TORSDOF 8
ENDMDL
MODEL 6
REMARK VINA RESULT:      -8.4      7.061     10.220
REMARK  Name = 
REMARK  11 active torsions:
REMARK  status: ('A' for Active; 'I' for Inactive)
REMARK    1  A    between atoms: C_2  and  C_3
REMARK    2  A    between atoms: C_3  and  C_4
REMARK    3  A    between atoms: C_3  and  C_5
REMARK    4  A    between atoms: C_3  and  C_23
REMARK    5  A    between atoms: C_6  and  C_7
REMARK    6  A    between atoms: C_10  and  N_11
REMARK    7  A    between atoms: N_11  and  C_12
REMARK    8  A    between atoms: C_23  and  C_24
REMARK    9  A    between atoms: C_24  and  C_25
REMARK   10  A    between atoms: C_26  and  C_27
REMARK   11  A    between atoms: C_26  and  C_28
REMARK                            x       y       z     vdW  Elec       q    Type
REMARK                         _______ _______ _______ _____ _____    ______ ____
ROOT
ATOM      1  C   UNL     1       7.826   7.878  18.021  0.00  0.00    +0.000 A 
ATOM      2  C   UNL     1       6.756   7.569  17.184  0.00  0.00    +0.000 A 
ATOM      3  C   UNL     1       6.163   6.310  17.250  0.00  0.00    +0.000 A 
ATOM      4  C   UNL     1       6.623   5.340  18.150  0.00  0.00    +0.000 A 
ATOM      5  C   UNL     1       7.693   5.663  18.993  0.00  0.00    +0.000 A 
ATOM      6  C   UNL     1       8.293   6.926  18.931  0.00  0.00    +0.000 A 
ENDROOT
BRANCH   1   8
ATOM      7  C   UNL     1       8.888   9.852  19.009  0.00  0.00    +0.000 C 
ATOM      8  C   UNL     1       8.443   9.197  17.926  0.00  0.00    +0.000 C 
BRANCH   7   9
ATOM      9  C   UNL     1       9.495  11.258  19.020  0.00  0.00    +0.000 C 
ATOM     10  C   UNL     1       8.777  12.148  17.975  0.00  0.00    +0.000 C 
BRANCH   9  12
ATOM     11  C   UNL     1      11.732  11.720  17.839  0.00  0.00    +0.000 C 
ATOM     12  C   UNL     1      10.993  11.110  18.777  0.00  0.00    +0.000 C 
ENDBRANCH   9  12
BRANCH   9  13
ATOM     13  C   UNL     1       9.274  11.874  20.441  0.00  0.00    +0.000 C 
BRANCH  13  14
ATOM     14  C   UNL     1      10.386  12.831  20.903  0.00  0.00    +0.000 C 
BRANCH  14  15
ATOM     15  C   UNL     1       9.913  14.252  21.040  0.00  0.00    +0.000 C 
ATOM     16  C   UNL     1      10.252  15.288  20.247  0.00  0.00    +0.000 C 
ATOM     17  C   UNL     1      11.098  15.171  19.007  0.00  0.00    +0.000 C 
ATOM     18  C   UNL     1       9.789  16.685  20.556  0.00  0.00    +0.000 C 
ENDBRANCH  14  15
ENDBRANCH  13  14
ENDBRANCH   9  13
ENDBRANCH   7   9
ENDBRANCH   1   8
BRANCH   4  19
ATOM     19  N   UNL     1       6.096   4.038  18.150  0.00  0.00    +0.000 N 
ATOM     20  H   UNL     1       6.724   3.305  17.836  0.00  0.00    +0.000 HD
BRANCH  19  21
ATOM     21  C   UNL     1       4.764   3.625  18.341  0.00  0.00    +0.000 A 
ATOM     22  C   UNL     1       4.296   3.219  19.600  0.00  0.00    +0.000 A 
ATOM     23  C   UNL     1       2.987   2.776  19.754  0.00  0.00    +0.000 A 
ATOM     24  F   UNL     1       2.557   2.414  20.970  0.00  0.00    +0.000 F 
ATOM     25  C   UNL     1       2.133   2.713  18.660  0.00  0.00    +0.000 A 
ATOM     26  F   UNL     1       0.872   2.286  18.817  0.00  0.00    +0.000 F 
ATOM     27  C   UNL     1       2.573   3.090  17.399  0.00  0.00    +0.000 A 
ATOM     28  C   UNL     1       3.882   3.542  17.250  0.00  0.00    +0.000 A 
ATOM     29  F   UNL     1       4.307   3.891  16.026  0.00  0.00    +0.000 F 
ENDBRANCH  19  21
ENDBRANCH   4  19
TORSDOF 8
ENDMDL
MODEL 7
REMARK VINA RESULT:      -8.4      6.486      9.729
REMARK  Name = 
REMARK  11 active torsions:
REMARK  status: ('A' for Active; 'I' for Inactive)
REMARK    1  A    between atoms: C_2  and  C_3
REMARK    2  A    between atoms: C_3  and  C_4
REMARK    3  A    between atoms: C_3  and  C_5
REMARK    4  A    between atoms: C_3  and  C_23
REMARK    5  A    between atoms: C_6  and  C_7
REMARK    6  A    between atoms: C_10  and  N_11
REMARK    7  A    between atoms: N_11  and  C_12
REMARK    8  A    between atoms: C_23  and  C_24
REMARK    9  A    between atoms: C_24  and  C_25
REMARK   10  A    between atoms: C_26  and  C_27
REMARK   11  A    between atoms: C_26  and  C_28
REMARK                            x       y       z     vdW  Elec       q    Type
REMARK                         _______ _______ _______ _____ _____    ______ ____
ROOT
ATOM      1  C   UNL     1       7.547   7.644  17.829  0.00  0.00    +0.000 A 
ATOM      2  C   UNL     1       8.095   6.759  18.756  0.00  0.00    +0.000 A 
ATOM      3  C   UNL     1       7.531   5.497  18.929  0.00  0.00    +0.000 A 
ATOM      4  C   UNL     1       6.417   5.093  18.182  0.00  0.00    +0.000 A 
ATOM      5  C   UNL     1       5.879   5.986  17.247  0.00  0.00    +0.000 A 
ATOM      6  C   UNL     1       6.441   7.255  17.069  0.00  0.00    +0.000 A 
ENDROOT
BRANCH   1   8
ATOM      7  C   UNL     1       8.760   9.590  18.690  0.00  0.00    +0.000 C 
ATOM      8  C   UNL     1       8.143   8.967  17.674  0.00  0.00    +0.000 C 
BRANCH   7   9
ATOM      9  C   UNL     1       9.365  10.996  18.643  0.00  0.00    +0.000 C 
ATOM     10  C   UNL     1      10.710  10.964  17.874  0.00  0.00    +0.000 C 
BRANCH   9  12
ATOM     11  C   UNL     1      10.595  11.927  20.700  0.00  0.00    +0.000 C 
ATOM     12  C   UNL     1       9.490  11.487  20.081  0.00  0.00    +0.000 C 
ENDBRANCH   9  12
BRANCH   9  13
ATOM     13  C   UNL     1       8.371  11.929  17.877  0.00  0.00    +0.000 C 
BRANCH  13  14
ATOM     14  C   UNL     1       8.844  13.385  17.732  0.00  0.00    +0.000 C 
BRANCH  14  15
ATOM     15  C   UNL     1       7.990  14.356  18.500  0.00  0.00    +0.000 C 
ATOM     16  C   UNL     1       8.413  15.219  19.445  0.00  0.00    +0.000 C 
ATOM     17  C   UNL     1       9.855  15.428  19.825  0.00  0.00    +0.000 C 
ATOM     18  C   UNL     1       7.437  16.067  20.214  0.00  0.00    +0.000 C 
ENDBRANCH  14  15
ENDBRANCH  13  14
ENDBRANCH   9  13
ENDBRANCH   7   9
ENDBRANCH   1   8
BRANCH   4  19
ATOM     19  N   UNL     1       5.784   3.863  18.424  0.00  0.00    +0.000 N 
ATOM     20  H   UNL     1       6.360   3.035  18.303  0.00  0.00    +0.000 HD
BRANCH  19  21
ATOM     21  C   UNL     1       4.416   3.598  18.627  0.00  0.00    +0.000 A 
ATOM     22  C   UNL     1       3.428   4.205  17.838  0.00  0.00    +0.000 A 
ATOM     23  C   UNL     1       2.082   3.959  18.087  0.00  0.00    +0.000 A 
ATOM     24  F   UNL     1       1.157   4.533  17.306  0.00  0.00    +0.000 F 
ATOM     25  C   UNL     1       1.700   3.124  19.129  0.00  0.00    +0.000 A 
ATOM     26  F   UNL     1       0.400   2.892  19.362  0.00  0.00    +0.000 F 
ATOM     27  C   UNL     1       2.655   2.525  19.939  0.00  0.00    +0.000 A 
ATOM     28  C   UNL     1       4.003   2.766  19.681  0.00  0.00    +0.000 A 
ATOM     29  F   UNL     1       4.922   2.196  20.475  0.00  0.00    +0.000 F 
ENDBRANCH  19  21
ENDBRANCH   4  19
TORSDOF 8
ENDMDL
MODEL 8
REMARK VINA RESULT:      -8.4      6.658     10.036
REMARK  Name = 
REMARK  11 active torsions:
REMARK  status: ('A' for Active; 'I' for Inactive)
REMARK    1  A    between atoms: C_2  and  C_3
REMARK    2  A    between atoms: C_3  and  C_4
REMARK    3  A    between atoms: C_3  and  C_5
REMARK    4  A    between atoms: C_3  and  C_23
REMARK    5  A    between atoms: C_6  and  C_7
REMARK    6  A    between atoms: C_10  and  N_11
REMARK    7  A    between atoms: N_11  and  C_12
REMARK    8  A    between atoms: C_23  and  C_24
REMARK    9  A    between atoms: C_24  and  C_25
REMARK   10  A    between atoms: C_26  and  C_27
REMARK   11  A    between atoms: C_26  and  C_28
REMARK                            x       y       z     vdW  Elec       q    Type
REMARK                         _______ _______ _______ _____ _____    ______ ____
ROOT
ATOM      1  C   UNL     1       7.815   7.926  18.059  0.00  0.00    +0.000 A 
ATOM      2  C   UNL     1       6.722   7.623  17.250  0.00  0.00    +0.000 A 
ATOM      3  C   UNL     1       6.131   6.364  17.323  0.00  0.00    +0.000 A 
ATOM      4  C   UNL     1       6.615   5.387  18.204  0.00  0.00    +0.000 A 
ATOM      5  C   UNL     1       7.708   5.704  19.019  0.00  0.00    +0.000 A 
ATOM      6  C   UNL     1       8.306   6.968  18.949  0.00  0.00    +0.000 A 
ENDROOT
BRANCH   1   8
ATOM      7  C   UNL     1       9.184   9.756  18.941  0.00  0.00    +0.000 C 
ATOM      8  C   UNL     1       8.430   9.245  17.956  0.00  0.00    +0.000 C 
BRANCH   7   9
ATOM      9  C   UNL     1       9.823  11.147  18.952  0.00  0.00    +0.000 C 
ATOM     10  C   UNL     1      11.185  11.106  18.213  0.00  0.00    +0.000 C 
BRANCH   9  12
ATOM     11  C   UNL     1       8.995  11.468  21.364  0.00  0.00    +0.000 C 
ATOM     12  C   UNL     1       9.925  11.593  20.406  0.00  0.00    +0.000 C 
ENDBRANCH   9  12
BRANCH   9  13
ATOM     13  C   UNL     1       8.870  12.127  18.191  0.00  0.00    +0.000 C 
BRANCH  13  14
ATOM     14  C   UNL     1       9.585  13.273  17.455  0.00  0.00    +0.000 C 
BRANCH  14  15
ATOM     15  C   UNL     1       9.633  14.543  18.259  0.00  0.00    +0.000 C 
ATOM     16  C   UNL     1       8.636  15.437  18.402  0.00  0.00    +0.000 C 
ATOM     17  C   UNL     1       7.246  15.259  17.851  0.00  0.00    +0.000 C 
ATOM     18  C   UNL     1       8.848  16.723  19.153  0.00  0.00    +0.000 C 
ENDBRANCH  14  15
ENDBRANCH  13  14
ENDBRANCH   9  13
ENDBRANCH   7   9
ENDBRANCH   1   8
BRANCH   4  19
ATOM     19  N   UNL     1       6.087   4.086  18.209  0.00  0.00    +0.000 N 
ATOM     20  H   UNL     1       6.731   3.344  17.952  0.00  0.00    +0.000 HD
BRANCH  19  21
ATOM     21  C   UNL     1       4.745   3.677  18.335  0.00  0.00    +0.000 A 
ATOM     22  C   UNL     1       4.218   3.263  19.567  0.00  0.00    +0.000 A 
ATOM     23  C   UNL     1       2.901   2.826  19.656  0.00  0.00    +0.000 A 
ATOM     24  F   UNL     1       2.413   2.456  20.848  0.00  0.00    +0.000 F 
ATOM     25  C   UNL     1       2.099   2.776  18.524  0.00  0.00    +0.000 A 
ATOM     26  F   UNL     1       0.830   2.353  18.618  0.00  0.00    +0.000 F 
ATOM     27  C   UNL     1       2.599   3.161  17.288  0.00  0.00    +0.000 A 
ATOM     28  C   UNL     1       3.915   3.608  17.204  0.00  0.00    +0.000 A 
ATOM     29  F   UNL     1       4.398   3.966  16.004  0.00  0.00    +0.000 F 
ENDBRANCH  19  21
ENDBRANCH   4  19
TORSDOF 8
ENDMDL
MODEL 9
REMARK VINA RESULT:      -8.3      6.818      9.876
REMARK  Name = 
REMARK  11 active torsions:
REMARK  status: ('A' for Active; 'I' for Inactive)
REMARK    1  A    between atoms: C_2  and  C_3
REMARK    2  A    between atoms: C_3  and  C_4
REMARK    3  A    between atoms: C_3  and  C_5
REMARK    4  A    between atoms: C_3  and  C_23
REMARK    5  A    between atoms: C_6  and  C_7
REMARK    6  A    between atoms: C_10  and  N_11
REMARK    7  A    between atoms: N_11  and  C_12
REMARK    8  A    between atoms: C_23  and  C_24
REMARK    9  A    between atoms: C_24  and  C_25
REMARK   10  A    between atoms: C_26  and  C_27
REMARK   11  A    between atoms: C_26  and  C_28
REMARK                            x       y       z     vdW  Elec       q    Type
REMARK                         _______ _______ _______ _____ _____    ______ ____
ROOT
ATOM      1  C   UNL     1       7.991   7.574  18.240  0.00  0.00    +0.000 A 
ATOM      2  C   UNL     1       8.136   6.476  19.085  0.00  0.00    +0.000 A 
ATOM      3  C   UNL     1       7.398   5.318  18.853  0.00  0.00    +0.000 A 
ATOM      4  C   UNL     1       6.505   5.232  17.776  0.00  0.00    +0.000 A 
ATOM      5  C   UNL     1       6.372   6.338  16.928  0.00  0.00    +0.000 A 
ATOM      6  C   UNL     1       7.112   7.504  17.156  0.00  0.00    +0.000 A 
ENDROOT
BRANCH   1   8
ATOM      7  C   UNL     1       8.355   9.992  18.091  0.00  0.00    +0.000 C 
ATOM      8  C   UNL     1       8.762   8.783  18.509  0.00  0.00    +0.000 C 
BRANCH   7   9
ATOM      9  C   UNL     1       9.119  11.307  18.274  0.00  0.00    +0.000 C 
ATOM     10  C   UNL     1       8.340  12.464  17.600  0.00  0.00    +0.000 C 
BRANCH   9  12
ATOM     11  C   UNL     1      11.614  11.841  17.958  0.00  0.00    +0.000 C 
ATOM     12  C   UNL     1      10.523  11.102  17.714  0.00  0.00    +0.000 C 
ENDBRANCH   9  12
BRANCH   9  13
ATOM     13  C   UNL     1       9.226  11.599  19.807  0.00  0.00    +0.000 C 
BRANCH  13  14
ATOM     14  C   UNL     1       8.861  13.038  20.210  0.00  0.00    +0.000 C 
BRANCH  14  15
ATOM     15  C   UNL     1      10.059  13.858  20.598  0.00  0.00    +0.000 C 
ATOM     16  C   UNL     1      10.605  14.865  19.888  0.00  0.00    +0.000 C 
ATOM     17  C   UNL     1      10.033  15.411  18.607  0.00  0.00    +0.000 C 
ATOM     18  C   UNL     1      11.870  15.539  20.342  0.00  0.00    +0.000 C 
ENDBRANCH  14  15
ENDBRANCH  13  14
ENDBRANCH   9  13
ENDBRANCH   7   9
ENDBRANCH   1   8
BRANCH   4  19
ATOM     19  N   UNL     1       5.685   4.106  17.598  0.00  0.00    +0.000 N 
ATOM     20  H   UNL     1       6.014   3.418  16.929  0.00  0.00    +0.000 HD
BRANCH  19  21
ATOM     21  C   UNL     1       4.378   3.882  18.073  0.00  0.00    +0.000 A 
ATOM     22  C   UNL     1       3.257   4.390  17.401  0.00  0.00    +0.000 A 
ATOM     23  C   UNL     1       1.980   4.190  17.913  0.00  0.00    +0.000 A 
ATOM     24  F   UNL     1       0.923   4.667  17.242  0.00  0.00    +0.000 F 
ATOM     25  C   UNL     1       1.801   3.500  19.105  0.00  0.00    +0.000 A 
ATOM     26  F   UNL     1       0.566   3.310  19.592  0.00  0.00    +0.000 F 
ATOM     27  C   UNL     1       2.892   3.002  19.803  0.00  0.00    +0.000 A 
ATOM     28  C   UNL     1       4.170   3.195  19.282  0.00  0.00    +0.000 A 
ATOM     29  F   UNL     1       5.223   2.725  19.967  0.00  0.00    +0.000 F 
ENDBRANCH  19  21
ENDBRANCH   4  19
TORSDOF 8
ENDMDL
