MODEL 1
REMARK VINA RESULT:      -9.1      0.000      0.000
REMARK  Name = 
REMARK  6 active torsions:
REMARK  status: ('A' for Active; 'I' for Inactive)
REMARK    1  A    between atoms: C_1  and  C_2
REMARK    2  A    between atoms: C_4  and  C_5
REMARK    3  A    between atoms: C_7  and  C_8
REMARK    4  A    between atoms: C_19  and  N_20
REMARK    5  A    between atoms: C_22  and  C_23
REMARK    6  A    between atoms: C_25  and  C_26
REMARK                            x       y       z     vdW  Elec       q    Type
REMARK                         _______ _______ _______ _____ _____    ______ ____
ROOT
ATOM      1  C   UNL     1       2.694   5.161  20.473  0.00  0.00    +0.000 C 
ATOM      2  C   UNL     1       3.015   5.995  19.274  0.00  0.00    +0.000 A 
ATOM      3  N   UNL     1       2.296   7.105  19.055  0.00  0.00    +0.000 NA
ATOM      4  C   UNL     1       2.597   7.864  17.976  0.00  0.00    +0.000 A 
ATOM      5  C   UNL     1       3.647   7.506  17.130  0.00  0.00    +0.000 A 
ATOM      6  C   UNL     1       4.327   6.330  17.420  0.00  0.00    +0.000 A 
ATOM      7  N   UNL     1       4.012   5.572  18.491  0.00  0.00    +0.000 NA
ENDROOT
BRANCH   6   8
ATOM      8  N   UNL     1       5.395   5.864  16.586  0.00  0.00    +0.000 N 
ATOM      9  N   UNL     1       5.199   5.090  15.476  0.00  0.00    +0.000 NA
ATOM     10  C   UNL     1       6.444   4.961  14.996  0.00  0.00    +0.000 A 
ATOM     11  C   UNL     1       6.794   4.230  13.759  0.00  0.00    +0.000 C 
ATOM     12  N   UNL     1       7.417   5.557  15.736  0.00  0.00    +0.000 NA
ATOM     13  C   UNL     1       6.758   6.105  16.735  0.00  0.00    +0.000 A 
ATOM     14  C   UNL     1       7.392   6.826  17.865  0.00  0.00    +0.000 C 
ENDBRANCH   6   8
BRANCH   4  15
ATOM     15  C   UNL     1       1.704   9.069  17.710  0.00  0.00    +0.000 C 
ATOM     16  C   UNL     1       2.054  10.420  18.248  0.00  0.00    +0.000 C 
ATOM     17  C   UNL     1       0.892   9.672  18.865  0.00  0.00    +0.000 C 
BRANCH  17  18
ATOM     18  C   UNL     1      -0.523  10.197  18.597  0.00  0.00    +0.000 A 
ATOM     19  N   UNL     1      -1.245   9.856  17.474  0.00  0.00    +0.000 NA
ATOM     20  C   UNL     1      -2.392  10.497  17.583  0.00  0.00    +0.000 A 
ATOM     21  C   UNL     1      -3.532  10.533  16.726  0.00  0.00    +0.000 A 
ATOM     22  C   UNL     1      -4.614  11.258  17.072  0.00  0.00    +0.000 A 
ATOM     23  C   UNL     1      -4.653  12.022  18.306  0.00  0.00    +0.000 A 
ATOM     24  C   UNL     1      -3.578  12.006  19.114  0.00  0.00    +0.000 A 
ATOM     25  N   UNL     1      -2.452  11.250  18.758  0.00  0.00    +0.000 N 
ATOM     26  C   UNL     1      -1.244  11.065  19.394  0.00  0.00    +0.000 A 
ATOM     27  I   UNL     1      -0.658  11.916  21.166  0.00  0.00    +0.000 I 
ENDBRANCH  17  18
ENDBRANCH   4  15
TORSDOF 3
ENDMDL
MODEL 2
REMARK VINA RESULT:      -8.6      2.827      3.190
REMARK  Name = 
REMARK  6 active torsions:
REMARK  status: ('A' for Active; 'I' for Inactive)
REMARK    1  A    between atoms: C_1  and  C_2
REMARK    2  A    between atoms: C_4  and  C_5
REMARK    3  A    between atoms: C_7  and  C_8
REMARK    4  A    between atoms: C_19  and  N_20
REMARK    5  A    between atoms: C_22  and  C_23
REMARK    6  A    between atoms: C_25  and  C_26
REMARK                            x       y       z     vdW  Elec       q    Type
REMARK                         _______ _______ _______ _____ _____    ______ ____
ROOT
ATOM      1  C   UNL     1       3.211   2.612  19.558  0.00  0.00    +0.000 C 
ATOM      2  C   UNL     1       3.387   3.839  18.721  0.00  0.00    +0.000 A 
ATOM      3  N   UNL     1       2.589   4.890  18.951  0.00  0.00    +0.000 NA
ATOM      4  C   UNL     1       2.759   6.004  18.200  0.00  0.00    +0.000 A 
ATOM      5  C   UNL     1       3.759   6.057  17.230  0.00  0.00    +0.000 A 
ATOM      6  C   UNL     1       4.529   4.915  17.045  0.00  0.00    +0.000 A 
ATOM      7  N   UNL     1       4.344   3.804  17.788  0.00  0.00    +0.000 NA
ENDROOT
BRANCH   6   8
ATOM      8  N   UNL     1       5.555   4.864  16.045  0.00  0.00    +0.000 N 
ATOM      9  N   UNL     1       5.401   4.233  14.842  0.00  0.00    +0.000 NA
ATOM     10  C   UNL     1       6.565   4.499  14.231  0.00  0.00    +0.000 A 
ATOM     11  C   UNL     1       6.909   4.068  12.859  0.00  0.00    +0.000 C 
ATOM     12  N   UNL     1       7.458   5.213  14.967  0.00  0.00    +0.000 NA
ATOM     13  C   UNL     1       6.828   5.423  16.104  0.00  0.00    +0.000 A 
ATOM     14  C   UNL     1       7.418   6.114  17.276  0.00  0.00    +0.000 C 
ENDBRANCH   6   8
BRANCH   4  15
ATOM     15  C   UNL     1       1.778   7.146  18.430  0.00  0.00    +0.000 C 
ATOM     16  C   UNL     1       1.818   8.378  17.585  0.00  0.00    +0.000 C 
ATOM     17  C   UNL     1       2.287   8.467  19.020  0.00  0.00    +0.000 C 
BRANCH  17  18
ATOM     18  C   UNL     1       1.409   9.236  20.015  0.00  0.00    +0.000 A 
ATOM     19  N   UNL     1       0.802   8.633  21.095  0.00  0.00    +0.000 NA
ATOM     20  C   UNL     1       0.132   9.591  21.705  0.00  0.00    +0.000 A 
ATOM     21  C   UNL     1      -0.685   9.567  22.874  0.00  0.00    +0.000 A 
ATOM     22  C   UNL     1      -1.255  10.703  23.323  0.00  0.00    +0.000 A 
ATOM     23  C   UNL     1      -1.066  11.969  22.638  0.00  0.00    +0.000 A 
ATOM     24  C   UNL     1      -0.309  12.000  21.527  0.00  0.00    +0.000 A 
ATOM     25  N   UNL     1       0.287  10.820  21.060  0.00  0.00    +0.000 N 
ATOM     26  C   UNL     1       1.094  10.581  19.969  0.00  0.00    +0.000 A 
ATOM     27  I   UNL     1       1.694  11.958  18.572  0.00  0.00    +0.000 I 
ENDBRANCH  17  18
ENDBRANCH   4  15
TORSDOF 3
ENDMDL
MODEL 3
REMARK VINA RESULT:      -8.4      1.694      3.756
REMARK  Name = 
REMARK  6 active torsions:
REMARK  status: ('A' for Active; 'I' for Inactive)
REMARK    1  A    between atoms: C_1  and  C_2
REMARK    2  A    between atoms: C_4  and  C_5
REMARK    3  A    between atoms: C_7  and  C_8
REMARK    4  A    between atoms: C_19  and  N_20
REMARK    5  A    between atoms: C_22  and  C_23
REMARK    6  A    between atoms: C_25  and  C_26
REMARK                            x       y       z     vdW  Elec       q    Type
REMARK                         _______ _______ _______ _____ _____    ______ ____
ROOT
ATOM      1  C   UNL     1       6.059   6.906  17.113  0.00  0.00    +0.000 C 
ATOM      2  C   UNL     1       4.639   6.817  17.578  0.00  0.00    +0.000 A 
ATOM      3  N   UNL     1       3.823   7.854  17.341  0.00  0.00    +0.000 NA
ATOM      4  C   UNL     1       2.536   7.765  17.752  0.00  0.00    +0.000 A 
ATOM      5  C   UNL     1       2.073   6.611  18.383  0.00  0.00    +0.000 A 
ATOM      6  C   UNL     1       2.991   5.593  18.605  0.00  0.00    +0.000 A 
ATOM      7  N   UNL     1       4.276   5.694  18.204  0.00  0.00    +0.000 NA
ENDROOT
BRANCH   6   8
ATOM      8  N   UNL     1       2.615   4.386  19.280  0.00  0.00    +0.000 N 
ATOM      9  N   UNL     1       2.363   4.322  20.622  0.00  0.00    +0.000 NA
ATOM     10  C   UNL     1       1.994   3.043  20.781  0.00  0.00    +0.000 A 
ATOM     11  C   UNL     1       1.573   2.446  22.066  0.00  0.00    +0.000 C 
ATOM     12  N   UNL     1       2.033   2.282  19.654  0.00  0.00    +0.000 NA
ATOM     13  C   UNL     1       2.436   3.122  18.725  0.00  0.00    +0.000 A 
ATOM     14  C   UNL     1       2.699   2.750  17.314  0.00  0.00    +0.000 C 
ENDBRANCH   6   8
BRANCH   4  15
ATOM     15  C   UNL     1       1.661   8.995  17.545  0.00  0.00    +0.000 C 
ATOM     16  C   UNL     1       2.066  10.328  18.087  0.00  0.00    +0.000 C 
ATOM     17  C   UNL     1       0.915   9.597  18.742  0.00  0.00    +0.000 C 
BRANCH  17  18
ATOM     18  C   UNL     1      -0.498  10.159  18.544  0.00  0.00    +0.000 A 
ATOM     19  N   UNL     1      -1.280   9.842  17.455  0.00  0.00    +0.000 NA
ATOM     20  C   UNL     1      -2.405  10.511  17.621  0.00  0.00    +0.000 A 
ATOM     21  C   UNL     1      -3.583  10.580  16.820  0.00  0.00    +0.000 A 
ATOM     22  C   UNL     1      -4.628  11.331  17.219  0.00  0.00    +0.000 A 
ATOM     23  C   UNL     1      -4.589  12.089  18.457  0.00  0.00    +0.000 A 
ATOM     24  C   UNL     1      -3.478  12.042  19.213  0.00  0.00    +0.000 A 
ATOM     25  N   UNL     1      -2.390  11.260  18.800  0.00  0.00    +0.000 N 
ATOM     26  C   UNL     1      -1.158  11.041  19.378  0.00  0.00    +0.000 A 
ATOM     27  I   UNL     1      -0.467  11.868  21.123  0.00  0.00    +0.000 I 
ENDBRANCH  17  18
ENDBRANCH   4  15
TORSDOF 3
ENDMDL
MODEL 4
REMARK VINA RESULT:      -8.4      2.100      2.241
REMARK  Name = 
REMARK  6 active torsions:
REMARK  status: ('A' for Active; 'I' for Inactive)
REMARK    1  A    between atoms: C_1  and  C_2
REMARK    2  A    between atoms: C_4  and  C_5
REMARK    3  A    between atoms: C_7  and  C_8
REMARK    4  A    between atoms: C_19  and  N_20
REMARK    5  A    between atoms: C_22  and  C_23
REMARK    6  A    between atoms: C_25  and  C_26
REMARK                            x       y       z     vdW  Elec       q    Type
REMARK                         _______ _______ _______ _____ _____    ______ ____
ROOT
ATOM      1  C   UNL     1       2.632   4.679  20.715  0.00  0.00    +0.000 C 
ATOM      2  C   UNL     1       2.911   5.632  19.596  0.00  0.00    +0.000 A 
ATOM      3  N   UNL     1       2.184   6.755  19.516  0.00  0.00    +0.000 NA
ATOM      4  C   UNL     1       2.447   7.621  18.510  0.00  0.00    +0.000 A 
ATOM      5  C   UNL     1       3.468   7.357  17.597  0.00  0.00    +0.000 A 
ATOM      6  C   UNL     1       4.159   6.160  17.743  0.00  0.00    +0.000 A 
ATOM      7  N   UNL     1       3.882   5.295  18.742  0.00  0.00    +0.000 NA
ENDROOT
BRANCH   6   8
ATOM      8  N   UNL     1       5.199   5.786  16.830  0.00  0.00    +0.000 N 
ATOM      9  N   UNL     1       5.009   4.923  15.787  0.00  0.00    +0.000 NA
ATOM     10  C   UNL     1       6.210   4.930  15.191  0.00  0.00    +0.000 A 
ATOM     11  C   UNL     1       6.540   4.173  13.964  0.00  0.00    +0.000 C 
ATOM     12  N   UNL     1       7.156   5.695  15.797  0.00  0.00    +0.000 NA
ATOM     13  C   UNL     1       6.524   6.214  16.829  0.00  0.00    +0.000 A 
ATOM     14  C   UNL     1       7.155   7.084  17.850  0.00  0.00    +0.000 C 
ENDBRANCH   6   8
BRANCH   4  15
ATOM     15  C   UNL     1       1.544   8.843  18.399  0.00  0.00    +0.000 C 
ATOM     16  C   UNL     1       2.007  10.082  17.704  0.00  0.00    +0.000 C 
ATOM     17  C   UNL     1       1.878  10.101  19.211  0.00  0.00    +0.000 C 
BRANCH  17  18
ATOM     18  C   UNL     1       0.741  10.927  19.824  0.00  0.00    +0.000 A 
ATOM     19  N   UNL     1       0.218  12.045  19.211  0.00  0.00    +0.000 NA
ATOM     20  C   UNL     1      -0.720  12.489  20.026  0.00  0.00    +0.000 A 
ATOM     21  C   UNL     1      -1.596  13.610  19.926  0.00  0.00    +0.000 A 
ATOM     22  C   UNL     1      -2.501  13.847  20.896  0.00  0.00    +0.000 A 
ATOM     23  C   UNL     1      -2.610  12.987  22.061  0.00  0.00    +0.000 A 
ATOM     24  C   UNL     1      -1.779  11.936  22.171  0.00  0.00    +0.000 A 
ATOM     25  N   UNL     1      -0.837  11.685  21.163  0.00  0.00    +0.000 N 
ATOM     26  C   UNL     1       0.112  10.695  21.032  0.00  0.00    +0.000 A 
ATOM     27  I   UNL     1       0.498   9.193  22.374  0.00  0.00    +0.000 I 
ENDBRANCH  17  18
ENDBRANCH   4  15
TORSDOF 3
ENDMDL
MODEL 5
REMARK VINA RESULT:      -8.0      3.370      9.178
REMARK  Name = 
REMARK  6 active torsions:
REMARK  status: ('A' for Active; 'I' for Inactive)
REMARK    1  A    between atoms: C_1  and  C_2
REMARK    2  A    between atoms: C_4  and  C_5
REMARK    3  A    between atoms: C_7  and  C_8
REMARK    4  A    between atoms: C_19  and  N_20
REMARK    5  A    between atoms: C_22  and  C_23
REMARK    6  A    between atoms: C_25  and  C_26
REMARK                            x       y       z     vdW  Elec       q    Type
REMARK                         _______ _______ _______ _____ _____    ______ ____
ROOT
ATOM      1  C   UNL     1       1.142  13.375  18.581  0.00  0.00    +0.000 C 
ATOM      2  C   UNL     1       0.211  12.223  18.795  0.00  0.00    +0.000 A 
ATOM      3  N   UNL     1       0.645  11.173  19.505  0.00  0.00    +0.000 NA
ATOM      4  C   UNL     1      -0.204  10.139  19.707  0.00  0.00    +0.000 A 
ATOM      5  C   UNL     1      -1.504  10.182  19.205  0.00  0.00    +0.000 A 
ATOM      6  C   UNL     1      -1.865  11.300  18.463  0.00  0.00    +0.000 A 
ATOM      7  N   UNL     1      -1.008  12.322  18.255  0.00  0.00    +0.000 NA
ENDROOT
BRANCH   6   8
ATOM      8  N   UNL     1      -3.167  11.416  17.877  0.00  0.00    +0.000 N 
ATOM      9  N   UNL     1      -4.254  11.902  18.550  0.00  0.00    +0.000 NA
ATOM     10  C   UNL     1      -5.204  11.884  17.604  0.00  0.00    +0.000 A 
ATOM     11  C   UNL     1      -6.592  12.353  17.803  0.00  0.00    +0.000 C 
ATOM     12  N   UNL     1      -4.817  11.387  16.399  0.00  0.00    +0.000 NA
ATOM     13  C   UNL     1      -3.549  11.082  16.581  0.00  0.00    +0.000 A 
ATOM     14  C   UNL     1      -2.686  10.437  15.562  0.00  0.00    +0.000 C 
ENDBRANCH   6   8
BRANCH   4  15
ATOM     15  C   UNL     1       0.351   8.926  20.444  0.00  0.00    +0.000 C 
ATOM     16  C   UNL     1       1.483   9.065  21.410  0.00  0.00    +0.000 C 
ATOM     17  C   UNL     1       1.744   8.397  20.078  0.00  0.00    +0.000 C 
BRANCH  17  18
ATOM     18  C   UNL     1       1.997   6.885  20.070  0.00  0.00    +0.000 A 
ATOM     19  N   UNL     1       1.452   6.033  21.006  0.00  0.00    +0.000 NA
ATOM     20  C   UNL     1       1.894   4.831  20.690  0.00  0.00    +0.000 A 
ATOM     21  C   UNL     1       1.668   3.560  21.296  0.00  0.00    +0.000 A 
ATOM     22  C   UNL     1       2.222   2.451  20.765  0.00  0.00    +0.000 A 
ATOM     23  C   UNL     1       3.062   2.514  19.582  0.00  0.00    +0.000 A 
ATOM     24  C   UNL     1       3.292   3.710  19.013  0.00  0.00    +0.000 A 
ATOM     25  N   UNL     1       2.715   4.864  19.561  0.00  0.00    +0.000 N 
ATOM     26  C   UNL     1       2.788   6.186  19.179  0.00  0.00    +0.000 A 
ATOM     27  I   UNL     1       3.862   6.940  17.602  0.00  0.00    +0.000 I 
ENDBRANCH  17  18
ENDBRANCH   4  15
TORSDOF 3
ENDMDL
MODEL 6
REMARK VINA RESULT:      -8.0      2.857      3.210
REMARK  Name = 
REMARK  6 active torsions:
REMARK  status: ('A' for Active; 'I' for Inactive)
REMARK    1  A    between atoms: C_1  and  C_2
REMARK    2  A    between atoms: C_4  and  C_5
REMARK    3  A    between atoms: C_7  and  C_8
REMARK    4  A    between atoms: C_19  and  N_20
REMARK    5  A    between atoms: C_22  and  C_23
REMARK    6  A    between atoms: C_25  and  C_26
REMARK                            x       y       z     vdW  Elec       q    Type
REMARK                         _______ _______ _______ _____ _____    ______ ____
ROOT
ATOM      1  C   UNL     1       1.601   2.611  18.474  0.00  0.00    +0.000 C 
ATOM      2  C   UNL     1       2.489   3.803  18.300  0.00  0.00    +0.000 A 
ATOM      3  N   UNL     1       2.237   4.899  19.028  0.00  0.00    +0.000 NA
ATOM      4  C   UNL     1       3.049   5.972  18.877  0.00  0.00    +0.000 A 
ATOM      5  C   UNL     1       4.133   5.921  18.001  0.00  0.00    +0.000 A 
ATOM      6  C   UNL     1       4.308   4.752  17.271  0.00  0.00    +0.000 A 
ATOM      7  N   UNL     1       3.486   3.691  17.418  0.00  0.00    +0.000 NA
ENDROOT
BRANCH   6   8
ATOM      8  N   UNL     1       5.372   4.621  16.319  0.00  0.00    +0.000 N 
ATOM      9  N   UNL     1       5.165   4.415  14.984  0.00  0.00    +0.000 NA
ATOM     10  C   UNL     1       6.414   4.425  14.498  0.00  0.00    +0.000 A 
ATOM     11  C   UNL     1       6.758   4.277  13.068  0.00  0.00    +0.000 C 
ATOM     12  N   UNL     1       7.398   4.580  15.424  0.00  0.00    +0.000 NA
ATOM     13  C   UNL     1       6.741   4.686  16.561  0.00  0.00    +0.000 A 
ATOM     14  C   UNL     1       7.382   4.808  17.892  0.00  0.00    +0.000 C 
ENDBRANCH   6   8
BRANCH   4  15
ATOM     15  C   UNL     1       2.681   7.229  19.655  0.00  0.00    +0.000 C 
ATOM     16  C   UNL     1       1.565   7.220  20.649  0.00  0.00    +0.000 C 
ATOM     17  C   UNL     1       1.365   7.950  19.339  0.00  0.00    +0.000 C 
BRANCH  17  18
ATOM     18  C   UNL     1       1.318   9.482  19.372  0.00  0.00    +0.000 A 
ATOM     19  N   UNL     1       1.831  10.266  18.361  0.00  0.00    +0.000 NA
ATOM     20  C   UNL     1       1.623  11.512  18.738  0.00  0.00    +0.000 A 
ATOM     21  C   UNL     1       1.938  12.750  18.103  0.00  0.00    +0.000 A 
ATOM     22  C   UNL     1       1.596  13.915  18.689  0.00  0.00    +0.000 A 
ATOM     23  C   UNL     1       0.912  13.949  19.969  0.00  0.00    +0.000 A 
ATOM     24  C   UNL     1       0.623  12.788  20.582  0.00  0.00    +0.000 A 
ATOM     25  N   UNL     1       0.975  11.575  19.974  0.00  0.00    +0.000 N 
ATOM     26  C   UNL     1       0.797  10.270  20.381  0.00  0.00    +0.000 A 
ATOM     27  I   UNL     1      -0.067   9.647  22.133  0.00  0.00    +0.000 I 
ENDBRANCH  17  18
ENDBRANCH   4  15
TORSDOF 3
ENDMDL
MODEL 7
REMARK VINA RESULT:      -7.9      2.508      3.356
REMARK  Name = 
REMARK  6 active torsions:
REMARK  status: ('A' for Active; 'I' for Inactive)
REMARK    1  A    between atoms: C_1  and  C_2
REMARK    2  A    between atoms: C_4  and  C_5
REMARK    3  A    between atoms: C_7  and  C_8
REMARK    4  A    between atoms: C_19  and  N_20
REMARK    5  A    between atoms: C_22  and  C_23
REMARK    6  A    between atoms: C_25  and  C_26
REMARK                            x       y       z     vdW  Elec       q    Type
REMARK                         _______ _______ _______ _____ _____    ______ ____
ROOT
ATOM      1  C   UNL     1       0.938   3.380  20.617  0.00  0.00    +0.000 C 
ATOM      2  C   UNL     1       1.718   4.570  20.156  0.00  0.00    +0.000 A 
ATOM      3  N   UNL     1       1.422   5.770  20.675  0.00  0.00    +0.000 NA
ATOM      4  C   UNL     1       2.138   6.843  20.265  0.00  0.00    +0.000 A 
ATOM      5  C   UNL     1       3.173   6.692  19.342  0.00  0.00    +0.000 A 
ATOM      6  C   UNL     1       3.399   5.416  18.841  0.00  0.00    +0.000 A 
ATOM      7  N   UNL     1       2.672   4.353  19.245  0.00  0.00    +0.000 NA
ENDROOT
BRANCH   6   8
ATOM      8  N   UNL     1       4.417   5.172  17.861  0.00  0.00    +0.000 N 
ATOM      9  N   UNL     1       4.146   4.854  16.559  0.00  0.00    +0.000 NA
ATOM     10  C   UNL     1       5.372   4.786  16.022  0.00  0.00    +0.000 A 
ATOM     11  C   UNL     1       5.649   4.502  14.598  0.00  0.00    +0.000 C 
ATOM     12  N   UNL     1       6.399   4.994  16.890  0.00  0.00    +0.000 NA
ATOM     13  C   UNL     1       5.796   5.218  18.038  0.00  0.00    +0.000 A 
ATOM     14  C   UNL     1       6.498   5.439  19.326  0.00  0.00    +0.000 C 
ENDBRANCH   6   8
BRANCH   4  15
ATOM     15  C   UNL     1       1.716   8.201  20.810  0.00  0.00    +0.000 C 
ATOM     16  C   UNL     1       0.500   8.342  21.669  0.00  0.00    +0.000 C 
ATOM     17  C   UNL     1       0.456   8.877  20.254  0.00  0.00    +0.000 C 
BRANCH  17  18
ATOM     18  C   UNL     1       0.439  10.398  20.061  0.00  0.00    +0.000 A 
ATOM     19  N   UNL     1       1.195  11.255  20.831  0.00  0.00    +0.000 NA
ATOM     20  C   UNL     1       0.916  12.466  20.390  0.00  0.00    +0.000 A 
ATOM     21  C   UNL     1       1.391  13.747  20.800  0.00  0.00    +0.000 A 
ATOM     22  C   UNL     1       0.966  14.859  20.168  0.00  0.00    +0.000 A 
ATOM     23  C   UNL     1       0.020  14.792  19.069  0.00  0.00    +0.000 A 
ATOM     24  C   UNL     1      -0.445  13.590  18.684  0.00  0.00    +0.000 A 
ATOM     25  N   UNL     1      -0.003  12.432  19.339  0.00  0.00    +0.000 N 
ATOM     26  C   UNL     1      -0.315  11.104  19.144  0.00  0.00    +0.000 A 
ATOM     27  I   UNL     1      -1.636  10.352  17.768  0.00  0.00    +0.000 I 
ENDBRANCH  17  18
ENDBRANCH   4  15
TORSDOF 3
ENDMDL
MODEL 8
REMARK VINA RESULT:      -7.9      2.852      3.075
REMARK  Name = 
REMARK  6 active torsions:
REMARK  status: ('A' for Active; 'I' for Inactive)
REMARK    1  A    between atoms: C_1  and  C_2
REMARK    2  A    between atoms: C_4  and  C_5
REMARK    3  A    between atoms: C_7  and  C_8
REMARK    4  A    between atoms: C_19  and  N_20
REMARK    5  A    between atoms: C_22  and  C_23
REMARK    6  A    between atoms: C_25  and  C_26
REMARK                            x       y       z     vdW  Elec       q    Type
REMARK                         _______ _______ _______ _____ _____    ______ ____
ROOT
ATOM      1  C   UNL     1       2.349   3.727  21.426  0.00  0.00    +0.000 C 
ATOM      2  C   UNL     1       2.653   4.731  20.359  0.00  0.00    +0.000 A 
ATOM      3  N   UNL     1       1.940   5.865  20.326  0.00  0.00    +0.000 NA
ATOM      4  C   UNL     1       2.226   6.777  19.368  0.00  0.00    +0.000 A 
ATOM      5  C   UNL     1       3.255   6.546  18.456  0.00  0.00    +0.000 A 
ATOM      6  C   UNL     1       3.930   5.335  18.550  0.00  0.00    +0.000 A 
ATOM      7  N   UNL     1       3.630   4.425  19.501  0.00  0.00    +0.000 NA
ENDROOT
BRANCH   6   8
ATOM      8  N   UNL     1       4.977   4.994  17.632  0.00  0.00    +0.000 N 
ATOM      9  N   UNL     1       4.747   4.476  16.388  0.00  0.00    +0.000 NA
ATOM     10  C   UNL     1       5.986   4.384  15.885  0.00  0.00    +0.000 A 
ATOM     11  C   UNL     1       6.304   3.905  14.523  0.00  0.00    +0.000 C 
ATOM     12  N   UNL     1       6.985   4.763  16.727  0.00  0.00    +0.000 NA
ATOM     13  C   UNL     1       6.350   5.128  17.821  0.00  0.00    +0.000 A 
ATOM     14  C   UNL     1       7.014   5.567  19.071  0.00  0.00    +0.000 C 
ENDBRANCH   6   8
BRANCH   4  15
ATOM     15  C   UNL     1       1.338   8.013  19.307  0.00  0.00    +0.000 C 
ATOM     16  C   UNL     1       1.591   9.095  18.307  0.00  0.00    +0.000 C 
ATOM     17  C   UNL     1       1.900   9.366  19.763  0.00  0.00    +0.000 C 
BRANCH  17  18
ATOM     18  C   UNL     1       0.993  10.344  20.519  0.00  0.00    +0.000 A 
ATOM     19  N   UNL     1       0.169   9.950  21.551  0.00  0.00    +0.000 NA
ATOM     20  C   UNL     1      -0.456  11.044  21.942  0.00  0.00    +0.000 A 
ATOM     21  C   UNL     1      -1.426  11.254  22.965  0.00  0.00    +0.000 A 
ATOM     22  C   UNL     1      -1.909  12.492  23.193  0.00  0.00    +0.000 A 
ATOM     23  C   UNL     1      -1.469  13.634  22.412  0.00  0.00    +0.000 A 
ATOM     24  C   UNL     1      -0.565  13.443  21.435  0.00  0.00    +0.000 A 
ATOM     25  N   UNL     1      -0.060  12.157  21.198  0.00  0.00    +0.000 N 
ATOM     26  C   UNL     1       0.858  11.697  20.278  0.00  0.00    +0.000 A 
ATOM     27  I   UNL     1       1.814  12.815  18.849  0.00  0.00    +0.000 I 
ENDBRANCH  17  18
ENDBRANCH   4  15
TORSDOF 3
ENDMDL
MODEL 9
REMARK VINA RESULT:      -7.7      3.823      9.015
REMARK  Name = 
REMARK  6 active torsions:
REMARK  status: ('A' for Active; 'I' for Inactive)
REMARK    1  A    between atoms: C_1  and  C_2
REMARK    2  A    between atoms: C_4  and  C_5
REMARK    3  A    between atoms: C_7  and  C_8
REMARK    4  A    between atoms: C_19  and  N_20
REMARK    5  A    between atoms: C_22  and  C_23
REMARK    6  A    between atoms: C_25  and  C_26
REMARK                            x       y       z     vdW  Elec       q    Type
REMARK                         _______ _______ _______ _____ _____    ______ ____
ROOT
ATOM      1  C   UNL     1       1.984   3.084  21.955  0.00  0.00    +0.000 C 
ATOM      2  C   UNL     1       2.113   4.057  20.826  0.00  0.00    +0.000 A 
ATOM      3  N   UNL     1       2.571   3.613  19.648  0.00  0.00    +0.000 NA
ATOM      4  C   UNL     1       2.675   4.493  18.625  0.00  0.00    +0.000 A 
ATOM      5  C   UNL     1       2.291   5.823  18.794  0.00  0.00    +0.000 A 
ATOM      6  C   UNL     1       1.846   6.203  20.055  0.00  0.00    +0.000 A 
ATOM      7  N   UNL     1       1.757   5.321  21.073  0.00  0.00    +0.000 NA
ENDROOT
BRANCH   6   8
ATOM      8  N   UNL     1       1.466   7.556  20.333  0.00  0.00    +0.000 N 
ATOM      9  N   UNL     1       0.914   7.953  21.519  0.00  0.00    +0.000 NA
ATOM     10  C   UNL     1       0.792   9.277  21.346  0.00  0.00    +0.000 A 
ATOM     11  C   UNL     1       0.269  10.211  22.366  0.00  0.00    +0.000 C 
ATOM     12  N   UNL     1       1.183   9.744  20.130  0.00  0.00    +0.000 NA
ATOM     13  C   UNL     1       1.588   8.663  19.497  0.00  0.00    +0.000 A 
ATOM     14  C   UNL     1       2.056   8.639  18.091  0.00  0.00    +0.000 C 
ENDBRANCH   6   8
BRANCH   4  15
ATOM     15  C   UNL     1       3.280   3.973  17.327  0.00  0.00    +0.000 C 
ATOM     16  C   UNL     1       3.798   2.574  17.226  0.00  0.00    +0.000 C 
ATOM     17  C   UNL     1       4.791   3.715  17.253  0.00  0.00    +0.000 C 
BRANCH  17  18
ATOM     18  C   UNL     1       5.547   4.039  15.959  0.00  0.00    +0.000 A 
ATOM     19  N   UNL     1       5.377   3.319  14.796  0.00  0.00    +0.000 NA
ATOM     20  C   UNL     1       6.188   3.873  13.915  0.00  0.00    +0.000 A 
ATOM     21  C   UNL     1       6.444   3.557  12.548  0.00  0.00    +0.000 A 
ATOM     22  C   UNL     1       7.317   4.298  11.837  0.00  0.00    +0.000 A 
ATOM     23  C   UNL     1       8.020   5.421  12.431  0.00  0.00    +0.000 A 
ATOM     24  C   UNL     1       7.796   5.717  13.723  0.00  0.00    +0.000 A 
ATOM     25  N   UNL     1       6.887   4.950  14.465  0.00  0.00    +0.000 N 
ATOM     26  C   UNL     1       6.482   5.040  15.779  0.00  0.00    +0.000 A 
ATOM     27  I   UNL     1       7.148   6.393  17.168  0.00  0.00    +0.000 I 
ENDBRANCH  17  18
ENDBRANCH   4  15
TORSDOF 3
ENDMDL
