MODEL 1
REMARK VINA RESULT:      -7.9      0.000      0.000
REMARK  Name = 
REMARK  9 active torsions:
REMARK  status: ('A' for Active; 'I' for Inactive)
REMARK    1  A    between atoms: N_1  and  C_2
REMARK    2  A    between atoms: C_6  and  C_7
REMARK    3  A    between atoms: C_7  and  O_8
REMARK    4  A    between atoms: O_8  and  C_9
REMARK    5  A    between atoms: C_13  and  N_14
REMARK    6  A    between atoms: C_13  and  C_15
REMARK    7  A    between atoms: C_15  and  O_17
REMARK    8  A    between atoms: C_18  and  C_20
REMARK    9  A    between atoms: C_20  and  O_22
REMARK                            x       y       z     vdW  Elec       q    Type
REMARK                         _______ _______ _______ _____ _____    ______ ____
ROOT
ATOM      1  C   UNL     1       4.692   5.983  18.052  0.00  0.00    +0.000 C 
ATOM      2  C   UNL     1       5.240   6.907  16.935  0.00  0.00    +0.000 C 
ATOM      3  C   UNL     1       5.429   5.977  15.768  0.00  0.00    +0.000 C 
ATOM      4  C   UNL     1       5.641   4.584  16.324  0.00  0.00    +0.000 C 
ATOM      5  C   UNL     1       5.540   4.676  17.839  0.00  0.00    +0.000 C 
ATOM      6  C   UNL     1       6.699   5.231  15.459  0.00  0.00    +0.000 C 
ATOM      7  F   UNL     1       7.849   5.673  16.115  0.00  0.00    +0.000 F 
ENDROOT
BRANCH   5   8
ATOM      8  N   UNL     1       6.877   4.819  18.478  0.00  0.00    +0.000 NA
ATOM      9  H   UNL     1       6.792   4.635  19.482  0.00  0.00    +0.000 HD
ATOM     10  H   UNL     1       7.147   5.807  18.427  0.00  0.00    +0.000 HD
ENDBRANCH   5   8
BRANCH   5  11
ATOM     11  C   UNL     1       4.914   3.423  18.490  0.00  0.00    +0.000 C 
ATOM     12  O   UNL     1       5.001   3.095  19.664  0.00  0.00    +0.000 OA
BRANCH  11  13
ATOM     13  O   UNL     1       4.201   2.698  17.581  0.00  0.00    +0.000 OA
ATOM     14  H   UNL     1       4.793   2.469  16.827  0.00  0.00    +0.000 HD
ENDBRANCH  11  13
ENDBRANCH   5  11
BRANCH   6  15
ATOM     15  C   UNL     1       6.930   4.693  14.079  0.00  0.00    +0.000 C 
ATOM     16  O   UNL     1       7.574   5.285  13.235  0.00  0.00    +0.000 OA
BRANCH  15  17
ATOM     17  O   UNL     1       6.340   3.494  13.866  0.00  0.00    +0.000 OA
ATOM     18  H   UNL     1       6.825   2.782  14.320  0.00  0.00    +0.000 HD
ENDBRANCH  15  17
ENDBRANCH   6  15
BRANCH   1  19
ATOM     19  O   UNL     1       3.277   5.848  17.816  0.00  0.00    +0.000 OA
BRANCH  19  20
ATOM     20  C   UNL     1       2.468   6.160  18.948  0.00  0.00    +0.000 C 
BRANCH  20  25
ATOM     21  C   UNL     1       1.046   2.677  19.552  0.00  0.00    +0.000 A 
ATOM     22  C   UNL     1       1.372   2.497  20.898  0.00  0.00    +0.000 A 
ATOM     23  C   UNL     1       1.936   3.538  21.642  0.00  0.00    +0.000 A 
ATOM     24  C   UNL     1       2.241   4.752  21.034  0.00  0.00    +0.000 A 
ATOM     25  C   UNL     1       2.002   4.924  19.667  0.00  0.00    +0.000 A 
ATOM     26  C   UNL     1       1.405   3.879  18.940  0.00  0.00    +0.000 A 
BRANCH  21  27
ATOM     27  N   UNL     1       0.606   1.598  18.777  0.00  0.00    +0.000 N 
ATOM     28  H   UNL     1      -0.247   1.169  19.122  0.00  0.00    +0.000 HD
ATOM     29  H   UNL     1       0.552   1.810  17.784  0.00  0.00    +0.000 HD
ENDBRANCH  21  27
ENDBRANCH  20  25
ENDBRANCH  19  20
ENDBRANCH   1  19
TORSDOF 9
ENDMDL
MODEL 2
REMARK VINA RESULT:      -7.7      3.545      5.715
REMARK  Name = 
REMARK  9 active torsions:
REMARK  status: ('A' for Active; 'I' for Inactive)
REMARK    1  A    between atoms: N_1  and  C_2
REMARK    2  A    between atoms: C_6  and  C_7
REMARK    3  A    between atoms: C_7  and  O_8
REMARK    4  A    between atoms: O_8  and  C_9
REMARK    5  A    between atoms: C_13  and  N_14
REMARK    6  A    between atoms: C_13  and  C_15
REMARK    7  A    between atoms: C_15  and  O_17
REMARK    8  A    between atoms: C_18  and  C_20
REMARK    9  A    between atoms: C_20  and  O_22
REMARK                            x       y       z     vdW  Elec       q    Type
REMARK                         _______ _______ _______ _____ _____    ______ ____
ROOT
ATOM      1  C   UNL     1       3.735   5.316  17.667  0.00  0.00    +0.000 C 
ATOM      2  C   UNL     1       2.265   4.890  17.912  0.00  0.00    +0.000 C 
ATOM      3  C   UNL     1       2.255   4.472  19.357  0.00  0.00    +0.000 C 
ATOM      4  C   UNL     1       3.661   4.037  19.716  0.00  0.00    +0.000 C 
ATOM      5  C   UNL     1       4.529   4.232  18.483  0.00  0.00    +0.000 C 
ATOM      6  C   UNL     1       2.504   3.073  19.850  0.00  0.00    +0.000 C 
ATOM      7  F   UNL     1       2.430   2.059  18.892  0.00  0.00    +0.000 F 
ENDROOT
BRANCH   5   8
ATOM      8  N   UNL     1       4.656   2.979  17.688  0.00  0.00    +0.000 NA
ATOM      9  H   UNL     1       4.714   2.180  18.328  0.00  0.00    +0.000 HD
ATOM     10  H   UNL     1       5.570   2.992  17.222  0.00  0.00    +0.000 HD
ENDBRANCH   5   8
BRANCH   5  11
ATOM     11  C   UNL     1       5.979   4.650  18.812  0.00  0.00    +0.000 C 
ATOM     12  O   UNL     1       6.344   5.317  19.768  0.00  0.00    +0.000 OA
BRANCH  11  13
ATOM     13  O   UNL     1       6.857   4.153  17.893  0.00  0.00    +0.000 OA
ATOM     14  H   UNL     1       6.970   4.818  17.175  0.00  0.00    +0.000 HD
ENDBRANCH  11  13
ENDBRANCH   5  11
BRANCH   6  15
ATOM     15  C   UNL     1       2.052   2.674  21.223  0.00  0.00    +0.000 C 
ATOM     16  O   UNL     1       2.818   2.311  22.094  0.00  0.00    +0.000 OA
BRANCH  15  17
ATOM     17  O   UNL     1       0.712   2.745  21.387  0.00  0.00    +0.000 OA
ATOM     18  H   UNL     1       0.464   3.534  21.900  0.00  0.00    +0.000 HD
ENDBRANCH  15  17
ENDBRANCH   6  15
BRANCH   1  19
ATOM     19  O   UNL     1       3.856   6.667  18.150  0.00  0.00    +0.000 OA
BRANCH  19  20
ATOM     20  C   UNL     1       3.031   7.606  17.463  0.00  0.00    +0.000 C 
BRANCH  20  25
ATOM     21  C   UNL     1       0.528  10.180  18.737  0.00  0.00    +0.000 A 
ATOM     22  C   UNL     1       0.339   9.728  20.045  0.00  0.00    +0.000 A 
ATOM     23  C   UNL     1       1.105   8.675  20.555  0.00  0.00    +0.000 A 
ATOM     24  C   UNL     1       2.025   8.018  19.744  0.00  0.00    +0.000 A 
ATOM     25  C   UNL     1       2.169   8.398  18.406  0.00  0.00    +0.000 A 
ATOM     26  C   UNL     1       1.414   9.479  17.918  0.00  0.00    +0.000 A 
BRANCH  21  27
ATOM     27  N   UNL     1      -0.327  11.142  18.188  0.00  0.00    +0.000 N 
ATOM     28  H   UNL     1      -1.261  10.795  17.996  0.00  0.00    +0.000 HD
ATOM     29  H   UNL     1      -0.344  12.013  18.713  0.00  0.00    +0.000 HD
ENDBRANCH  21  27
ENDBRANCH  20  25
ENDBRANCH  19  20
ENDBRANCH   1  19
TORSDOF 9
ENDMDL
MODEL 3
REMARK VINA RESULT:      -7.7      2.528      3.592
REMARK  Name = 
REMARK  9 active torsions:
REMARK  status: ('A' for Active; 'I' for Inactive)
REMARK    1  A    between atoms: N_1  and  C_2
REMARK    2  A    between atoms: C_6  and  C_7
REMARK    3  A    between atoms: C_7  and  O_8
REMARK    4  A    between atoms: O_8  and  C_9
REMARK    5  A    between atoms: C_13  and  N_14
REMARK    6  A    between atoms: C_13  and  C_15
REMARK    7  A    between atoms: C_15  and  O_17
REMARK    8  A    between atoms: C_18  and  C_20
REMARK    9  A    between atoms: C_20  and  O_22
REMARK                            x       y       z     vdW  Elec       q    Type
REMARK                         _______ _______ _______ _____ _____    ______ ____
ROOT
ATOM      1  C   UNL     1       5.682   4.393  17.489  0.00  0.00    +0.000 C 
ATOM      2  C   UNL     1       5.762   5.243  18.782  0.00  0.00    +0.000 C 
ATOM      3  C   UNL     1       6.276   6.572  18.298  0.00  0.00    +0.000 C 
ATOM      4  C   UNL     1       7.061   6.323  17.028  0.00  0.00    +0.000 C 
ATOM      5  C   UNL     1       6.985   4.834  16.727  0.00  0.00    +0.000 C 
ATOM      6  C   UNL     1       7.729   6.958  18.227  0.00  0.00    +0.000 C 
ATOM      7  F   UNL     1       8.618   6.151  18.940  0.00  0.00    +0.000 F 
ENDROOT
BRANCH   5   8
ATOM      8  N   UNL     1       8.166   4.098  17.256  0.00  0.00    +0.000 NA
ATOM      9  H   UNL     1       8.650   3.636  16.479  0.00  0.00    +0.000 HD
ATOM     10  H   UNL     1       7.823   3.322  17.833  0.00  0.00    +0.000 HD
ENDBRANCH   5   8
BRANCH   5  11
ATOM     11  C   UNL     1       6.953   4.513  15.217  0.00  0.00    +0.000 C 
ATOM     12  O   UNL     1       7.497   5.149  14.327  0.00  0.00    +0.000 OA
BRANCH  11  13
ATOM     13  O   UNL     1       6.239   3.377  14.968  0.00  0.00    +0.000 OA
ATOM     14  H   UNL     1       6.867   2.623  14.886  0.00  0.00    +0.000 HD
ENDBRANCH  11  13
ENDBRANCH   5  11
BRANCH   6  15
ATOM     15  C   UNL     1       8.113   8.406  18.155  0.00  0.00    +0.000 C 
ATOM     16  O   UNL     1       7.706   9.159  17.293  0.00  0.00    +0.000 OA
BRANCH  15  17
ATOM     17  O   UNL     1       8.968   8.781  19.134  0.00  0.00    +0.000 OA
ATOM     18  H   UNL     1       9.570   9.480  18.823  0.00  0.00    +0.000 HD
ENDBRANCH  15  17
ENDBRANCH   6  15
BRANCH   1  19
ATOM     19  O   UNL     1       4.441   4.739  16.846  0.00  0.00    +0.000 OA
BRANCH  19  20
ATOM     20  C   UNL     1       3.355   3.875  17.175  0.00  0.00    +0.000 C 
BRANCH  20  25
ATOM     21  C   UNL     1       2.220   3.539  20.796  0.00  0.00    +0.000 A 
ATOM     22  C   UNL     1       1.880   4.863  21.082  0.00  0.00    +0.000 A 
ATOM     23  C   UNL     1       1.899   5.839  20.080  0.00  0.00    +0.000 A 
ATOM     24  C   UNL     1       2.319   5.516  18.793  0.00  0.00    +0.000 A 
ATOM     25  C   UNL     1       2.745   4.215  18.506  0.00  0.00    +0.000 A 
ATOM     26  C   UNL     1       2.690   3.240  19.517  0.00  0.00    +0.000 A 
BRANCH  21  27
ATOM     27  N   UNL     1       2.329   2.596  21.825  0.00  0.00    +0.000 N 
ATOM     28  H   UNL     1       1.440   2.348  22.245  0.00  0.00    +0.000 HD
ATOM     29  H   UNL     1       2.870   1.776  21.563  0.00  0.00    +0.000 HD
ENDBRANCH  21  27
ENDBRANCH  20  25
ENDBRANCH  19  20
ENDBRANCH   1  19
TORSDOF 9
ENDMDL
MODEL 4
REMARK VINA RESULT:      -7.6      2.671      3.715
REMARK  Name = 
REMARK  9 active torsions:
REMARK  status: ('A' for Active; 'I' for Inactive)
REMARK    1  A    between atoms: N_1  and  C_2
REMARK    2  A    between atoms: C_6  and  C_7
REMARK    3  A    between atoms: C_7  and  O_8
REMARK    4  A    between atoms: O_8  and  C_9
REMARK    5  A    between atoms: C_13  and  N_14
REMARK    6  A    between atoms: C_13  and  C_15
REMARK    7  A    between atoms: C_15  and  O_17
REMARK    8  A    between atoms: C_18  and  C_20
REMARK    9  A    between atoms: C_20  and  O_22
REMARK                            x       y       z     vdW  Elec       q    Type
REMARK                         _______ _______ _______ _____ _____    ______ ____
ROOT
ATOM      1  C   UNL     1       5.659   4.431  17.511  0.00  0.00    +0.000 C 
ATOM      2  C   UNL     1       5.757   5.279  18.804  0.00  0.00    +0.000 C 
ATOM      3  C   UNL     1       6.291   6.600  18.321  0.00  0.00    +0.000 C 
ATOM      4  C   UNL     1       7.067   6.340  17.046  0.00  0.00    +0.000 C 
ATOM      5  C   UNL     1       6.965   4.853  16.744  0.00  0.00    +0.000 C 
ATOM      6  C   UNL     1       7.749   6.963  18.243  0.00  0.00    +0.000 C 
ATOM      7  F   UNL     1       8.627   6.142  18.952  0.00  0.00    +0.000 F 
ENDROOT
BRANCH   5   8
ATOM      8  N   UNL     1       8.137   4.098  17.268  0.00  0.00    +0.000 NA
ATOM      9  H   UNL     1       7.828   3.173  17.583  0.00  0.00    +0.000 HD
ATOM     10  H   UNL     1       8.454   4.562  18.126  0.00  0.00    +0.000 HD
ENDBRANCH   5   8
BRANCH   5  11
ATOM     11  C   UNL     1       6.923   4.534  15.234  0.00  0.00    +0.000 C 
ATOM     12  O   UNL     1       7.441   5.185  14.339  0.00  0.00    +0.000 OA
BRANCH  11  13
ATOM     13  O   UNL     1       6.232   3.382  14.991  0.00  0.00    +0.000 OA
ATOM     14  H   UNL     1       6.872   2.634  14.956  0.00  0.00    +0.000 HD
ENDBRANCH  11  13
ENDBRANCH   5  11
BRANCH   6  15
ATOM     15  C   UNL     1       8.155   8.405  18.172  0.00  0.00    +0.000 C 
ATOM     16  O   UNL     1       7.782   9.158  17.294  0.00  0.00    +0.000 OA
BRANCH  15  17
ATOM     17  O   UNL     1       8.989   8.775  19.171  0.00  0.00    +0.000 OA
ATOM     18  H   UNL     1       8.511   9.275  19.857  0.00  0.00    +0.000 HD
ENDBRANCH  15  17
ENDBRANCH   6  15
BRANCH   1  19
ATOM     19  O   UNL     1       4.421   4.798  16.873  0.00  0.00    +0.000 OA
BRANCH  19  20
ATOM     20  C   UNL     1       3.415   3.789  16.935  0.00  0.00    +0.000 C 
BRANCH  20  25
ATOM     21  C   UNL     1       1.845   5.174  20.118  0.00  0.00    +0.000 A 
ATOM     22  C   UNL     1       0.966   4.139  20.442  0.00  0.00    +0.000 A 
ATOM     23  C   UNL     1       0.964   2.947  19.710  0.00  0.00    +0.000 A 
ATOM     24  C   UNL     1       1.798   2.799  18.606  0.00  0.00    +0.000 A 
ATOM     25  C   UNL     1       2.625   3.856  18.213  0.00  0.00    +0.000 A 
ATOM     26  C   UNL     1       2.637   5.036  18.978  0.00  0.00    +0.000 A 
BRANCH  21  27
ATOM     27  N   UNL     1       1.754   6.412  20.765  0.00  0.00    +0.000 N 
ATOM     28  H   UNL     1       2.356   6.493  21.578  0.00  0.00    +0.000 HD
ATOM     29  H   UNL     1       1.855   7.204  20.135  0.00  0.00    +0.000 HD
ENDBRANCH  21  27
ENDBRANCH  20  25
ENDBRANCH  19  20
ENDBRANCH   1  19
TORSDOF 9
ENDMDL
MODEL 5
REMARK VINA RESULT:      -7.5      2.875      3.713
REMARK  Name = 
REMARK  9 active torsions:
REMARK  status: ('A' for Active; 'I' for Inactive)
REMARK    1  A    between atoms: N_1  and  C_2
REMARK    2  A    between atoms: C_6  and  C_7
REMARK    3  A    between atoms: C_7  and  O_8
REMARK    4  A    between atoms: O_8  and  C_9
REMARK    5  A    between atoms: C_13  and  N_14
REMARK    6  A    between atoms: C_13  and  C_15
REMARK    7  A    between atoms: C_15  and  O_17
REMARK    8  A    between atoms: C_18  and  C_20
REMARK    9  A    between atoms: C_20  and  O_22
REMARK                            x       y       z     vdW  Elec       q    Type
REMARK                         _______ _______ _______ _____ _____    ______ ____
ROOT
ATOM      1  C   UNL     1       4.051   5.387  18.569  0.00  0.00    +0.000 C 
ATOM      2  C   UNL     1       5.241   6.241  18.062  0.00  0.00    +0.000 C 
ATOM      3  C   UNL     1       5.455   5.747  16.657  0.00  0.00    +0.000 C 
ATOM      4  C   UNL     1       4.941   4.324  16.589  0.00  0.00    +0.000 C 
ATOM      5  C   UNL     1       4.379   3.975  17.959  0.00  0.00    +0.000 C 
ATOM      6  C   UNL     1       6.387   4.631  16.270  0.00  0.00    +0.000 C 
ATOM      7  F   UNL     1       7.327   4.251  17.230  0.00  0.00    +0.000 F 
ENDROOT
BRANCH   5   8
ATOM      8  N   UNL     1       5.377   3.266  18.806  0.00  0.00    +0.000 NA
ATOM      9  H   UNL     1       5.605   2.365  18.374  0.00  0.00    +0.000 HD
ATOM     10  H   UNL     1       4.920   3.012  19.688  0.00  0.00    +0.000 HD
ENDBRANCH   5   8
BRANCH   5  11
ATOM     11  C   UNL     1       3.158   3.032  17.900  0.00  0.00    +0.000 C 
ATOM     12  O   UNL     1       2.955   2.061  18.613  0.00  0.00    +0.000 OA
BRANCH  11  13
ATOM     13  O   UNL     1       2.275   3.427  16.937  0.00  0.00    +0.000 OA
ATOM     14  H   UNL     1       2.779   3.654  16.123  0.00  0.00    +0.000 HD
ENDBRANCH  11  13
ENDBRANCH   5  11
BRANCH   6  15
ATOM     15  C   UNL     1       6.854   4.507  14.850  0.00  0.00    +0.000 C 
ATOM     16  O   UNL     1       7.630   5.288  14.336  0.00  0.00    +0.000 OA
BRANCH  15  17
ATOM     17  O   UNL     1       6.314   3.451  14.200  0.00  0.00    +0.000 OA
ATOM     18  H   UNL     1       6.481   3.509  13.242  0.00  0.00    +0.000 HD
ENDBRANCH  15  17
ENDBRANCH   6  15
BRANCH   1  19
ATOM     19  O   UNL     1       2.854   6.014  18.071  0.00  0.00    +0.000 OA
BRANCH  19  20
ATOM     20  C   UNL     1       3.005   7.402  17.779  0.00  0.00    +0.000 C 
BRANCH  20  25
ATOM     21  C   UNL     1       0.459  10.063  18.755  0.00  0.00    +0.000 A 
ATOM     22  C   UNL     1       0.209   9.704  20.081  0.00  0.00    +0.000 A 
ATOM     23  C   UNL     1       0.945   8.688  20.698  0.00  0.00    +0.000 A 
ATOM     24  C   UNL     1       1.898   7.974  19.977  0.00  0.00    +0.000 A 
ATOM     25  C   UNL     1       2.104   8.259  18.624  0.00  0.00    +0.000 A 
ATOM     26  C   UNL     1       1.377   9.305  18.028  0.00  0.00    +0.000 A 
BRANCH  21  27
ATOM     27  N   UNL     1      -0.365  10.986  18.101  0.00  0.00    +0.000 N 
ATOM     28  H   UNL     1      -1.227  11.186  18.598  0.00  0.00    +0.000 HD
ATOM     29  H   UNL     1       0.121  11.835  17.824  0.00  0.00    +0.000 HD
ENDBRANCH  21  27
ENDBRANCH  20  25
ENDBRANCH  19  20
ENDBRANCH   1  19
TORSDOF 9
ENDMDL
MODEL 6
REMARK VINA RESULT:      -7.5      2.395      3.360
REMARK  Name = 
REMARK  9 active torsions:
REMARK  status: ('A' for Active; 'I' for Inactive)
REMARK    1  A    between atoms: N_1  and  C_2
REMARK    2  A    between atoms: C_6  and  C_7
REMARK    3  A    between atoms: C_7  and  O_8
REMARK    4  A    between atoms: O_8  and  C_9
REMARK    5  A    between atoms: C_13  and  N_14
REMARK    6  A    between atoms: C_13  and  C_15
REMARK    7  A    between atoms: C_15  and  O_17
REMARK    8  A    between atoms: C_18  and  C_20
REMARK    9  A    between atoms: C_20  and  O_22
REMARK                            x       y       z     vdW  Elec       q    Type
REMARK                         _______ _______ _______ _____ _____    ______ ____
ROOT
ATOM      1  C   UNL     1       5.617   4.500  17.521  0.00  0.00    +0.000 C 
ATOM      2  C   UNL     1       5.708   5.370  18.800  0.00  0.00    +0.000 C 
ATOM      3  C   UNL     1       6.278   6.670  18.303  0.00  0.00    +0.000 C 
ATOM      4  C   UNL     1       7.072   6.371  17.048  0.00  0.00    +0.000 C 
ATOM      5  C   UNL     1       6.946   4.881  16.772  0.00  0.00    +0.000 C 
ATOM      6  C   UNL     1       7.744   7.003  18.247  0.00  0.00    +0.000 C 
ATOM      7  F   UNL     1       8.593   6.177  18.987  0.00  0.00    +0.000 F 
ENDROOT
BRANCH   5   8
ATOM      8  N   UNL     1       8.092   4.112  17.331  0.00  0.00    +0.000 NA
ATOM      9  H   UNL     1       7.872   3.833  18.293  0.00  0.00    +0.000 HD
ATOM     10  H   UNL     1       8.884   4.755  17.433  0.00  0.00    +0.000 HD
ENDBRANCH   5   8
BRANCH   5  11
ATOM     11  C   UNL     1       6.925   4.535  15.267  0.00  0.00    +0.000 C 
ATOM     12  O   UNL     1       7.486   5.149  14.372  0.00  0.00    +0.000 OA
BRANCH  11  13
ATOM     13  O   UNL     1       6.198   3.404  15.031  0.00  0.00    +0.000 OA
ATOM     14  H   UNL     1       6.730   2.803  14.460  0.00  0.00    +0.000 HD
ENDBRANCH  11  13
ENDBRANCH   5  11
BRANCH   6  15
ATOM     15  C   UNL     1       8.182   8.434  18.157  0.00  0.00    +0.000 C 
ATOM     16  O   UNL     1       7.828   9.182  17.267  0.00  0.00    +0.000 OA
BRANCH  15  17
ATOM     17  O   UNL     1       9.019   8.801  19.153  0.00  0.00    +0.000 OA
ATOM     18  H   UNL     1       8.550   9.319  19.831  0.00  0.00    +0.000 HD
ENDBRANCH  15  17
ENDBRANCH   6  15
BRANCH   1  19
ATOM     19  O   UNL     1       4.399   4.880  16.853  0.00  0.00    +0.000 OA
BRANCH  19  20
ATOM     20  C   UNL     1       3.569   5.756  17.613  0.00  0.00    +0.000 C 
BRANCH  20  25
ATOM     21  C   UNL     1       1.282   2.966  18.839  0.00  0.00    +0.000 A 
ATOM     22  C   UNL     1       0.954   3.443  20.110  0.00  0.00    +0.000 A 
ATOM     23  C   UNL     1       1.366   4.714  20.525  0.00  0.00    +0.000 A 
ATOM     24  C   UNL     1       2.165   5.498  19.698  0.00  0.00    +0.000 A 
ATOM     25  C   UNL     1       2.576   5.004  18.457  0.00  0.00    +0.000 A 
ATOM     26  C   UNL     1       2.128   3.738  18.042  0.00  0.00    +0.000 A 
BRANCH  21  27
ATOM     27  N   UNL     1       0.984   1.647  18.477  0.00  0.00    +0.000 N 
ATOM     28  H   UNL     1       1.781   1.021  18.526  0.00  0.00    +0.000 HD
ATOM     29  H   UNL     1       0.173   1.270  18.961  0.00  0.00    +0.000 HD
ENDBRANCH  21  27
ENDBRANCH  20  25
ENDBRANCH  19  20
ENDBRANCH   1  19
TORSDOF 9
ENDMDL
MODEL 7
REMARK VINA RESULT:      -7.5      2.551      3.569
REMARK  Name = 
REMARK  9 active torsions:
REMARK  status: ('A' for Active; 'I' for Inactive)
REMARK    1  A    between atoms: N_1  and  C_2
REMARK    2  A    between atoms: C_6  and  C_7
REMARK    3  A    between atoms: C_7  and  O_8
REMARK    4  A    between atoms: O_8  and  C_9
REMARK    5  A    between atoms: C_13  and  N_14
REMARK    6  A    between atoms: C_13  and  C_15
REMARK    7  A    between atoms: C_15  and  O_17
REMARK    8  A    between atoms: C_18  and  C_20
REMARK    9  A    between atoms: C_20  and  O_22
REMARK                            x       y       z     vdW  Elec       q    Type
REMARK                         _______ _______ _______ _____ _____    ______ ____
ROOT
ATOM      1  C   UNL     1       5.618   4.496  17.623  0.00  0.00    +0.000 C 
ATOM      2  C   UNL     1       5.729   5.387  18.886  0.00  0.00    +0.000 C 
ATOM      3  C   UNL     1       6.300   6.676  18.359  0.00  0.00    +0.000 C 
ATOM      4  C   UNL     1       7.077   6.351  17.101  0.00  0.00    +0.000 C 
ATOM      5  C   UNL     1       6.939   4.856  16.851  0.00  0.00    +0.000 C 
ATOM      6  C   UNL     1       7.767   6.999  18.280  0.00  0.00    +0.000 C 
ATOM      7  F   UNL     1       8.620   6.181  19.024  0.00  0.00    +0.000 F 
ENDROOT
BRANCH   5   8
ATOM      8  N   UNL     1       8.088   4.091  17.410  0.00  0.00    +0.000 NA
ATOM      9  H   UNL     1       7.957   3.978  18.420  0.00  0.00    +0.000 HD
ATOM     10  H   UNL     1       8.927   4.676  17.331  0.00  0.00    +0.000 HD
ENDBRANCH   5   8
BRANCH   5  11
ATOM     11  C   UNL     1       6.899   4.485  15.353  0.00  0.00    +0.000 C 
ATOM     12  O   UNL     1       7.425   5.100  14.438  0.00  0.00    +0.000 OA
BRANCH  11  13
ATOM     13  O   UNL     1       6.199   3.331  15.149  0.00  0.00    +0.000 OA
ATOM     14  H   UNL     1       6.573   2.873  14.362  0.00  0.00    +0.000 HD
ENDBRANCH  11  13
ENDBRANCH   5  11
BRANCH   6  15
ATOM     15  C   UNL     1       8.211   8.426  18.161  0.00  0.00    +0.000 C 
ATOM     16  O   UNL     1       7.893   9.145  17.234  0.00  0.00    +0.000 OA
BRANCH  15  17
ATOM     17  O   UNL     1       9.011   8.824  19.176  0.00  0.00    +0.000 OA
ATOM     18  H   UNL     1       8.578   8.683  20.037  0.00  0.00    +0.000 HD
ENDBRANCH  15  17
ENDBRANCH   6  15
BRANCH   1  19
ATOM     19  O   UNL     1       4.394   4.871  16.963  0.00  0.00    +0.000 OA
BRANCH  19  20
ATOM     20  C   UNL     1       3.403   5.406  17.838  0.00  0.00    +0.000 C 
BRANCH  20  25
ATOM     21  C   UNL     1       2.042   3.256  20.674  0.00  0.00    +0.000 A 
ATOM     22  C   UNL     1       1.059   2.531  19.997  0.00  0.00    +0.000 A 
ATOM     23  C   UNL     1       0.916   2.642  18.610  0.00  0.00    +0.000 A 
ATOM     24  C   UNL     1       1.713   3.528  17.890  0.00  0.00    +0.000 A 
ATOM     25  C   UNL     1       2.644   4.327  18.560  0.00  0.00    +0.000 A 
ATOM     26  C   UNL     1       2.797   4.180  19.950  0.00  0.00    +0.000 A 
BRANCH  21  27
ATOM     27  N   UNL     1       2.095   3.245  22.072  0.00  0.00    +0.000 N 
ATOM     28  H   UNL     1       1.201   3.055  22.513  0.00  0.00    +0.000 HD
ATOM     29  H   UNL     1       2.836   2.654  22.442  0.00  0.00    +0.000 HD
ENDBRANCH  21  27
ENDBRANCH  20  25
ENDBRANCH  19  20
ENDBRANCH   1  19
TORSDOF 9
ENDMDL
MODEL 8
REMARK VINA RESULT:      -7.5      3.375      5.660
REMARK  Name = 
REMARK  9 active torsions:
REMARK  status: ('A' for Active; 'I' for Inactive)
REMARK    1  A    between atoms: N_1  and  C_2
REMARK    2  A    between atoms: C_6  and  C_7
REMARK    3  A    between atoms: C_7  and  O_8
REMARK    4  A    between atoms: O_8  and  C_9
REMARK    5  A    between atoms: C_13  and  N_14
REMARK    6  A    between atoms: C_13  and  C_15
REMARK    7  A    between atoms: C_15  and  O_17
REMARK    8  A    between atoms: C_18  and  C_20
REMARK    9  A    between atoms: C_20  and  O_22
REMARK                            x       y       z     vdW  Elec       q    Type
REMARK                         _______ _______ _______ _____ _____    ______ ____
ROOT
ATOM      1  C   UNL     1       3.666   5.647  17.666  0.00  0.00    +0.000 C 
ATOM      2  C   UNL     1       2.242   5.068  17.858  0.00  0.00    +0.000 C 
ATOM      3  C   UNL     1       2.231   4.626  19.296  0.00  0.00    +0.000 C 
ATOM      4  C   UNL     1       3.663   4.333  19.695  0.00  0.00    +0.000 C 
ATOM      5  C   UNL     1       4.544   4.638  18.493  0.00  0.00    +0.000 C 
ATOM      6  C   UNL     1       2.609   3.252  19.778  0.00  0.00    +0.000 C 
ATOM      7  F   UNL     1       2.670   2.252  18.804  0.00  0.00    +0.000 F 
ENDROOT
BRANCH   5   8
ATOM      8  N   UNL     1       4.825   3.418  17.686  0.00  0.00    +0.000 NA
ATOM      9  H   UNL     1       3.937   2.992  17.400  0.00  0.00    +0.000 HD
ATOM     10  H   UNL     1       5.249   2.720  18.306  0.00  0.00    +0.000 HD
ENDBRANCH   5   8
BRANCH   5  11
ATOM     11  C   UNL     1       5.931   5.197  18.874  0.00  0.00    +0.000 C 
ATOM     12  O   UNL     1       6.570   4.931  19.881  0.00  0.00    +0.000 OA
BRANCH  11  13
ATOM     13  O   UNL     1       6.404   6.043  17.913  0.00  0.00    +0.000 OA
ATOM     14  H   UNL     1       7.388   6.020  17.931  0.00  0.00    +0.000 HD
ENDBRANCH  11  13
ENDBRANCH   5  11
BRANCH   6  15
ATOM     15  C   UNL     1       2.159   2.785  21.130  0.00  0.00    +0.000 C 
ATOM     16  O   UNL     1       2.928   2.403  21.990  0.00  0.00    +0.000 OA
BRANCH  15  17
ATOM     17  O   UNL     1       0.816   2.819  21.288  0.00  0.00    +0.000 OA
ATOM     18  H   UNL     1       0.479   1.958  21.594  0.00  0.00    +0.000 HD
ENDBRANCH  15  17
ENDBRANCH   6  15
BRANCH   1  19
ATOM     19  O   UNL     1       3.632   6.995  18.172  0.00  0.00    +0.000 OA
BRANCH  19  20
ATOM     20  C   UNL     1       2.691   7.840  17.510  0.00  0.00    +0.000 C 
BRANCH  20  25
ATOM     21  C   UNL     1       1.129   8.966  20.798  0.00  0.00    +0.000 A 
ATOM     22  C   UNL     1       0.357  10.043  20.359  0.00  0.00    +0.000 A 
ATOM     23  C   UNL     1       0.241  10.331  18.995  0.00  0.00    +0.000 A 
ATOM     24  C   UNL     1       0.947   9.584  18.056  0.00  0.00    +0.000 A 
ATOM     25  C   UNL     1       1.793   8.556  18.481  0.00  0.00    +0.000 A 
ATOM     26  C   UNL     1       1.874   8.259  19.853  0.00  0.00    +0.000 A 
BRANCH  21  27
ATOM     27  N   UNL     1       1.350   8.761  22.164  0.00  0.00    +0.000 N 
ATOM     28  H   UNL     1       2.235   9.134  22.495  0.00  0.00    +0.000 HD
ATOM     29  H   UNL     1       0.571   9.056  22.747  0.00  0.00    +0.000 HD
ENDBRANCH  21  27
ENDBRANCH  20  25
ENDBRANCH  19  20
ENDBRANCH   1  19
TORSDOF 9
ENDMDL
MODEL 9
REMARK VINA RESULT:      -7.4      2.716      3.713
REMARK  Name = 
REMARK  9 active torsions:
REMARK  status: ('A' for Active; 'I' for Inactive)
REMARK    1  A    between atoms: N_1  and  C_2
REMARK    2  A    between atoms: C_6  and  C_7
REMARK    3  A    between atoms: C_7  and  O_8
REMARK    4  A    between atoms: O_8  and  C_9
REMARK    5  A    between atoms: C_13  and  N_14
REMARK    6  A    between atoms: C_13  and  C_15
REMARK    7  A    between atoms: C_15  and  O_17
REMARK    8  A    between atoms: C_18  and  C_20
REMARK    9  A    between atoms: C_20  and  O_22
REMARK                            x       y       z     vdW  Elec       q    Type
REMARK                         _______ _______ _______ _____ _____    ______ ____
ROOT
ATOM      1  C   UNL     1       4.035   5.388  18.628  0.00  0.00    +0.000 C 
ATOM      2  C   UNL     1       5.234   6.235  18.131  0.00  0.00    +0.000 C 
ATOM      3  C   UNL     1       5.462   5.735  16.730  0.00  0.00    +0.000 C 
ATOM      4  C   UNL     1       4.942   4.314  16.662  0.00  0.00    +0.000 C 
ATOM      5  C   UNL     1       4.362   3.973  18.026  0.00  0.00    +0.000 C 
ATOM      6  C   UNL     1       6.393   4.613  16.358  0.00  0.00    +0.000 C 
ATOM      7  F   UNL     1       7.320   4.232  17.330  0.00  0.00    +0.000 F 
ENDROOT
BRANCH   5   8
ATOM      8  N   UNL     1       5.348   3.262  18.887  0.00  0.00    +0.000 NA
ATOM      9  H   UNL     1       6.039   2.796  18.292  0.00  0.00    +0.000 HD
ATOM     10  H   UNL     1       4.860   2.491  19.355  0.00  0.00    +0.000 HD
ENDBRANCH   5   8
BRANCH   5  11
ATOM     11  C   UNL     1       3.137   3.036  17.957  0.00  0.00    +0.000 C 
ATOM     12  O   UNL     1       2.969   2.012  18.602  0.00  0.00    +0.000 OA
BRANCH  11  13
ATOM     13  O   UNL     1       2.207   3.503  17.075  0.00  0.00    +0.000 OA
ATOM     14  H   UNL     1       2.353   4.469  16.947  0.00  0.00    +0.000 HD
ENDBRANCH  11  13
ENDBRANCH   5  11
BRANCH   6  15
ATOM     15  C   UNL     1       6.875   4.482  14.944  0.00  0.00    +0.000 C 
ATOM     16  O   UNL     1       7.663   5.256  14.437  0.00  0.00    +0.000 OA
BRANCH  15  17
ATOM     17  O   UNL     1       6.334   3.429  14.290  0.00  0.00    +0.000 OA
ATOM     18  H   UNL     1       5.701   3.727  13.612  0.00  0.00    +0.000 HD
ENDBRANCH  15  17
ENDBRANCH   6  15
BRANCH   1  19
ATOM     19  O   UNL     1       2.847   6.020  18.114  0.00  0.00    +0.000 OA
BRANCH  19  20
ATOM     20  C   UNL     1       3.005   7.407  17.825  0.00  0.00    +0.000 C 
BRANCH  20  25
ATOM     21  C   UNL     1       0.978   8.941  20.663  0.00  0.00    +0.000 A 
ATOM     22  C   UNL     1       0.344   9.987  19.989  0.00  0.00    +0.000 A 
ATOM     23  C   UNL     1       0.470  10.125  18.602  0.00  0.00    +0.000 A 
ATOM     24  C   UNL     1       1.284   9.256  17.881  0.00  0.00    +0.000 A 
ATOM     25  C   UNL     1       1.996   8.255  18.548  0.00  0.00    +0.000 A 
ATOM     26  C   UNL     1       1.833   8.110  19.938  0.00  0.00    +0.000 A 
BRANCH  21  27
ATOM     27  N   UNL     1       0.959   8.883  22.061  0.00  0.00    +0.000 N 
ATOM     28  H   UNL     1       0.460   8.079  22.429  0.00  0.00    +0.000 HD
ATOM     29  H   UNL     1       1.880   8.985  22.481  0.00  0.00    +0.000 HD
ENDBRANCH  21  27
ENDBRANCH  20  25
ENDBRANCH  19  20
ENDBRANCH   1  19
TORSDOF 9
ENDMDL
