MODEL 1
REMARK VINA RESULT:      -8.4      0.000      0.000
REMARK  Name = 
REMARK  6 active torsions:
REMARK  status: ('A' for Active; 'I' for Inactive)
REMARK    1  A    between atoms: N_1  and  C_2
REMARK    2  A    between atoms: C_5  and  C_6
REMARK    3  A    between atoms: C_8  and  N_9
REMARK    4  A    between atoms: C_17  and  C_18
REMARK    5  A    between atoms: C_27  and  O_28
REMARK    6  A    between atoms: O_28  and  C_29
REMARK                            x       y       z     vdW  Elec       q    Type
REMARK                         _______ _______ _______ _____ _____    ______ ____
ROOT
ATOM      1  C   UNL     1       2.797   7.055  18.454  0.00  0.00    +0.000 A 
ATOM      2  C   UNL     1       3.712   6.826  17.448  0.00  0.00    +0.000 A 
ATOM      3  C   UNL     1       4.143   5.534  17.213  0.00  0.00    +0.000 A 
ATOM      4  N   UNL     1       3.710   4.528  17.987  0.00  0.00    +0.000 NA
ATOM      5  C   UNL     1       2.866   4.829  19.004  0.00  0.00    +0.000 A 
ATOM      6  N   UNL     1       2.391   6.062  19.264  0.00  0.00    +0.000 NA
ENDROOT
BRANCH   3   7
ATOM      7  N   UNL     1       4.950   5.291  16.139  0.00  0.00    +0.000 N 
ATOM      8  C   UNL     1       5.446   6.323  15.216  0.00  0.00    +0.000 C 
ATOM      9  C   UNL     1       6.555   5.536  14.472  0.00  0.00    +0.000 C 
ATOM     10  C   UNL     1       5.978   4.128  14.440  0.00  0.00    +0.000 C 
ATOM     11  C   UNL     1       5.801   4.105  15.961  0.00  0.00    +0.000 C 
ATOM     12  C   UNL     1       7.240   4.450  16.381  0.00  0.00    +0.000 C 
ATOM     13  O   UNL     1       7.695   5.397  15.363  0.00  0.00    +0.000 OA
ENDBRANCH   3   7
BRANCH   5  14
ATOM     14  C   UNL     1       2.388   3.707  19.883  0.00  0.00    +0.000 C 
ATOM     15  C   UNL     1       3.516   2.798  20.428  0.00  0.00    +0.000 C 
ATOM     16  C   UNL     1       2.849   2.069  21.607  0.00  0.00    +0.000 C 
ATOM     17  C   UNL     1       1.428   2.651  21.617  0.00  0.00    +0.000 C 
ATOM     18  C   UNL     1       0.656   2.098  20.409  0.00  0.00    +0.000 C 
ATOM     19  C   UNL     1       1.313   2.815  19.217  0.00  0.00    +0.000 C 
ATOM     20  C   UNL     1       1.677   4.098  21.194  0.00  0.00    +0.000 C 
ENDBRANCH   5  14
BRANCH   1  24
ATOM     21  C   UNL     1       1.055  10.902  19.000  0.00  0.00    +0.000 A 
ATOM     22  N   UNL     1       1.773  10.654  17.888  0.00  0.00    +0.000 NA
ATOM     23  C   UNL     1       2.310   9.412  17.739  0.00  0.00    +0.000 A 
ATOM     24  C   UNL     1       2.194   8.380  18.663  0.00  0.00    +0.000 A 
ATOM     25  C   UNL     1       1.459   8.692  19.815  0.00  0.00    +0.000 A 
ATOM     26  C   UNL     1       0.845   9.937  19.985  0.00  0.00    +0.000 A 
BRANCH  21  27
ATOM     27  N   UNL     1       0.551  12.202  19.077  0.00  0.00    +0.000 N 
ATOM     28  H   UNL     1       1.347  12.773  19.365  0.00  0.00    +0.000 HD
ATOM     29  H   UNL     1       0.253  12.503  18.151  0.00  0.00    +0.000 HD
ENDBRANCH  21  27
BRANCH  26  30
ATOM     30  O   UNL     1       0.138  10.030  21.148  0.00  0.00    +0.000 OA
BRANCH  30  31
ATOM     31  C   UNL     1       0.192   8.940  22.050  0.00  0.00    +0.000 C 
ATOM     32  F   UNL     1       0.025   9.373  23.328  0.00  0.00    +0.000 F 
ATOM     33  F   UNL     1      -0.889   8.160  21.782  0.00  0.00    +0.000 F 
ENDBRANCH  30  31
ENDBRANCH  26  30
ENDBRANCH   1  24
TORSDOF 6
ENDMDL
MODEL 2
REMARK VINA RESULT:      -8.2      0.729      1.246
REMARK  Name = 
REMARK  6 active torsions:
REMARK  status: ('A' for Active; 'I' for Inactive)
REMARK    1  A    between atoms: N_1  and  C_2
REMARK    2  A    between atoms: C_5  and  C_6
REMARK    3  A    between atoms: C_8  and  N_9
REMARK    4  A    between atoms: C_17  and  C_18
REMARK    5  A    between atoms: C_27  and  O_28
REMARK    6  A    between atoms: O_28  and  C_29
REMARK                            x       y       z     vdW  Elec       q    Type
REMARK                         _______ _______ _______ _____ _____    ______ ____
ROOT
ATOM      1  C   UNL     1       2.656   7.388  18.543  0.00  0.00    +0.000 A 
ATOM      2  C   UNL     1       3.750   7.262  17.713  0.00  0.00    +0.000 A 
ATOM      3  C   UNL     1       4.230   5.999  17.421  0.00  0.00    +0.000 A 
ATOM      4  N   UNL     1       3.664   4.918  17.979  0.00  0.00    +0.000 NA
ATOM      5  C   UNL     1       2.637   5.113  18.841  0.00  0.00    +0.000 A 
ATOM      6  N   UNL     1       2.110   6.315  19.141  0.00  0.00    +0.000 NA
ENDROOT
BRANCH   3   7
ATOM      7  N   UNL     1       5.232   5.867  16.504  0.00  0.00    +0.000 N 
ATOM      8  C   UNL     1       6.550   6.513  16.608  0.00  0.00    +0.000 C 
ATOM      9  C   UNL     1       7.340   5.730  15.529  0.00  0.00    +0.000 C 
ATOM     10  C   UNL     1       6.264   5.444  14.491  0.00  0.00    +0.000 C 
ATOM     11  C   UNL     1       5.361   4.773  15.530  0.00  0.00    +0.000 C 
ATOM     12  C   UNL     1       6.348   3.727  16.074  0.00  0.00    +0.000 C 
ATOM     13  O   UNL     1       7.643   4.408  16.051  0.00  0.00    +0.000 OA
ENDBRANCH   3   7
BRANCH   5  14
ATOM     14  C   UNL     1       2.008   3.906  19.478  0.00  0.00    +0.000 C 
ATOM     15  C   UNL     1       0.959   3.190  18.594  0.00  0.00    +0.000 C 
ATOM     16  C   UNL     1       0.828   1.803  19.246  0.00  0.00    +0.000 C 
ATOM     17  C   UNL     1       1.824   1.873  20.414  0.00  0.00    +0.000 C 
ATOM     18  C   UNL     1       1.254   2.802  21.497  0.00  0.00    +0.000 C 
ATOM     19  C   UNL     1       1.374   4.196  20.860  0.00  0.00    +0.000 C 
ATOM     20  C   UNL     1       2.943   2.730  19.824  0.00  0.00    +0.000 C 
ENDBRANCH   5  14
BRANCH   1  24
ATOM     21  C   UNL     1       0.797  11.167  19.171  0.00  0.00    +0.000 A 
ATOM     22  N   UNL     1       1.548  10.975  18.070  0.00  0.00    +0.000 NA
ATOM     23  C   UNL     1       2.122   9.754  17.894  0.00  0.00    +0.000 A 
ATOM     24  C   UNL     1       2.012   8.689  18.780  0.00  0.00    +0.000 A 
ATOM     25  C   UNL     1       1.242   8.943  19.923  0.00  0.00    +0.000 A 
ATOM     26  C   UNL     1       0.590  10.165  20.118  0.00  0.00    +0.000 A 
BRANCH  21  27
ATOM     27  N   UNL     1       0.256  12.450  19.277  0.00  0.00    +0.000 N 
ATOM     28  H   UNL     1      -0.488  12.477  18.578  0.00  0.00    +0.000 HD
ATOM     29  H   UNL     1      -0.159  12.565  20.199  0.00  0.00    +0.000 HD
ENDBRANCH  21  27
BRANCH  26  30
ATOM     30  O   UNL     1      -0.147  10.200  21.265  0.00  0.00    +0.000 OA
BRANCH  30  31
ATOM     31  C   UNL     1       0.098   9.209  22.246  0.00  0.00    +0.000 C 
ATOM     32  F   UNL     1      -0.027   9.735  23.494  0.00  0.00    +0.000 F 
ATOM     33  F   UNL     1      -0.901   8.294  22.131  0.00  0.00    +0.000 F 
ENDBRANCH  30  31
ENDBRANCH  26  30
ENDBRANCH   1  24
TORSDOF 6
ENDMDL
MODEL 3
REMARK VINA RESULT:      -7.9      1.830      2.057
REMARK  Name = 
REMARK  6 active torsions:
REMARK  status: ('A' for Active; 'I' for Inactive)
REMARK    1  A    between atoms: N_1  and  C_2
REMARK    2  A    between atoms: C_5  and  C_6
REMARK    3  A    between atoms: C_8  and  N_9
REMARK    4  A    between atoms: C_17  and  C_18
REMARK    5  A    between atoms: C_27  and  O_28
REMARK    6  A    between atoms: O_28  and  C_29
REMARK                            x       y       z     vdW  Elec       q    Type
REMARK                         _______ _______ _______ _____ _____    ______ ____
ROOT
ATOM      1  C   UNL     1       2.710   7.554  18.167  0.00  0.00    +0.000 A 
ATOM      2  C   UNL     1       3.827   7.376  17.377  0.00  0.00    +0.000 A 
ATOM      3  C   UNL     1       4.360   6.108  17.245  0.00  0.00    +0.000 A 
ATOM      4  N   UNL     1       3.822   5.077  17.914  0.00  0.00    +0.000 NA
ATOM      5  C   UNL     1       2.768   5.330  18.728  0.00  0.00    +0.000 A 
ATOM      6  N   UNL     1       2.191   6.538  18.876  0.00  0.00    +0.000 NA
ENDROOT
BRANCH   3   7
ATOM      7  N   UNL     1       5.387   5.910  16.368  0.00  0.00    +0.000 N 
ATOM      8  C   UNL     1       6.766   6.378  16.577  0.00  0.00    +0.000 C 
ATOM      9  C   UNL     1       7.513   5.571  15.484  0.00  0.00    +0.000 C 
ATOM     10  C   UNL     1       6.468   5.489  14.381  0.00  0.00    +0.000 C 
ATOM     11  C   UNL     1       5.435   4.872  15.327  0.00  0.00    +0.000 C 
ATOM     12  C   UNL     1       6.256   3.678  15.843  0.00  0.00    +0.000 C 
ATOM     13  O   UNL     1       7.623   4.192  15.927  0.00  0.00    +0.000 OA
ENDBRANCH   3   7
BRANCH   5  14
ATOM     14  C   UNL     1       2.171   4.182  19.491  0.00  0.00    +0.000 C 
ATOM     15  C   UNL     1       3.169   3.436  20.408  0.00  0.00    +0.000 C 
ATOM     16  C   UNL     1       2.256   2.661  21.375  0.00  0.00    +0.000 C 
ATOM     17  C   UNL     1       0.846   3.061  20.916  0.00  0.00    +0.000 C 
ATOM     18  C   UNL     1       0.551   2.384  19.569  0.00  0.00    +0.000 C 
ATOM     19  C   UNL     1       1.459   3.145  18.589  0.00  0.00    +0.000 C 
ATOM     20  C   UNL     1       1.051   4.516  20.497  0.00  0.00    +0.000 C 
ENDBRANCH   5  14
BRANCH   1  24
ATOM     21  C   UNL     1       0.736  11.323  18.339  0.00  0.00    +0.000 A 
ATOM     22  N   UNL     1       2.053  11.279  18.061  0.00  0.00    +0.000 NA
ATOM     23  C   UNL     1       2.653  10.059  18.005  0.00  0.00    +0.000 A 
ATOM     24  C   UNL     1       2.013   8.847  18.237  0.00  0.00    +0.000 A 
ATOM     25  C   UNL     1       0.649   8.944  18.546  0.00  0.00    +0.000 A 
ATOM     26  C   UNL     1      -0.020  10.172  18.561  0.00  0.00    +0.000 A 
BRANCH  21  27
ATOM     27  N   UNL     1       0.204  12.613  18.387  0.00  0.00    +0.000 N 
ATOM     28  H   UNL     1      -0.636  12.527  18.959  0.00  0.00    +0.000 HD
ATOM     29  H   UNL     1       0.860  13.230  18.862  0.00  0.00    +0.000 HD
ENDBRANCH  21  27
BRANCH  26  30
ATOM     30  O   UNL     1      -1.350  10.052  18.837  0.00  0.00    +0.000 OA
BRANCH  30  31
ATOM     31  C   UNL     1      -2.265  10.144  17.760  0.00  0.00    +0.000 C 
ATOM     32  F   UNL     1      -1.655   9.821  16.589  0.00  0.00    +0.000 F 
ATOM     33  F   UNL     1      -3.202   9.180  17.965  0.00  0.00    +0.000 F 
ENDBRANCH  30  31
ENDBRANCH  26  30
ENDBRANCH   1  24
TORSDOF 6
ENDMDL
MODEL 4
REMARK VINA RESULT:      -7.8      1.898      2.343
REMARK  Name = 
REMARK  6 active torsions:
REMARK  status: ('A' for Active; 'I' for Inactive)
REMARK    1  A    between atoms: N_1  and  C_2
REMARK    2  A    between atoms: C_5  and  C_6
REMARK    3  A    between atoms: C_8  and  N_9
REMARK    4  A    between atoms: C_17  and  C_18
REMARK    5  A    between atoms: C_27  and  O_28
REMARK    6  A    between atoms: O_28  and  C_29
REMARK                            x       y       z     vdW  Elec       q    Type
REMARK                         _______ _______ _______ _____ _____    ______ ____
ROOT
ATOM      1  C   UNL     1       2.650   7.582  18.122  0.00  0.00    +0.000 A 
ATOM      2  C   UNL     1       3.810   7.416  17.394  0.00  0.00    +0.000 A 
ATOM      3  C   UNL     1       4.330   6.145  17.242  0.00  0.00    +0.000 A 
ATOM      4  N   UNL     1       3.737   5.098  17.835  0.00  0.00    +0.000 NA
ATOM      5  C   UNL     1       2.640   5.336  18.594  0.00  0.00    +0.000 A 
ATOM      6  N   UNL     1       2.073   6.547  18.756  0.00  0.00    +0.000 NA
ENDROOT
BRANCH   3   7
ATOM      7  N   UNL     1       5.406   5.964  16.420  0.00  0.00    +0.000 N 
ATOM      8  C   UNL     1       6.770   6.427  16.717  0.00  0.00    +0.000 C 
ATOM      9  C   UNL     1       7.579   5.643  15.652  0.00  0.00    +0.000 C 
ATOM     10  C   UNL     1       6.598   5.583  14.490  0.00  0.00    +0.000 C 
ATOM     11  C   UNL     1       5.514   4.948  15.364  0.00  0.00    +0.000 C 
ATOM     12  C   UNL     1       6.305   3.743  15.901  0.00  0.00    +0.000 C 
ATOM     13  O   UNL     1       7.665   4.254  16.072  0.00  0.00    +0.000 OA
ENDBRANCH   3   7
BRANCH   5  14
ATOM     14  C   UNL     1       1.980   4.169  19.271  0.00  0.00    +0.000 C 
ATOM     15  C   UNL     1       0.904   3.458  18.416  0.00  0.00    +0.000 C 
ATOM     16  C   UNL     1       0.736   2.096  19.111  0.00  0.00    +0.000 C 
ATOM     17  C   UNL     1       1.741   2.171  20.270  0.00  0.00    +0.000 C 
ATOM     18  C   UNL     1       1.207   3.149  21.328  0.00  0.00    +0.000 C 
ATOM     19  C   UNL     1       1.365   4.519  20.647  0.00  0.00    +0.000 C 
ATOM     20  C   UNL     1       2.882   2.975  19.647  0.00  0.00    +0.000 C 
ENDBRANCH   5  14
BRANCH   1  24
ATOM     21  C   UNL     1       0.725  11.374  18.329  0.00  0.00    +0.000 A 
ATOM     22  N   UNL     1       2.048  11.317  18.082  0.00  0.00    +0.000 NA
ATOM     23  C   UNL     1       2.632  10.090  18.014  0.00  0.00    +0.000 A 
ATOM     24  C   UNL     1       1.970   8.883  18.204  0.00  0.00    +0.000 A 
ATOM     25  C   UNL     1       0.600   8.993  18.482  0.00  0.00    +0.000 A 
ATOM     26  C   UNL     1      -0.051  10.230  18.507  0.00  0.00    +0.000 A 
BRANCH  21  27
ATOM     27  N   UNL     1       0.211  12.670  18.392  0.00  0.00    +0.000 N 
ATOM     28  H   UNL     1       0.272  13.021  17.435  0.00  0.00    +0.000 HD
ATOM     29  H   UNL     1      -0.769  12.632  18.663  0.00  0.00    +0.000 HD
ENDBRANCH  21  27
BRANCH  26  30
ATOM     30  O   UNL     1      -1.390  10.123  18.748  0.00  0.00    +0.000 OA
BRANCH  30  31
ATOM     31  C   UNL     1      -2.277  10.246  17.651  0.00  0.00    +0.000 C 
ATOM     32  F   UNL     1      -1.739   9.678  16.539  0.00  0.00    +0.000 F 
ATOM     33  F   UNL     1      -3.372   9.498  17.953  0.00  0.00    +0.000 F 
ENDBRANCH  30  31
ENDBRANCH  26  30
ENDBRANCH   1  24
TORSDOF 6
ENDMDL
MODEL 5
REMARK VINA RESULT:      -7.8      0.699      1.066
REMARK  Name = 
REMARK  6 active torsions:
REMARK  status: ('A' for Active; 'I' for Inactive)
REMARK    1  A    between atoms: N_1  and  C_2
REMARK    2  A    between atoms: C_5  and  C_6
REMARK    3  A    between atoms: C_8  and  N_9
REMARK    4  A    between atoms: C_17  and  C_18
REMARK    5  A    between atoms: C_27  and  O_28
REMARK    6  A    between atoms: O_28  and  C_29
REMARK                            x       y       z     vdW  Elec       q    Type
REMARK                         _______ _______ _______ _____ _____    ______ ____
ROOT
ATOM      1  C   UNL     1       2.885   7.222  18.499  0.00  0.00    +0.000 A 
ATOM      2  C   UNL     1       3.992   7.051  17.694  0.00  0.00    +0.000 A 
ATOM      3  C   UNL     1       4.489   5.776  17.500  0.00  0.00    +0.000 A 
ATOM      4  N   UNL     1       3.929   4.731  18.127  0.00  0.00    +0.000 NA
ATOM      5  C   UNL     1       2.889   4.975  18.960  0.00  0.00    +0.000 A 
ATOM      6  N   UNL     1       2.344   6.189  19.167  0.00  0.00    +0.000 NA
ENDROOT
BRANCH   3   7
ATOM      7  N   UNL     1       5.504   5.591  16.606  0.00  0.00    +0.000 N 
ATOM      8  C   UNL     1       6.723   4.812  16.876  0.00  0.00    +0.000 C 
ATOM      9  C   UNL     1       7.289   4.656  15.442  0.00  0.00    +0.000 C 
ATOM     10  C   UNL     1       6.865   5.964  14.789  0.00  0.00    +0.000 C 
ATOM     11  C   UNL     1       5.395   5.732  15.147  0.00  0.00    +0.000 C 
ATOM     12  C   UNL     1       5.206   4.341  14.518  0.00  0.00    +0.000 C 
ATOM     13  O   UNL     1       6.487   3.670  14.737  0.00  0.00    +0.000 OA
ENDBRANCH   3   7
BRANCH   5  14
ATOM     14  C   UNL     1       2.266   3.809  19.676  0.00  0.00    +0.000 C 
ATOM     15  C   UNL     1       3.192   3.126  20.711  0.00  0.00    +0.000 C 
ATOM     16  C   UNL     1       2.217   2.322  21.587  0.00  0.00    +0.000 C 
ATOM     17  C   UNL     1       0.848   2.645  20.970  0.00  0.00    +0.000 C 
ATOM     18  C   UNL     1       0.735   1.934  19.613  0.00  0.00    +0.000 C 
ATOM     19  C   UNL     1       1.707   2.725  18.723  0.00  0.00    +0.000 C 
ATOM     20  C   UNL     1       1.028   4.102  20.547  0.00  0.00    +0.000 C 
ENDBRANCH   5  14
BRANCH   1  24
ATOM     21  C   UNL     1       0.980  11.016  18.831  0.00  0.00    +0.000 A 
ATOM     22  N   UNL     1       1.841  10.795  17.820  0.00  0.00    +0.000 NA
ATOM     23  C   UNL     1       2.428   9.570  17.736  0.00  0.00    +0.000 A 
ATOM     24  C   UNL     1       2.224   8.529  18.634  0.00  0.00    +0.000 A 
ATOM     25  C   UNL     1       1.339   8.813  19.684  0.00  0.00    +0.000 A 
ATOM     26  C   UNL     1       0.673  10.038  19.777  0.00  0.00    +0.000 A 
BRANCH  21  27
ATOM     27  N   UNL     1       0.434  12.301  18.847  0.00  0.00    +0.000 N 
ATOM     28  H   UNL     1       0.362  12.541  19.837  0.00  0.00    +0.000 HD
ATOM     29  H   UNL     1       1.081  12.948  18.401  0.00  0.00    +0.000 HD
ENDBRANCH  21  27
BRANCH  26  30
ATOM     30  O   UNL     1      -0.179  10.104  20.840  0.00  0.00    +0.000 OA
BRANCH  30  31
ATOM     31  C   UNL     1       0.122   9.327  21.985  0.00  0.00    +0.000 C 
ATOM     32  F   UNL     1      -0.006  10.075  23.114  0.00  0.00    +0.000 F 
ATOM     33  F   UNL     1      -0.839   8.369  22.068  0.00  0.00    +0.000 F 
ENDBRANCH  30  31
ENDBRANCH  26  30
ENDBRANCH   1  24
TORSDOF 6
ENDMDL
MODEL 6
REMARK VINA RESULT:      -7.6      4.050      7.879
REMARK  Name = 
REMARK  6 active torsions:
REMARK  status: ('A' for Active; 'I' for Inactive)
REMARK    1  A    between atoms: N_1  and  C_2
REMARK    2  A    between atoms: C_5  and  C_6
REMARK    3  A    between atoms: C_8  and  N_9
REMARK    4  A    between atoms: C_17  and  C_18
REMARK    5  A    between atoms: C_27  and  O_28
REMARK    6  A    between atoms: O_28  and  C_29
REMARK                            x       y       z     vdW  Elec       q    Type
REMARK                         _______ _______ _______ _____ _____    ______ ____
ROOT
ATOM      1  C   UNL     1       4.237   6.094  17.586  0.00  0.00    +0.000 A 
ATOM      2  C   UNL     1       3.887   5.133  18.511  0.00  0.00    +0.000 A 
ATOM      3  C   UNL     1       2.811   5.367  19.346  0.00  0.00    +0.000 A 
ATOM      4  N   UNL     1       2.150   6.532  19.285  0.00  0.00    +0.000 NA
ATOM      5  C   UNL     1       2.588   7.463  18.403  0.00  0.00    +0.000 A 
ATOM      6  N   UNL     1       3.611   7.283  17.547  0.00  0.00    +0.000 NA
ENDROOT
BRANCH   3   7
ATOM      7  N   UNL     1       2.387   4.367  20.175  0.00  0.00    +0.000 N 
ATOM      8  C   UNL     1       1.001   4.202  20.642  0.00  0.00    +0.000 C 
ATOM      9  C   UNL     1       1.060   2.761  21.211  0.00  0.00    +0.000 C 
ATOM     10  C   UNL     1       2.484   2.687  21.744  0.00  0.00    +0.000 C 
ATOM     11  C   UNL     1       3.072   3.084  20.387  0.00  0.00    +0.000 C 
ATOM     12  C   UNL     1       2.412   2.008  19.508  0.00  0.00    +0.000 C 
ATOM     13  O   UNL     1       1.084   1.829  20.096  0.00  0.00    +0.000 OA
ENDBRANCH   3   7
BRANCH   5  14
ATOM     14  C   UNL     1       1.860   8.777  18.340  0.00  0.00    +0.000 C 
ATOM     15  C   UNL     1       0.575   8.754  17.479  0.00  0.00    +0.000 C 
ATOM     16  C   UNL     1      -0.188  10.008  17.941  0.00  0.00    +0.000 C 
ATOM     17  C   UNL     1       0.732  10.596  19.021  0.00  0.00    +0.000 C 
ATOM     18  C   UNL     1       1.974  11.196  18.343  0.00  0.00    +0.000 C 
ATOM     19  C   UNL     1       2.748   9.954  17.871  0.00  0.00    +0.000 C 
ATOM     20  C   UNL     1       1.307   9.335  19.667  0.00  0.00    +0.000 C 
ENDBRANCH   5  14
BRANCH   1  24
ATOM     21  C   UNL     1       7.294   5.416  14.700  0.00  0.00    +0.000 A 
ATOM     22  N   UNL     1       7.458   6.386  15.621  0.00  0.00    +0.000 NA
ATOM     23  C   UNL     1       6.466   6.572  16.534  0.00  0.00    +0.000 A 
ATOM     24  C   UNL     1       5.279   5.850  16.577  0.00  0.00    +0.000 A 
ATOM     25  C   UNL     1       5.143   4.869  15.585  0.00  0.00    +0.000 A 
ATOM     26  C   UNL     1       6.159   4.607  14.661  0.00  0.00    +0.000 A 
BRANCH  21  27
ATOM     27  N   UNL     1       8.353   5.301  13.797  0.00  0.00    +0.000 N 
ATOM     28  H   UNL     1       9.192   5.317  14.378  0.00  0.00    +0.000 HD
ATOM     29  H   UNL     1       8.299   4.399  13.328  0.00  0.00    +0.000 HD
ENDBRANCH  21  27
BRANCH  26  30
ATOM     30  O   UNL     1       5.856   3.586  13.809  0.00  0.00    +0.000 OA
BRANCH  30  31
ATOM     31  C   UNL     1       5.784   3.871  12.425  0.00  0.00    +0.000 C 
ATOM     32  F   UNL     1       6.838   3.316  11.770  0.00  0.00    +0.000 F 
ATOM     33  F   UNL     1       4.680   3.231  11.953  0.00  0.00    +0.000 F 
ENDBRANCH  30  31
ENDBRANCH  26  30
ENDBRANCH   1  24
TORSDOF 6
ENDMDL
MODEL 7
REMARK VINA RESULT:      -7.5      1.591      2.021
REMARK  Name = 
REMARK  6 active torsions:
REMARK  status: ('A' for Active; 'I' for Inactive)
REMARK    1  A    between atoms: N_1  and  C_2
REMARK    2  A    between atoms: C_5  and  C_6
REMARK    3  A    between atoms: C_8  and  N_9
REMARK    4  A    between atoms: C_17  and  C_18
REMARK    5  A    between atoms: C_27  and  O_28
REMARK    6  A    between atoms: O_28  and  C_29
REMARK                            x       y       z     vdW  Elec       q    Type
REMARK                         _______ _______ _______ _____ _____    ______ ____
ROOT
ATOM      1  C   UNL     1       2.789   7.304  18.136  0.00  0.00    +0.000 A 
ATOM      2  C   UNL     1       3.736   6.972  17.189  0.00  0.00    +0.000 A 
ATOM      3  C   UNL     1       4.141   5.655  17.079  0.00  0.00    +0.000 A 
ATOM      4  N   UNL     1       3.652   4.727  17.915  0.00  0.00    +0.000 NA
ATOM      5  C   UNL     1       2.779   5.130  18.869  0.00  0.00    +0.000 A 
ATOM      6  N   UNL     1       2.327   6.391  19.007  0.00  0.00    +0.000 NA
ENDROOT
BRANCH   3   7
ATOM      7  N   UNL     1       4.982   5.304  16.062  0.00  0.00    +0.000 N 
ATOM      8  C   UNL     1       5.484   6.232  15.036  0.00  0.00    +0.000 C 
ATOM      9  C   UNL     1       6.627   5.388  14.418  0.00  0.00    +0.000 C 
ATOM     10  C   UNL     1       6.077   3.973  14.538  0.00  0.00    +0.000 C 
ATOM     11  C   UNL     1       5.860   4.125  16.046  0.00  0.00    +0.000 C 
ATOM     12  C   UNL     1       7.280   4.548  16.458  0.00  0.00    +0.000 C 
ATOM     13  O   UNL     1       7.744   5.379  15.348  0.00  0.00    +0.000 OA
ENDBRANCH   3   7
BRANCH   5  14
ATOM     14  C   UNL     1       2.239   4.096  19.817  0.00  0.00    +0.000 C 
ATOM     15  C   UNL     1       0.887   3.478  19.386  0.00  0.00    +0.000 C 
ATOM     16  C   UNL     1       0.799   2.191  20.224  0.00  0.00    +0.000 C 
ATOM     17  C   UNL     1       2.110   2.207  21.024  0.00  0.00    +0.000 C 
ATOM     18  C   UNL     1       2.025   3.304  22.096  0.00  0.00    +0.000 C 
ATOM     19  C   UNL     1       2.108   4.601  21.274  0.00  0.00    +0.000 C 
ATOM     20  C   UNL     1       3.084   2.823  20.021  0.00  0.00    +0.000 C 
ENDBRANCH   5  14
BRANCH   1  24
ATOM     21  C   UNL     1       1.164  11.235  18.315  0.00  0.00    +0.000 A 
ATOM     22  N   UNL     1       2.424  11.061  17.873  0.00  0.00    +0.000 NA
ATOM     23  C   UNL     1       2.912   9.791  17.820  0.00  0.00    +0.000 A 
ATOM     24  C   UNL     1       2.214   8.655  18.212  0.00  0.00    +0.000 A 
ATOM     25  C   UNL     1       0.916   8.888  18.688  0.00  0.00    +0.000 A 
ATOM     26  C   UNL     1       0.356  10.169  18.708  0.00  0.00    +0.000 A 
BRANCH  21  27
ATOM     27  N   UNL     1       0.749  12.568  18.346  0.00  0.00    +0.000 N 
ATOM     28  H   UNL     1      -0.024  12.584  19.013  0.00  0.00    +0.000 HD
ATOM     29  H   UNL     1       1.503  13.148  18.709  0.00  0.00    +0.000 HD
ENDBRANCH  21  27
BRANCH  26  30
ATOM     30  O   UNL     1      -0.930  10.182  19.161  0.00  0.00    +0.000 OA
BRANCH  30  31
ATOM     31  C   UNL     1      -1.964  10.431  18.226  0.00  0.00    +0.000 C 
ATOM     32  F   UNL     1      -2.654   9.289  17.965  0.00  0.00    +0.000 F 
ATOM     33  F   UNL     1      -2.849  11.263  18.838  0.00  0.00    +0.000 F 
ENDBRANCH  30  31
ENDBRANCH  26  30
ENDBRANCH   1  24
TORSDOF 6
ENDMDL
MODEL 8
REMARK VINA RESULT:      -7.5      3.649      7.238
REMARK  Name = 
REMARK  6 active torsions:
REMARK  status: ('A' for Active; 'I' for Inactive)
REMARK    1  A    between atoms: N_1  and  C_2
REMARK    2  A    between atoms: C_5  and  C_6
REMARK    3  A    between atoms: C_8  and  N_9
REMARK    4  A    between atoms: C_17  and  C_18
REMARK    5  A    between atoms: C_27  and  O_28
REMARK    6  A    between atoms: O_28  and  C_29
REMARK                            x       y       z     vdW  Elec       q    Type
REMARK                         _______ _______ _______ _____ _____    ______ ____
ROOT
ATOM      1  C   UNL     1       4.053   6.029  17.276  0.00  0.00    +0.000 A 
ATOM      2  C   UNL     1       3.524   7.288  17.474  0.00  0.00    +0.000 A 
ATOM      3  C   UNL     1       2.579   7.471  18.466  0.00  0.00    +0.000 A 
ATOM      4  N   UNL     1       2.151   6.426  19.190  0.00  0.00    +0.000 NA
ATOM      5  C   UNL     1       2.658   5.203  18.900  0.00  0.00    +0.000 A 
ATOM      6  N   UNL     1       3.599   4.968  17.966  0.00  0.00    +0.000 NA
ENDROOT
BRANCH   3   7
ATOM      7  N   UNL     1       2.149   8.736  18.745  0.00  0.00    +0.000 N 
ATOM      8  C   UNL     1       2.208   9.864  17.803  0.00  0.00    +0.000 C 
ATOM      9  C   UNL     1       1.282  10.883  18.515  0.00  0.00    +0.000 C 
ATOM     10  C   UNL     1       1.545  10.579  19.983  0.00  0.00    +0.000 C 
ATOM     11  C   UNL     1       1.191   9.101  19.798  0.00  0.00    +0.000 C 
ATOM     12  C   UNL     1      -0.207   9.259  19.176  0.00  0.00    +0.000 C 
ATOM     13  O   UNL     1      -0.095  10.453  18.338  0.00  0.00    +0.000 OA
ENDBRANCH   3   7
BRANCH   5  14
ATOM     14  C   UNL     1       2.171   4.027  19.700  0.00  0.00    +0.000 C 
ATOM     15  C   UNL     1       3.260   3.349  20.566  0.00  0.00    +0.000 C 
ATOM     16  C   UNL     1       2.448   2.530  21.584  0.00  0.00    +0.000 C 
ATOM     17  C   UNL     1       0.994   2.841  21.200  0.00  0.00    +0.000 C 
ATOM     18  C   UNL     1       0.668   2.136  19.874  0.00  0.00    +0.000 C 
ATOM     19  C   UNL     1       1.475   2.942  18.843  0.00  0.00    +0.000 C 
ATOM     20  C   UNL     1       1.089   4.303  20.763  0.00  0.00    +0.000 C 
ENDBRANCH   5  14
BRANCH   1  24
ATOM     21  C   UNL     1       7.293   5.382  14.592  0.00  0.00    +0.000 A 
ATOM     22  N   UNL     1       7.365   6.388  15.484  0.00  0.00    +0.000 NA
ATOM     23  C   UNL     1       6.317   6.564  16.333  0.00  0.00    +0.000 A 
ATOM     24  C   UNL     1       5.159   5.795  16.337  0.00  0.00    +0.000 A 
ATOM     25  C   UNL     1       5.119   4.776  15.375  0.00  0.00    +0.000 A 
ATOM     26  C   UNL     1       6.195   4.525  14.519  0.00  0.00    +0.000 A 
BRANCH  21  27
ATOM     27  N   UNL     1       8.405   5.280  13.754  0.00  0.00    +0.000 N 
ATOM     28  H   UNL     1       8.300   4.377  13.290  0.00  0.00    +0.000 HD
ATOM     29  H   UNL     1       8.365   6.015  13.050  0.00  0.00    +0.000 HD
ENDBRANCH  21  27
BRANCH  26  30
ATOM     30  O   UNL     1       5.982   3.464  13.689  0.00  0.00    +0.000 OA
BRANCH  30  31
ATOM     31  C   UNL     1       5.937   3.705  12.295  0.00  0.00    +0.000 C 
ATOM     32  F   UNL     1       6.956   3.059  11.668  0.00  0.00    +0.000 F 
ATOM     33  F   UNL     1       4.796   3.124  11.837  0.00  0.00    +0.000 F 
ENDBRANCH  30  31
ENDBRANCH  26  30
ENDBRANCH   1  24
TORSDOF 6
ENDMDL
MODEL 9
REMARK VINA RESULT:      -7.5      3.691      7.293
REMARK  Name = 
REMARK  6 active torsions:
REMARK  status: ('A' for Active; 'I' for Inactive)
REMARK    1  A    between atoms: N_1  and  C_2
REMARK    2  A    between atoms: C_5  and  C_6
REMARK    3  A    between atoms: C_8  and  N_9
REMARK    4  A    between atoms: C_17  and  C_18
REMARK    5  A    between atoms: C_27  and  O_28
REMARK    6  A    between atoms: O_28  and  C_29
REMARK                            x       y       z     vdW  Elec       q    Type
REMARK                         _______ _______ _______ _____ _____    ______ ____
ROOT
ATOM      1  C   UNL     1       4.002   6.036  17.300  0.00  0.00    +0.000 A 
ATOM      2  C   UNL     1       3.496   7.300  17.522  0.00  0.00    +0.000 A 
ATOM      3  C   UNL     1       2.518   7.472  18.483  0.00  0.00    +0.000 A 
ATOM      4  N   UNL     1       2.037   6.414  19.152  0.00  0.00    +0.000 NA
ATOM      5  C   UNL     1       2.526   5.189  18.838  0.00  0.00    +0.000 A 
ATOM      6  N   UNL     1       3.497   4.964  17.934  0.00  0.00    +0.000 NA
ENDROOT
BRANCH   3   7
ATOM      7  N   UNL     1       2.107   8.737  18.790  0.00  0.00    +0.000 N 
ATOM      8  C   UNL     1       2.201   9.889  17.880  0.00  0.00    +0.000 C 
ATOM      9  C   UNL     1       1.283  10.906  18.606  0.00  0.00    +0.000 C 
ATOM     10  C   UNL     1       1.517  10.556  20.069  0.00  0.00    +0.000 C 
ATOM     11  C   UNL     1       1.139   9.091  19.838  0.00  0.00    +0.000 C 
ATOM     12  C   UNL     1      -0.246   9.292  19.199  0.00  0.00    +0.000 C 
ATOM     13  O   UNL     1      -0.099  10.506  18.396  0.00  0.00    +0.000 OA
ENDBRANCH   3   7
BRANCH   5  14
ATOM     14  C   UNL     1       1.981   3.999  19.576  0.00  0.00    +0.000 C 
ATOM     15  C   UNL     1       0.958   3.162  18.772  0.00  0.00    +0.000 C 
ATOM     16  C   UNL     1       0.921   1.821  19.526  0.00  0.00    +0.000 C 
ATOM     17  C   UNL     1       1.933   2.033  20.661  0.00  0.00    +0.000 C 
ATOM     18  C   UNL     1       1.332   3.006  21.688  0.00  0.00    +0.000 C 
ATOM     19  C   UNL     1       1.358   4.354  20.948  0.00  0.00    +0.000 C 
ATOM     20  C   UNL     1       2.989   2.906  19.984  0.00  0.00    +0.000 C 
ENDBRANCH   5  14
BRANCH   1  24
ATOM     21  C   UNL     1       7.330   5.404  14.720  0.00  0.00    +0.000 A 
ATOM     22  N   UNL     1       7.381   6.392  15.633  0.00  0.00    +0.000 NA
ATOM     23  C   UNL     1       6.304   6.564  16.449  0.00  0.00    +0.000 A 
ATOM     24  C   UNL     1       5.139   5.808  16.396  0.00  0.00    +0.000 A 
ATOM     25  C   UNL     1       5.123   4.807  15.414  0.00  0.00    +0.000 A 
ATOM     26  C   UNL     1       6.226   4.561  14.592  0.00  0.00    +0.000 A 
BRANCH  21  27
ATOM     27  N   UNL     1       8.470   5.306  13.920  0.00  0.00    +0.000 N 
ATOM     28  H   UNL     1       9.164   5.894  14.384  0.00  0.00    +0.000 HD
ATOM     29  H   UNL     1       8.803   4.344  13.924  0.00  0.00    +0.000 HD
ENDBRANCH  21  27
BRANCH  26  30
ATOM     30  O   UNL     1       6.032   3.518  13.735  0.00  0.00    +0.000 OA
BRANCH  30  31
ATOM     31  C   UNL     1       5.848   3.808  12.362  0.00  0.00    +0.000 C 
ATOM     32  F   UNL     1       7.013   3.640  11.680  0.00  0.00    +0.000 F 
ATOM     33  F   UNL     1       4.999   2.863  11.876  0.00  0.00    +0.000 F 
ENDBRANCH  30  31
ENDBRANCH  26  30
ENDBRANCH   1  24
TORSDOF 6
ENDMDL
