MODEL 1
REMARK VINA RESULT:      -7.7      0.000      0.000
REMARK  Name = 
REMARK  5 active torsions:
REMARK  status: ('A' for Active; 'I' for Inactive)
REMARK    1  A    between atoms: C_2  and  C_3
REMARK    2  A    between atoms: C_2  and  C_4
REMARK    3  A    between atoms: N_6  and  C_7
REMARK    4  A    between atoms: C_12  and  O_13
REMARK    5  A    between atoms: O_13  and  C_14
REMARK                            x       y       z     vdW  Elec       q    Type
REMARK                         _______ _______ _______ _____ _____    ______ ____
ROOT
ATOM      1  C   UNL     1       6.438   4.620  16.828  0.00  0.00    +0.000 A 
ATOM      2  C   UNL     1       7.736   4.617  17.370  0.00  0.00    +0.000 A 
ATOM      3  C   UNL     1       7.978   5.061  18.664  0.00  0.00    +0.000 A 
ATOM      4  C   UNL     1       6.910   5.493  19.415  0.00  0.00    +0.000 A 
ATOM      5  N   UNL     1       5.656   5.557  18.935  0.00  0.00    +0.000 NA
ATOM      6  C   UNL     1       5.443   5.180  17.645  0.00  0.00    +0.000 A 
ENDROOT
BRANCH   1   9
ATOM      7  C   UNL     1       6.739   4.587  14.355  0.00  0.00    +0.000 C 
ATOM      8  O   UNL     1       7.578   5.483  14.314  0.00  0.00    +0.000 OA
ATOM      9  N   UNL     1       6.172   4.091  15.524  0.00  0.00    +0.000 N 
ATOM     10  H   UNL     1       5.649   3.228  15.497  0.00  0.00    +0.000 HD
BRANCH   7  12
ATOM     11  C   UNL     1       5.047   3.479  13.016  0.00  0.00    +0.000 C 
ATOM     12  C   UNL     1       6.307   3.954  13.058  0.00  0.00    +0.000 C 
ATOM     13  C   UNL     1       7.226   3.824  11.893  0.00  0.00    +0.000 C 
ENDBRANCH   7  12
ENDBRANCH   1   9
BRANCH   6  14
ATOM     14  O   UNL     1       4.155   5.374  17.130  0.00  0.00    +0.000 OA
BRANCH  14  15
ATOM     15  C   UNL     1       3.149   4.573  17.659  0.00  0.00    +0.000 A 
ATOM     16  C   UNL     1       2.161   5.065  18.525  0.00  0.00    +0.000 A 
ATOM     17  C   UNL     1       1.203   4.206  19.072  0.00  0.00    +0.000 A 
ATOM     18  C   UNL     1       1.199   2.868  18.707  0.00  0.00    +0.000 A 
ATOM     19  F   UNL     1       0.281   2.042  19.229  0.00  0.00    +0.000 F 
ATOM     20  C   UNL     1       2.135   2.372  17.803  0.00  0.00    +0.000 A 
ATOM     21  C   UNL     1       3.112   3.226  17.274  0.00  0.00    +0.000 A 
ENDBRANCH  14  15
ENDBRANCH   6  14
TORSDOF 4
ENDMDL
MODEL 2
REMARK VINA RESULT:      -7.7      0.146      1.337
REMARK  Name = 
REMARK  5 active torsions:
REMARK  status: ('A' for Active; 'I' for Inactive)
REMARK    1  A    between atoms: C_2  and  C_3
REMARK    2  A    between atoms: C_2  and  C_4
REMARK    3  A    between atoms: N_6  and  C_7
REMARK    4  A    between atoms: C_12  and  O_13
REMARK    5  A    between atoms: O_13  and  C_14
REMARK                            x       y       z     vdW  Elec       q    Type
REMARK                         _______ _______ _______ _____ _____    ______ ____
ROOT
ATOM      1  C   UNL     1       6.455   4.618  16.790  0.00  0.00    +0.000 A 
ATOM      2  C   UNL     1       7.757   4.643  17.321  0.00  0.00    +0.000 A 
ATOM      3  C   UNL     1       8.000   5.081  18.616  0.00  0.00    +0.000 A 
ATOM      4  C   UNL     1       6.928   5.480  19.381  0.00  0.00    +0.000 A 
ATOM      5  N   UNL     1       5.669   5.517  18.913  0.00  0.00    +0.000 NA
ATOM      6  C   UNL     1       5.453   5.145  17.622  0.00  0.00    +0.000 A 
ENDROOT
BRANCH   1   9
ATOM      7  C   UNL     1       6.760   4.592  14.318  0.00  0.00    +0.000 C 
ATOM      8  O   UNL     1       7.603   5.486  14.281  0.00  0.00    +0.000 OA
ATOM      9  N   UNL     1       6.190   4.095  15.484  0.00  0.00    +0.000 N 
ATOM     10  H   UNL     1       5.665   3.233  15.453  0.00  0.00    +0.000 HD
BRANCH   7  12
ATOM     11  C   UNL     1       7.245   3.954  12.029  0.00  0.00    +0.000 C 
ATOM     12  C   UNL     1       6.330   3.965  13.018  0.00  0.00    +0.000 C 
ATOM     13  C   UNL     1       4.960   3.417  12.815  0.00  0.00    +0.000 C 
ENDBRANCH   7  12
ENDBRANCH   1   9
BRANCH   6  14
ATOM     14  O   UNL     1       4.156   5.312  17.120  0.00  0.00    +0.000 OA
BRANCH  14  15
ATOM     15  C   UNL     1       3.190   4.432  17.596  0.00  0.00    +0.000 A 
ATOM     16  C   UNL     1       3.236   3.050  17.359  0.00  0.00    +0.000 A 
ATOM     17  C   UNL     1       2.212   2.215  17.815  0.00  0.00    +0.000 A 
ATOM     18  C   UNL     1       1.172   2.755  18.556  0.00  0.00    +0.000 A 
ATOM     19  F   UNL     1       0.188   1.957  18.995  0.00  0.00    +0.000 F 
ATOM     20  C   UNL     1       1.138   4.115  18.853  0.00  0.00    +0.000 A 
ATOM     21  C   UNL     1       2.151   4.957  18.375  0.00  0.00    +0.000 A 
ENDBRANCH  14  15
ENDBRANCH   6  14
TORSDOF 4
ENDMDL
MODEL 3
REMARK VINA RESULT:      -7.6      3.380      5.247
REMARK  Name = 
REMARK  5 active torsions:
REMARK  status: ('A' for Active; 'I' for Inactive)
REMARK    1  A    between atoms: C_2  and  C_3
REMARK    2  A    between atoms: C_2  and  C_4
REMARK    3  A    between atoms: N_6  and  C_7
REMARK    4  A    between atoms: C_12  and  O_13
REMARK    5  A    between atoms: O_13  and  C_14
REMARK                            x       y       z     vdW  Elec       q    Type
REMARK                         _______ _______ _______ _____ _____    ______ ____
ROOT
ATOM      1  C   UNL     1       4.016   4.301  18.722  0.00  0.00    +0.000 A 
ATOM      2  C   UNL     1       3.929   3.095  18.004  0.00  0.00    +0.000 A 
ATOM      3  C   UNL     1       2.707   2.469  17.792  0.00  0.00    +0.000 A 
ATOM      4  C   UNL     1       1.573   3.068  18.290  0.00  0.00    +0.000 A 
ATOM      5  N   UNL     1       1.601   4.197  19.017  0.00  0.00    +0.000 NA
ATOM      6  C   UNL     1       2.811   4.766  19.272  0.00  0.00    +0.000 A 
ENDROOT
BRANCH   1   9
ATOM      7  C   UNL     1       5.837   5.785  17.891  0.00  0.00    +0.000 C 
ATOM      8  O   UNL     1       5.314   6.039  16.809  0.00  0.00    +0.000 OA
ATOM      9  N   UNL     1       5.262   4.990  18.876  0.00  0.00    +0.000 N 
ATOM     10  H   UNL     1       5.652   4.992  19.808  0.00  0.00    +0.000 HD
BRANCH   7  12
ATOM     11  C   UNL     1       7.933   5.754  19.110  0.00  0.00    +0.000 C 
ATOM     12  C   UNL     1       7.182   6.393  18.193  0.00  0.00    +0.000 C 
ATOM     13  C   UNL     1       7.648   7.650  17.545  0.00  0.00    +0.000 C 
ENDBRANCH   7  12
ENDBRANCH   1   9
BRANCH   6  14
ATOM     14  O   UNL     1       2.826   5.869  20.136  0.00  0.00    +0.000 OA
BRANCH  14  15
ATOM     15  C   UNL     1       2.310   7.058  19.631  0.00  0.00    +0.000 A 
ATOM     16  C   UNL     1       2.444   7.435  18.287  0.00  0.00    +0.000 A 
ATOM     17  C   UNL     1       1.953   8.666  17.841  0.00  0.00    +0.000 A 
ATOM     18  C   UNL     1       1.278   9.492  18.727  0.00  0.00    +0.000 A 
ATOM     19  F   UNL     1       0.806  10.673  18.302  0.00  0.00    +0.000 F 
ATOM     20  C   UNL     1       1.083   9.109  20.052  0.00  0.00    +0.000 A 
ATOM     21  C   UNL     1       1.597   7.888  20.506  0.00  0.00    +0.000 A 
ENDBRANCH  14  15
ENDBRANCH   6  14
TORSDOF 4
ENDMDL
MODEL 4
REMARK VINA RESULT:      -7.6      3.218      5.170
REMARK  Name = 
REMARK  5 active torsions:
REMARK  status: ('A' for Active; 'I' for Inactive)
REMARK    1  A    between atoms: C_2  and  C_3
REMARK    2  A    between atoms: C_2  and  C_4
REMARK    3  A    between atoms: N_6  and  C_7
REMARK    4  A    between atoms: C_12  and  O_13
REMARK    5  A    between atoms: O_13  and  C_14
REMARK                            x       y       z     vdW  Elec       q    Type
REMARK                         _______ _______ _______ _____ _____    ______ ____
ROOT
ATOM      1  C   UNL     1       3.214   4.167  18.142  0.00  0.00    +0.000 A 
ATOM      2  C   UNL     1       2.699   2.900  17.812  0.00  0.00    +0.000 A 
ATOM      3  C   UNL     1       1.572   2.393  18.444  0.00  0.00    +0.000 A 
ATOM      4  C   UNL     1       0.955   3.170  19.398  0.00  0.00    +0.000 A 
ATOM      5  N   UNL     1       1.426   4.368  19.783  0.00  0.00    +0.000 NA
ATOM      6  C   UNL     1       2.567   4.826  19.201  0.00  0.00    +0.000 A 
ENDROOT
BRANCH   1   9
ATOM      7  C   UNL     1       5.637   4.694  17.907  0.00  0.00    +0.000 C 
ATOM      8  O   UNL     1       5.995   4.125  18.935  0.00  0.00    +0.000 OA
ATOM      9  N   UNL     1       4.329   4.728  17.439  0.00  0.00    +0.000 N 
ATOM     10  H   UNL     1       4.145   5.034  16.494  0.00  0.00    +0.000 HD
BRANCH   7  12
ATOM     11  C   UNL     1       7.024   4.773  15.919  0.00  0.00    +0.000 C 
ATOM     12  C   UNL     1       6.686   5.382  17.072  0.00  0.00    +0.000 C 
ATOM     13  C   UNL     1       7.343   6.646  17.505  0.00  0.00    +0.000 C 
ENDBRANCH   7  12
ENDBRANCH   1   9
BRANCH   6  14
ATOM     14  O   UNL     1       3.107   6.015  19.706  0.00  0.00    +0.000 OA
BRANCH  14  15
ATOM     15  C   UNL     1       2.427   7.187  19.389  0.00  0.00    +0.000 A 
ATOM     16  C   UNL     1       2.389   7.716  18.090  0.00  0.00    +0.000 A 
ATOM     17  C   UNL     1       1.736   8.926  17.834  0.00  0.00    +0.000 A 
ATOM     18  C   UNL     1       1.076   9.576  18.865  0.00  0.00    +0.000 A 
ATOM     19  F   UNL     1       0.449  10.736  18.622  0.00  0.00    +0.000 F 
ATOM     20  C   UNL     1       1.052   9.037  20.149  0.00  0.00    +0.000 A 
ATOM     21  C   UNL     1       1.727   7.838  20.413  0.00  0.00    +0.000 A 
ENDBRANCH  14  15
ENDBRANCH   6  14
TORSDOF 4
ENDMDL
MODEL 5
REMARK VINA RESULT:      -7.6      1.104      1.409
REMARK  Name = 
REMARK  5 active torsions:
REMARK  status: ('A' for Active; 'I' for Inactive)
REMARK    1  A    between atoms: C_2  and  C_3
REMARK    2  A    between atoms: C_2  and  C_4
REMARK    3  A    between atoms: N_6  and  C_7
REMARK    4  A    between atoms: C_12  and  O_13
REMARK    5  A    between atoms: O_13  and  C_14
REMARK                            x       y       z     vdW  Elec       q    Type
REMARK                         _______ _______ _______ _____ _____    ______ ____
ROOT
ATOM      1  C   UNL     1       6.079   4.006  16.017  0.00  0.00    +0.000 A 
ATOM      2  C   UNL     1       7.345   4.493  16.388  0.00  0.00    +0.000 A 
ATOM      3  C   UNL     1       7.585   4.973  17.669  0.00  0.00    +0.000 A 
ATOM      4  C   UNL     1       6.554   4.947  18.579  0.00  0.00    +0.000 A 
ATOM      5  N   UNL     1       5.314   4.533  18.267  0.00  0.00    +0.000 NA
ATOM      6  C   UNL     1       5.075   4.125  16.992  0.00  0.00    +0.000 A 
ENDROOT
BRANCH   1   9
ATOM      7  C   UNL     1       6.335   3.979  13.539  0.00  0.00    +0.000 C 
ATOM      8  O   UNL     1       7.072   4.960  13.474  0.00  0.00    +0.000 OA
ATOM      9  N   UNL     1       5.847   3.438  14.723  0.00  0.00    +0.000 N 
ATOM     10  H   UNL     1       5.420   2.523  14.713  0.00  0.00    +0.000 HD
BRANCH   7  12
ATOM     11  C   UNL     1       6.953   2.713  11.566  0.00  0.00    +0.000 C 
ATOM     12  C   UNL     1       5.951   3.290  12.255  0.00  0.00    +0.000 C 
ATOM     13  C   UNL     1       4.550   3.275  11.751  0.00  0.00    +0.000 C 
ENDBRANCH   7  12
ENDBRANCH   1   9
BRANCH   6  14
ATOM     14  O   UNL     1       3.750   3.818  16.659  0.00  0.00    +0.000 OA
BRANCH  14  15
ATOM     15  C   UNL     1       2.883   3.587  17.722  0.00  0.00    +0.000 A 
ATOM     16  C   UNL     1       2.175   4.615  18.362  0.00  0.00    +0.000 A 
ATOM     17  C   UNL     1       1.355   4.337  19.461  0.00  0.00    +0.000 A 
ATOM     18  C   UNL     1       1.202   3.025  19.882  0.00  0.00    +0.000 A 
ATOM     19  F   UNL     1       0.416   2.756  20.935  0.00  0.00    +0.000 F 
ATOM     20  C   UNL     1       1.849   1.984  19.222  0.00  0.00    +0.000 A 
ATOM     21  C   UNL     1       2.691   2.263  18.138  0.00  0.00    +0.000 A 
ENDBRANCH  14  15
ENDBRANCH   6  14
TORSDOF 4
ENDMDL
MODEL 6
REMARK VINA RESULT:      -7.5      1.170      1.439
REMARK  Name = 
REMARK  5 active torsions:
REMARK  status: ('A' for Active; 'I' for Inactive)
REMARK    1  A    between atoms: C_2  and  C_3
REMARK    2  A    between atoms: C_2  and  C_4
REMARK    3  A    between atoms: N_6  and  C_7
REMARK    4  A    between atoms: C_12  and  O_13
REMARK    5  A    between atoms: O_13  and  C_14
REMARK                            x       y       z     vdW  Elec       q    Type
REMARK                         _______ _______ _______ _____ _____    ______ ____
ROOT
ATOM      1  C   UNL     1       6.945   4.854  16.912  0.00  0.00    +0.000 A 
ATOM      2  C   UNL     1       7.656   5.865  17.583  0.00  0.00    +0.000 A 
ATOM      3  C   UNL     1       7.457   6.109  18.936  0.00  0.00    +0.000 A 
ATOM      4  C   UNL     1       6.553   5.324  19.614  0.00  0.00    +0.000 A 
ATOM      5  N   UNL     1       5.816   4.374  19.015  0.00  0.00    +0.000 NA
ATOM      6  C   UNL     1       5.974   4.187  17.677  0.00  0.00    +0.000 A 
ENDROOT
BRANCH   1   9
ATOM      7  C   UNL     1       6.349   4.886  14.493  0.00  0.00    +0.000 C 
ATOM      8  O   UNL     1       5.320   5.544  14.621  0.00  0.00    +0.000 OA
ATOM      9  N   UNL     1       7.202   4.546  15.537  0.00  0.00    +0.000 N 
ATOM     10  H   UNL     1       8.122   4.186  15.331  0.00  0.00    +0.000 HD
BRANCH   7  12
ATOM     11  C   UNL     1       7.781   5.079  12.545  0.00  0.00    +0.000 C 
ATOM     12  C   UNL     1       6.740   4.437  13.109  0.00  0.00    +0.000 C 
ATOM     13  C   UNL     1       6.000   3.367  12.383  0.00  0.00    +0.000 C 
ENDBRANCH   7  12
ENDBRANCH   1   9
BRANCH   6  14
ATOM     14  O   UNL     1       5.107   3.280  17.054  0.00  0.00    +0.000 OA
BRANCH  14  15
ATOM     15  C   UNL     1       3.828   3.177  17.592  0.00  0.00    +0.000 A 
ATOM     16  C   UNL     1       2.869   4.195  17.474  0.00  0.00    +0.000 A 
ATOM     17  C   UNL     1       1.615   4.064  18.078  0.00  0.00    +0.000 A 
ATOM     18  C   UNL     1       1.302   2.893  18.752  0.00  0.00    +0.000 A 
ATOM     19  F   UNL     1       0.101   2.765  19.333  0.00  0.00    +0.000 F 
ATOM     20  C   UNL     1       2.219   1.848  18.830  0.00  0.00    +0.000 A 
ATOM     21  C   UNL     1       3.485   1.988  18.247  0.00  0.00    +0.000 A 
ENDBRANCH  14  15
ENDBRANCH   6  14
TORSDOF 4
ENDMDL
MODEL 7
REMARK VINA RESULT:      -7.5      3.353      5.171
REMARK  Name = 
REMARK  5 active torsions:
REMARK  status: ('A' for Active; 'I' for Inactive)
REMARK    1  A    between atoms: C_2  and  C_3
REMARK    2  A    between atoms: C_2  and  C_4
REMARK    3  A    between atoms: N_6  and  C_7
REMARK    4  A    between atoms: C_12  and  O_13
REMARK    5  A    between atoms: O_13  and  C_14
REMARK                            x       y       z     vdW  Elec       q    Type
REMARK                         _______ _______ _______ _____ _____    ______ ____
ROOT
ATOM      1  C   UNL     1       4.028   4.463  18.605  0.00  0.00    +0.000 A 
ATOM      2  C   UNL     1       3.919   3.294  17.831  0.00  0.00    +0.000 A 
ATOM      3  C   UNL     1       2.687   2.698  17.595  0.00  0.00    +0.000 A 
ATOM      4  C   UNL     1       1.564   3.289  18.126  0.00  0.00    +0.000 A 
ATOM      5  N   UNL     1       1.613   4.381  18.907  0.00  0.00    +0.000 NA
ATOM      6  C   UNL     1       2.832   4.919  19.184  0.00  0.00    +0.000 A 
ENDROOT
BRANCH   1   9
ATOM      7  C   UNL     1       5.894   5.914  17.818  0.00  0.00    +0.000 C 
ATOM      8  O   UNL     1       5.395   6.186  16.728  0.00  0.00    +0.000 OA
ATOM      9  N   UNL     1       5.284   5.125  18.787  0.00  0.00    +0.000 N 
ATOM     10  H   UNL     1       5.657   5.112  19.725  0.00  0.00    +0.000 HD
BRANCH   7  12
ATOM     11  C   UNL     1       7.999   5.788  19.014  0.00  0.00    +0.000 C 
ATOM     12  C   UNL     1       7.245   6.492  18.148  0.00  0.00    +0.000 C 
ATOM     13  C   UNL     1       7.715   7.786  17.582  0.00  0.00    +0.000 C 
ENDBRANCH   7  12
ENDBRANCH   1   9
BRANCH   6  14
ATOM     14  O   UNL     1       2.867   5.978  20.099  0.00  0.00    +0.000 OA
BRANCH  14  15
ATOM     15  C   UNL     1       2.306   7.179  19.679  0.00  0.00    +0.000 A 
ATOM     16  C   UNL     1       1.543   7.999  20.524  0.00  0.00    +0.000 A 
ATOM     17  C   UNL     1       0.956   9.171  20.037  0.00  0.00    +0.000 A 
ATOM     18  C   UNL     1       1.178   9.550  18.722  0.00  0.00    +0.000 A 
ATOM     19  F   UNL     1       0.616  10.674  18.253  0.00  0.00    +0.000 F 
ATOM     20  C   UNL     1       1.981   8.780  17.884  0.00  0.00    +0.000 A 
ATOM     21  C   UNL     1       2.549   7.592  18.362  0.00  0.00    +0.000 A 
ENDBRANCH  14  15
ENDBRANCH   6  14
TORSDOF 4
ENDMDL
MODEL 8
REMARK VINA RESULT:      -7.5      3.365      5.158
REMARK  Name = 
REMARK  5 active torsions:
REMARK  status: ('A' for Active; 'I' for Inactive)
REMARK    1  A    between atoms: C_2  and  C_3
REMARK    2  A    between atoms: C_2  and  C_4
REMARK    3  A    between atoms: N_6  and  C_7
REMARK    4  A    between atoms: C_12  and  O_13
REMARK    5  A    between atoms: O_13  and  C_14
REMARK                            x       y       z     vdW  Elec       q    Type
REMARK                         _______ _______ _______ _____ _____    ______ ____
ROOT
ATOM      1  C   UNL     1       2.609   4.303  18.379  0.00  0.00    +0.000 A 
ATOM      2  C   UNL     1       1.997   3.040  18.287  0.00  0.00    +0.000 A 
ATOM      3  C   UNL     1       1.083   2.611  19.240  0.00  0.00    +0.000 A 
ATOM      4  C   UNL     1       0.774   3.461  20.277  0.00  0.00    +0.000 A 
ATOM      5  N   UNL     1       1.359   4.660  20.438  0.00  0.00    +0.000 NA
ATOM      6  C   UNL     1       2.300   5.042  19.532  0.00  0.00    +0.000 A 
ENDROOT
BRANCH   1   9
ATOM      7  C   UNL     1       4.876   4.657  17.408  0.00  0.00    +0.000 C 
ATOM      8  O   UNL     1       5.490   4.066  18.293  0.00  0.00    +0.000 OA
ATOM      9  N   UNL     1       3.492   4.782  17.358  0.00  0.00    +0.000 N 
ATOM     10  H   UNL     1       3.051   5.098  16.507  0.00  0.00    +0.000 HD
BRANCH   7  12
ATOM     11  C   UNL     1       5.162   6.396  15.742  0.00  0.00    +0.000 C 
ATOM     12  C   UNL     1       5.665   5.267  16.279  0.00  0.00    +0.000 C 
ATOM     13  C   UNL     1       6.912   4.645  15.754  0.00  0.00    +0.000 C 
ENDBRANCH   7  12
ENDBRANCH   1   9
BRANCH   6  14
ATOM     14  O   UNL     1       2.984   6.237  19.790  0.00  0.00    +0.000 OA
BRANCH  14  15
ATOM     15  C   UNL     1       2.289   7.415  19.538  0.00  0.00    +0.000 A 
ATOM     16  C   UNL     1       1.580   8.107  20.531  0.00  0.00    +0.000 A 
ATOM     17  C   UNL     1       0.853   9.259  20.214  0.00  0.00    +0.000 A 
ATOM     18  C   UNL     1       0.883   9.748  18.917  0.00  0.00    +0.000 A 
ATOM     19  F   UNL     1       0.187  10.853  18.610  0.00  0.00    +0.000 F 
ATOM     20  C   UNL     1       1.629   9.109  17.930  0.00  0.00    +0.000 A 
ATOM     21  C   UNL     1       2.336   7.940  18.240  0.00  0.00    +0.000 A 
ENDBRANCH  14  15
ENDBRANCH   6  14
TORSDOF 4
ENDMDL
MODEL 9
REMARK VINA RESULT:      -7.5      3.256      5.170
REMARK  Name = 
REMARK  5 active torsions:
REMARK  status: ('A' for Active; 'I' for Inactive)
REMARK    1  A    between atoms: C_2  and  C_3
REMARK    2  A    between atoms: C_2  and  C_4
REMARK    3  A    between atoms: N_6  and  C_7
REMARK    4  A    between atoms: C_12  and  O_13
REMARK    5  A    between atoms: O_13  and  C_14
REMARK                            x       y       z     vdW  Elec       q    Type
REMARK                         _______ _______ _______ _____ _____    ______ ____
ROOT
ATOM      1  C   UNL     1       3.161   4.305  18.206  0.00  0.00    +0.000 A 
ATOM      2  C   UNL     1       2.648   3.048  17.841  0.00  0.00    +0.000 A 
ATOM      3  C   UNL     1       1.515   2.527  18.453  0.00  0.00    +0.000 A 
ATOM      4  C   UNL     1       0.891   3.281  19.420  0.00  0.00    +0.000 A 
ATOM      5  N   UNL     1       1.361   4.469  19.837  0.00  0.00    +0.000 NA
ATOM      6  C   UNL     1       2.508   4.939  19.275  0.00  0.00    +0.000 A 
ENDROOT
BRANCH   1   9
ATOM      7  C   UNL     1       5.590   4.822  17.995  0.00  0.00    +0.000 C 
ATOM      8  O   UNL     1       5.939   4.216  19.005  0.00  0.00    +0.000 OA
ATOM      9  N   UNL     1       4.282   4.881  17.525  0.00  0.00    +0.000 N 
ATOM     10  H   UNL     1       4.104   5.220  16.591  0.00  0.00    +0.000 HD
BRANCH   7  12
ATOM     11  C   UNL     1       6.823   5.092  15.925  0.00  0.00    +0.000 C 
ATOM     12  C   UNL     1       6.646   5.529  17.187  0.00  0.00    +0.000 C 
ATOM     13  C   UNL     1       7.476   6.628  17.753  0.00  0.00    +0.000 C 
ENDBRANCH   7  12
ENDBRANCH   1   9
BRANCH   6  14
ATOM     14  O   UNL     1       3.045   6.115  19.814  0.00  0.00    +0.000 OA
BRANCH  14  15
ATOM     15  C   UNL     1       2.359   7.293  19.536  0.00  0.00    +0.000 A 
ATOM     16  C   UNL     1       1.610   7.982  20.501  0.00  0.00    +0.000 A 
ATOM     17  C   UNL     1       0.895   9.134  20.158  0.00  0.00    +0.000 A 
ATOM     18  C   UNL     1       0.975   9.625  18.864  0.00  0.00    +0.000 A 
ATOM     19  F   UNL     1       0.291  10.730  18.532  0.00  0.00    +0.000 F 
ATOM     20  C   UNL     1       1.761   8.989  17.906  0.00  0.00    +0.000 A 
ATOM     21  C   UNL     1       2.457   7.821  18.242  0.00  0.00    +0.000 A 
ENDBRANCH  14  15
ENDBRANCH   6  14
TORSDOF 4
ENDMDL
