MODEL 1
REMARK VINA RESULT:      -8.0      0.000      0.000
REMARK  Name = 
REMARK  5 active torsions:
REMARK  status: ('A' for Active; 'I' for Inactive)
REMARK    1  A    between atoms: C_1  and  O_2
REMARK    2  A    between atoms: O_2  and  C_3
REMARK    3  A    between atoms: C_7  and  O_8
REMARK    4  A    between atoms: O_8  and  C_9
REMARK    5  A    between atoms: N_20  and  C_21
REMARK                            x       y       z     vdW  Elec       q    Type
REMARK                         _______ _______ _______ _____ _____    ______ ____
ROOT
ATOM      1  C   UNL     1       3.159   5.265  19.285  0.00  0.00    +0.000 A 
ATOM      2  C   UNL     1       2.754   4.619  18.117  0.00  0.00    +0.000 A 
ATOM      3  C   UNL     1       3.708   4.221  17.173  0.00  0.00    +0.000 A 
ATOM      4  C   UNL     1       5.090   4.451  17.355  0.00  0.00    +0.000 A 
ATOM      5  C   UNL     1       5.441   5.090  18.551  0.00  0.00    +0.000 A 
ATOM      6  C   UNL     1       4.511   5.450  19.536  0.00  0.00    +0.000 A 
ATOM      7  S   UNL     1       7.100   5.590  18.777  0.00  0.00    +0.000 S 
ATOM      8  O   UNL     1       7.468   5.359  20.158  0.00  0.00    +0.000 OA
ATOM      9  O   UNL     1       7.265   6.881  18.139  0.00  0.00    +0.000 OA
ATOM     10  N   UNL     1       7.914   4.458  17.900  0.00  0.00    +0.000 NA
ATOM     11  C   UNL     1       7.460   4.265  16.553  0.00  0.00    +0.000 C 
ATOM     12  N   UNL     1       6.022   4.048  16.384  0.00  0.00    +0.000 N 
ATOM     13  H   UNL     1       8.250   3.662  18.425  0.00  0.00    +0.000 HD
ENDROOT
BRANCH  12  14
ATOM     14  C   UNL     1       5.591   3.993  14.964  0.00  0.00    +0.000 C 
ATOM     15  C   UNL     1       5.567   5.222  14.090  0.00  0.00    +0.000 C 
ATOM     16  C   UNL     1       6.570   4.140  13.833  0.00  0.00    +0.000 C 
ENDBRANCH  12  14
BRANCH   1  17
ATOM     17  O   UNL     1       2.259   5.799  20.177  0.00  0.00    +0.000 OA
BRANCH  17  22
ATOM     18  C   UNL     1       1.780   9.183  18.712  0.00  0.00    +0.000 A 
ATOM     19  C   UNL     1       1.044   9.763  19.746  0.00  0.00    +0.000 A 
ATOM     20  C   UNL     1       0.783   9.053  20.921  0.00  0.00    +0.000 A 
ATOM     21  C   UNL     1       1.221   7.733  21.048  0.00  0.00    +0.000 A 
ATOM     22  C   UNL     1       1.921   7.129  20.004  0.00  0.00    +0.000 A 
ATOM     23  C   UNL     1       2.249   7.880  18.864  0.00  0.00    +0.000 A 
BRANCH  18  25
ATOM     24  C   UNL     1       2.220  11.355  17.851  0.00  0.00    +0.000 C 
ATOM     25  O   UNL     1       1.970   9.973  17.610  0.00  0.00    +0.000 OA
ENDBRANCH  18  25
ENDBRANCH  17  22
ENDBRANCH   1  17
TORSDOF 4
ENDMDL
MODEL 2
REMARK VINA RESULT:      -7.9      1.016      1.761
REMARK  Name = 
REMARK  5 active torsions:
REMARK  status: ('A' for Active; 'I' for Inactive)
REMARK    1  A    between atoms: C_1  and  O_2
REMARK    2  A    between atoms: O_2  and  C_3
REMARK    3  A    between atoms: C_7  and  O_8
REMARK    4  A    between atoms: O_8  and  C_9
REMARK    5  A    between atoms: N_20  and  C_21
REMARK                            x       y       z     vdW  Elec       q    Type
REMARK                         _______ _______ _______ _____ _____    ______ ____
ROOT
ATOM      1  C   UNL     1       3.221   5.333  19.357  0.00  0.00    +0.000 A 
ATOM      2  C   UNL     1       2.770   4.696  18.202  0.00  0.00    +0.000 A 
ATOM      3  C   UNL     1       3.688   4.279  17.231  0.00  0.00    +0.000 A 
ATOM      4  C   UNL     1       5.079   4.482  17.373  0.00  0.00    +0.000 A 
ATOM      5  C   UNL     1       5.477   5.113  18.558  0.00  0.00    +0.000 A 
ATOM      6  C   UNL     1       4.582   5.490  19.570  0.00  0.00    +0.000 A 
ATOM      7  S   UNL     1       7.151   5.580  18.737  0.00  0.00    +0.000 S 
ATOM      8  O   UNL     1       7.553   5.341  20.107  0.00  0.00    +0.000 OA
ATOM      9  O   UNL     1       7.323   6.868  18.095  0.00  0.00    +0.000 OA
ATOM     10  N   UNL     1       7.917   4.433  17.837  0.00  0.00    +0.000 NA
ATOM     11  C   UNL     1       7.421   4.250  16.503  0.00  0.00    +0.000 C 
ATOM     12  N   UNL     1       5.975   4.061  16.375  0.00  0.00    +0.000 N 
ATOM     13  H   UNL     1       8.253   3.629  18.352  0.00  0.00    +0.000 HD
ENDROOT
BRANCH  12  14
ATOM     14  C   UNL     1       5.502   4.015  14.969  0.00  0.00    +0.000 C 
ATOM     15  C   UNL     1       5.631   5.202  14.046  0.00  0.00    +0.000 C 
ATOM     16  C   UNL     1       6.462   3.977  13.812  0.00  0.00    +0.000 C 
ENDBRANCH  12  14
BRANCH   1  17
ATOM     17  O   UNL     1       2.358   5.884  20.275  0.00  0.00    +0.000 OA
BRANCH  17  22
ATOM     18  C   UNL     1       0.849   9.263  20.644  0.00  0.00    +0.000 A 
ATOM     19  C   UNL     1       1.168   9.780  19.388  0.00  0.00    +0.000 A 
ATOM     20  C   UNL     1       1.809   8.986  18.433  0.00  0.00    +0.000 A 
ATOM     21  C   UNL     1       2.177   7.677  18.748  0.00  0.00    +0.000 A 
ATOM     22  C   UNL     1       1.900   7.163  20.014  0.00  0.00    +0.000 A 
ATOM     23  C   UNL     1       1.182   7.941  20.936  0.00  0.00    +0.000 A 
BRANCH  18  25
ATOM     24  C   UNL     1       0.024   9.682  22.834  0.00  0.00    +0.000 C 
ATOM     25  O   UNL     1       0.226  10.133  21.497  0.00  0.00    +0.000 OA
ENDBRANCH  18  25
ENDBRANCH  17  22
ENDBRANCH   1  17
TORSDOF 4
ENDMDL
MODEL 3
REMARK VINA RESULT:      -7.7      4.518      7.738
REMARK  Name = 
REMARK  5 active torsions:
REMARK  status: ('A' for Active; 'I' for Inactive)
REMARK    1  A    between atoms: C_1  and  O_2
REMARK    2  A    between atoms: O_2  and  C_3
REMARK    3  A    between atoms: C_7  and  O_8
REMARK    4  A    between atoms: O_8  and  C_9
REMARK    5  A    between atoms: N_20  and  C_21
REMARK                            x       y       z     vdW  Elec       q    Type
REMARK                         _______ _______ _______ _____ _____    ______ ____
ROOT
ATOM      1  C   UNL     1       2.417   7.861  18.720  0.00  0.00    +0.000 A 
ATOM      2  C   UNL     1       1.917   8.609  17.655  0.00  0.00    +0.000 A 
ATOM      3  C   UNL     1       0.959   9.602  17.889  0.00  0.00    +0.000 A 
ATOM      4  C   UNL     1       0.465   9.883  19.183  0.00  0.00    +0.000 A 
ATOM      5  C   UNL     1       1.012   9.111  20.216  0.00  0.00    +0.000 A 
ATOM      6  C   UNL     1       2.012   8.149  20.015  0.00  0.00    +0.000 A 
ATOM      7  S   UNL     1       0.327   9.250  21.817  0.00  0.00    +0.000 S 
ATOM      8  O   UNL     1       1.401   9.192  22.786  0.00  0.00    +0.000 OA
ATOM      9  O   UNL     1      -0.823   8.371  21.885  0.00  0.00    +0.000 OA
ATOM     10  N   UNL     1      -0.199  10.811  21.823  0.00  0.00    +0.000 NA
ATOM     11  C   UNL     1      -1.025  11.197  20.716  0.00  0.00    +0.000 C 
ATOM     12  N   UNL     1      -0.505  10.880  19.384  0.00  0.00    +0.000 N 
ATOM     13  H   UNL     1       0.446  11.485  22.215  0.00  0.00    +0.000 HD
ENDROOT
BRANCH  12  14
ATOM     14  C   UNL     1      -1.459  11.175  18.286  0.00  0.00    +0.000 C 
ATOM     15  C   UNL     1      -2.586  10.235  17.936  0.00  0.00    +0.000 C 
ATOM     16  C   UNL     1      -2.886  11.564  18.560  0.00  0.00    +0.000 C 
ENDBRANCH  12  14
BRANCH   1  17
ATOM     17  O   UNL     1       3.253   6.785  18.531  0.00  0.00    +0.000 OA
BRANCH  17  22
ATOM     18  C   UNL     1       2.390   3.691  20.403  0.00  0.00    +0.000 A 
ATOM     19  C   UNL     1       1.564   3.088  19.454  0.00  0.00    +0.000 A 
ATOM     20  C   UNL     1       1.366   3.679  18.203  0.00  0.00    +0.000 A 
ATOM     21  C   UNL     1       1.961   4.907  17.912  0.00  0.00    +0.000 A 
ATOM     22  C   UNL     1       2.756   5.540  18.868  0.00  0.00    +0.000 A 
ATOM     23  C   UNL     1       3.015   4.897  20.089  0.00  0.00    +0.000 A 
BRANCH  18  25
ATOM     24  C   UNL     1       1.349   2.330  22.051  0.00  0.00    +0.000 C 
ATOM     25  O   UNL     1       2.507   3.022  21.592  0.00  0.00    +0.000 OA
ENDBRANCH  18  25
ENDBRANCH  17  22
ENDBRANCH   1  17
TORSDOF 4
ENDMDL
MODEL 4
REMARK VINA RESULT:      -7.7      2.764      4.510
REMARK  Name = 
REMARK  5 active torsions:
REMARK  status: ('A' for Active; 'I' for Inactive)
REMARK    1  A    between atoms: C_1  and  O_2
REMARK    2  A    between atoms: O_2  and  C_3
REMARK    3  A    between atoms: C_7  and  O_8
REMARK    4  A    between atoms: O_8  and  C_9
REMARK    5  A    between atoms: N_20  and  C_21
REMARK                            x       y       z     vdW  Elec       q    Type
REMARK                         _______ _______ _______ _____ _____    ______ ____
ROOT
ATOM      1  C   UNL     1       2.711   7.906  18.139  0.00  0.00    +0.000 A 
ATOM      2  C   UNL     1       2.073   7.704  19.363  0.00  0.00    +0.000 A 
ATOM      3  C   UNL     1       2.283   6.514  20.070  0.00  0.00    +0.000 A 
ATOM      4  C   UNL     1       3.127   5.489  19.588  0.00  0.00    +0.000 A 
ATOM      5  C   UNL     1       3.751   5.751  18.362  0.00  0.00    +0.000 A 
ATOM      6  C   UNL     1       3.602   6.956  17.661  0.00  0.00    +0.000 A 
ATOM      7  S   UNL     1       4.658   4.470  17.594  0.00  0.00    +0.000 S 
ATOM      8  O   UNL     1       5.841   5.041  16.988  0.00  0.00    +0.000 OA
ATOM      9  O   UNL     1       3.723   3.654  16.845  0.00  0.00    +0.000 OA
ATOM     10  N   UNL     1       5.189   3.608  18.893  0.00  0.00    +0.000 NA
ATOM     11  C   UNL     1       4.185   3.228  19.845  0.00  0.00    +0.000 C 
ATOM     12  N   UNL     1       3.308   4.301  20.317  0.00  0.00    +0.000 N 
ATOM     13  H   UNL     1       6.115   3.847  19.224  0.00  0.00    +0.000 HD
ENDROOT
BRANCH  12  14
ATOM     14  C   UNL     1       2.204   3.828  21.191  0.00  0.00    +0.000 C 
ATOM     15  C   UNL     1       1.032   3.052  20.643  0.00  0.00    +0.000 C 
ATOM     16  C   UNL     1       2.032   2.373  21.530  0.00  0.00    +0.000 C 
ENDBRANCH  12  14
BRANCH   1  17
ATOM     17  O   UNL     1       2.436   8.990  17.340  0.00  0.00    +0.000 OA
BRANCH  17  22
ATOM     18  C   UNL     1      -0.622  10.715  18.563  0.00  0.00    +0.000 A 
ATOM     19  C   UNL     1      -0.035  11.891  19.029  0.00  0.00    +0.000 A 
ATOM     20  C   UNL     1       1.336  12.115  18.869  0.00  0.00    +0.000 A 
ATOM     21  C   UNL     1       2.137  11.136  18.280  0.00  0.00    +0.000 A 
ATOM     22  C   UNL     1       1.568   9.938  17.848  0.00  0.00    +0.000 A 
ATOM     23  C   UNL     1       0.177   9.760  17.938  0.00  0.00    +0.000 A 
BRANCH  18  25
ATOM     24  C   UNL     1      -2.782  11.673  18.297  0.00  0.00    +0.000 C 
ATOM     25  O   UNL     1      -1.970  10.605  18.778  0.00  0.00    +0.000 OA
ENDBRANCH  18  25
ENDBRANCH  17  22
ENDBRANCH   1  17
TORSDOF 4
ENDMDL
MODEL 5
REMARK VINA RESULT:      -7.7      3.967      7.358
REMARK  Name = 
REMARK  5 active torsions:
REMARK  status: ('A' for Active; 'I' for Inactive)
REMARK    1  A    between atoms: C_1  and  O_2
REMARK    2  A    between atoms: O_2  and  C_3
REMARK    3  A    between atoms: C_7  and  O_8
REMARK    4  A    between atoms: O_8  and  C_9
REMARK    5  A    between atoms: N_20  and  C_21
REMARK                            x       y       z     vdW  Elec       q    Type
REMARK                         _______ _______ _______ _____ _____    ______ ____
ROOT
ATOM      1  C   UNL     1       2.477   7.192  19.099  0.00  0.00    +0.000 A 
ATOM      2  C   UNL     1       2.119   7.854  17.925  0.00  0.00    +0.000 A 
ATOM      3  C   UNL     1       1.346   9.019  17.989  0.00  0.00    +0.000 A 
ATOM      4  C   UNL     1       0.903   9.564  19.215  0.00  0.00    +0.000 A 
ATOM      5  C   UNL     1       1.302   8.866  20.362  0.00  0.00    +0.000 A 
ATOM      6  C   UNL     1       2.122   7.729  20.328  0.00  0.00    +0.000 A 
ATOM      7  S   UNL     1       0.645   9.350  21.907  0.00  0.00    +0.000 S 
ATOM      8  O   UNL     1       1.688   9.248  22.905  0.00  0.00    +0.000 OA
ATOM      9  O   UNL     1      -0.641   8.699  22.064  0.00  0.00    +0.000 OA
ATOM     10  N   UNL     1       0.397  10.961  21.677  0.00  0.00    +0.000 NA
ATOM     11  C   UNL     1      -0.345  11.319  20.502  0.00  0.00    +0.000 C 
ATOM     12  N   UNL     1       0.119  10.729  19.245  0.00  0.00    +0.000 N 
ATOM     13  H   UNL     1       1.147  11.565  21.988  0.00  0.00    +0.000 HD
ENDROOT
BRANCH  12  14
ATOM     14  C   UNL     1      -0.765  11.022  18.088  0.00  0.00    +0.000 C 
ATOM     15  C   UNL     1      -2.049  10.265  17.855  0.00  0.00    +0.000 C 
ATOM     16  C   UNL     1      -2.092  11.707  18.260  0.00  0.00    +0.000 C 
ENDBRANCH  12  14
BRANCH   1  17
ATOM     17  O   UNL     1       3.114   5.974  19.089  0.00  0.00    +0.000 OA
BRANCH  17  22
ATOM     18  C   UNL     1       6.076   6.220  16.855  0.00  0.00    +0.000 A 
ATOM     19  C   UNL     1       5.847   5.092  16.067  0.00  0.00    +0.000 A 
ATOM     20  C   UNL     1       4.696   4.321  16.246  0.00  0.00    +0.000 A 
ATOM     21  C   UNL     1       3.785   4.651  17.251  0.00  0.00    +0.000 A 
ATOM     22  C   UNL     1       4.024   5.753  18.072  0.00  0.00    +0.000 A 
ATOM     23  C   UNL     1       5.142   6.568  17.829  0.00  0.00    +0.000 A 
BRANCH  18  25
ATOM     24  C   UNL     1       7.674   7.824  17.581  0.00  0.00    +0.000 C 
ATOM     25  O   UNL     1       7.238   6.896  16.592  0.00  0.00    +0.000 OA
ENDBRANCH  18  25
ENDBRANCH  17  22
ENDBRANCH   1  17
TORSDOF 4
ENDMDL
MODEL 6
REMARK VINA RESULT:      -7.6      2.833      4.524
REMARK  Name = 
REMARK  5 active torsions:
REMARK  status: ('A' for Active; 'I' for Inactive)
REMARK    1  A    between atoms: C_1  and  O_2
REMARK    2  A    between atoms: O_2  and  C_3
REMARK    3  A    between atoms: C_7  and  O_8
REMARK    4  A    between atoms: O_8  and  C_9
REMARK    5  A    between atoms: N_20  and  C_21
REMARK                            x       y       z     vdW  Elec       q    Type
REMARK                         _______ _______ _______ _____ _____    ______ ____
ROOT
ATOM      1  C   UNL     1       2.564   8.018  18.204  0.00  0.00    +0.000 A 
ATOM      2  C   UNL     1       2.022   7.812  19.473  0.00  0.00    +0.000 A 
ATOM      3  C   UNL     1       2.259   6.607  20.144  0.00  0.00    +0.000 A 
ATOM      4  C   UNL     1       3.036   5.570  19.581  0.00  0.00    +0.000 A 
ATOM      5  C   UNL     1       3.566   5.837  18.312  0.00  0.00    +0.000 A 
ATOM      6  C   UNL     1       3.390   7.056  17.643  0.00  0.00    +0.000 A 
ATOM      7  S   UNL     1       4.376   4.547  17.455  0.00  0.00    +0.000 S 
ATOM      8  O   UNL     1       5.520   5.100  16.763  0.00  0.00    +0.000 OA
ATOM      9  O   UNL     1       3.364   3.765  16.773  0.00  0.00    +0.000 OA
ATOM     10  N   UNL     1       4.989   3.653  18.695  0.00  0.00    +0.000 NA
ATOM     11  C   UNL     1       4.056   3.281  19.720  0.00  0.00    +0.000 C 
ATOM     12  N   UNL     1       3.246   4.367  20.276  0.00  0.00    +0.000 N 
ATOM     13  H   UNL     1       5.944   3.865  18.953  0.00  0.00    +0.000 HD
ENDROOT
BRANCH  12  14
ATOM     14  C   UNL     1       2.206   3.905  21.230  0.00  0.00    +0.000 C 
ATOM     15  C   UNL     1       1.003   3.117  20.775  0.00  0.00    +0.000 C 
ATOM     16  C   UNL     1       2.062   2.456  21.604  0.00  0.00    +0.000 C 
ENDBRANCH  12  14
BRANCH   1  17
ATOM     17  O   UNL     1       2.252   9.121  17.445  0.00  0.00    +0.000 OA
BRANCH  17  22
ATOM     18  C   UNL     1       0.629  12.091  18.985  0.00  0.00    +0.000 A 
ATOM     19  C   UNL     1      -0.704  11.709  18.837  0.00  0.00    +0.000 A 
ATOM     20  C   UNL     1      -1.033  10.463  18.298  0.00  0.00    +0.000 A 
ATOM     21  C   UNL     1      -0.023   9.606  17.859  0.00  0.00    +0.000 A 
ATOM     22  C   UNL     1       1.313   9.993  17.964  0.00  0.00    +0.000 A 
ATOM     23  C   UNL     1       1.634  11.212  18.584  0.00  0.00    +0.000 A 
BRANCH  18  25
ATOM     24  C   UNL     1       0.127  14.414  18.912  0.00  0.00    +0.000 C 
ATOM     25  O   UNL     1       0.829  13.334  19.522  0.00  0.00    +0.000 OA
ENDBRANCH  18  25
ENDBRANCH  17  22
ENDBRANCH   1  17
TORSDOF 4
ENDMDL
MODEL 7
REMARK VINA RESULT:      -7.5      4.452      7.723
REMARK  Name = 
REMARK  5 active torsions:
REMARK  status: ('A' for Active; 'I' for Inactive)
REMARK    1  A    between atoms: C_1  and  O_2
REMARK    2  A    between atoms: O_2  and  C_3
REMARK    3  A    between atoms: C_7  and  O_8
REMARK    4  A    between atoms: O_8  and  C_9
REMARK    5  A    between atoms: N_20  and  C_21
REMARK                            x       y       z     vdW  Elec       q    Type
REMARK                         _______ _______ _______ _____ _____    ______ ____
ROOT
ATOM      1  C   UNL     1       2.369   7.742  19.054  0.00  0.00    +0.000 A 
ATOM      2  C   UNL     1       1.895   8.361  17.898  0.00  0.00    +0.000 A 
ATOM      3  C   UNL     1       0.957   9.395  17.995  0.00  0.00    +0.000 A 
ATOM      4  C   UNL     1       0.457   9.845  19.238  0.00  0.00    +0.000 A 
ATOM      5  C   UNL     1       0.977   9.198  20.365  0.00  0.00    +0.000 A 
ATOM      6  C   UNL     1       1.959   8.198  20.298  0.00  0.00    +0.000 A 
ATOM      7  S   UNL     1       0.281   9.550  21.928  0.00  0.00    +0.000 S 
ATOM      8  O   UNL     1       1.345   9.591  22.909  0.00  0.00    +0.000 OA
ATOM      9  O   UNL     1      -0.889   8.709  22.092  0.00  0.00    +0.000 OA
ATOM     10  N   UNL     1      -0.211  11.109  21.733  0.00  0.00    +0.000 NA
ATOM     11  C   UNL     1      -1.019  11.370  20.576  0.00  0.00    +0.000 C 
ATOM     12  N   UNL     1      -0.493  10.878  19.301  0.00  0.00    +0.000 N 
ATOM     13  H   UNL     1       0.444  11.814  22.045  0.00  0.00    +0.000 HD
ENDROOT
BRANCH  12  14
ATOM     14  C   UNL     1      -1.431  11.053  18.163  0.00  0.00    +0.000 C 
ATOM     15  C   UNL     1      -2.553  10.081  17.899  0.00  0.00    +0.000 C 
ATOM     16  C   UNL     1      -2.861  11.469  18.372  0.00  0.00    +0.000 C 
ENDBRANCH  12  14
BRANCH   1  17
ATOM     17  O   UNL     1       3.183   6.635  19.011  0.00  0.00    +0.000 OA
BRANCH  17  22
ATOM     18  C   UNL     1       2.245   3.056  18.637  0.00  0.00    +0.000 A 
ATOM     19  C   UNL     1       1.375   2.947  19.722  0.00  0.00    +0.000 A 
ATOM     20  C   UNL     1       1.069   4.063  20.505  0.00  0.00    +0.000 A 
ATOM     21  C   UNL     1       1.672   5.292  20.232  0.00  0.00    +0.000 A 
ATOM     22  C   UNL     1       2.575   5.404  19.175  0.00  0.00    +0.000 A 
ATOM     23  C   UNL     1       2.810   4.296  18.345  0.00  0.00    +0.000 A 
BRANCH  18  25
ATOM     24  C   UNL     1       3.679   1.200  18.245  0.00  0.00    +0.000 C 
ATOM     25  O   UNL     1       2.472   1.897  17.945  0.00  0.00    +0.000 OA
ENDBRANCH  18  25
ENDBRANCH  17  22
ENDBRANCH   1  17
TORSDOF 4
ENDMDL
MODEL 8
REMARK VINA RESULT:      -7.4      2.916      6.999
REMARK  Name = 
REMARK  5 active torsions:
REMARK  status: ('A' for Active; 'I' for Inactive)
REMARK    1  A    between atoms: C_1  and  O_2
REMARK    2  A    between atoms: O_2  and  C_3
REMARK    3  A    between atoms: C_7  and  O_8
REMARK    4  A    between atoms: O_8  and  C_9
REMARK    5  A    between atoms: N_20  and  C_21
REMARK                            x       y       z     vdW  Elec       q    Type
REMARK                         _______ _______ _______ _____ _____    ______ ____
ROOT
ATOM      1  C   UNL     1       6.488   5.247  16.569  0.00  0.00    +0.000 A 
ATOM      2  C   UNL     1       5.944   6.517  16.377  0.00  0.00    +0.000 A 
ATOM      3  C   UNL     1       4.802   6.901  17.088  0.00  0.00    +0.000 A 
ATOM      4  C   UNL     1       4.162   6.041  18.008  0.00  0.00    +0.000 A 
ATOM      5  C   UNL     1       4.758   4.784  18.171  0.00  0.00    +0.000 A 
ATOM      6  C   UNL     1       5.933   4.395  17.513  0.00  0.00    +0.000 A 
ATOM      7  S   UNL     1       3.933   3.585  19.138  0.00  0.00    +0.000 S 
ATOM      8  O   UNL     1       4.918   2.853  19.906  0.00  0.00    +0.000 OA
ATOM      9  O   UNL     1       2.966   2.920  18.288  0.00  0.00    +0.000 OA
ATOM     10  N   UNL     1       3.126   4.526  20.223  0.00  0.00    +0.000 NA
ATOM     11  C   UNL     1       2.334   5.584  19.665  0.00  0.00    +0.000 C 
ATOM     12  N   UNL     1       3.009   6.453  18.699  0.00  0.00    +0.000 N 
ATOM     13  H   UNL     1       3.600   4.677  21.103  0.00  0.00    +0.000 HD
ENDROOT
BRANCH  12  14
ATOM     14  C   UNL     1       2.108   7.440  18.054  0.00  0.00    +0.000 C 
ATOM     15  C   UNL     1       1.526   8.604  18.817  0.00  0.00    +0.000 C 
ATOM     16  C   UNL     1       2.556   8.844  17.756  0.00  0.00    +0.000 C 
ENDBRANCH  12  14
BRANCH   1  17
ATOM     17  O   UNL     1       7.522   4.769  15.799  0.00  0.00    +0.000 OA
BRANCH  17  22
ATOM     18  C   UNL     1       6.072   3.551  12.599  0.00  0.00    +0.000 A 
ATOM     19  C   UNL     1       6.747   4.399  11.720  0.00  0.00    +0.000 A 
ATOM     20  C   UNL     1       7.705   5.299  12.193  0.00  0.00    +0.000 A 
ATOM     21  C   UNL     1       7.962   5.387  13.562  0.00  0.00    +0.000 A 
ATOM     22  C   UNL     1       7.264   4.574  14.455  0.00  0.00    +0.000 A 
ATOM     23  C   UNL     1       6.364   3.616  13.960  0.00  0.00    +0.000 A 
BRANCH  18  25
ATOM     24  C   UNL     1       4.068   3.333  11.340  0.00  0.00    +0.000 C 
ATOM     25  O   UNL     1       5.155   2.714  12.022  0.00  0.00    +0.000 OA
ENDBRANCH  18  25
ENDBRANCH  17  22
ENDBRANCH   1  17
TORSDOF 4
ENDMDL
MODEL 9
REMARK VINA RESULT:      -7.4      4.027      7.368
REMARK  Name = 
REMARK  5 active torsions:
REMARK  status: ('A' for Active; 'I' for Inactive)
REMARK    1  A    between atoms: C_1  and  O_2
REMARK    2  A    between atoms: O_2  and  C_3
REMARK    3  A    between atoms: C_7  and  O_8
REMARK    4  A    between atoms: O_8  and  C_9
REMARK    5  A    between atoms: N_20  and  C_21
REMARK                            x       y       z     vdW  Elec       q    Type
REMARK                         _______ _______ _______ _____ _____    ______ ____
ROOT
ATOM      1  C   UNL     1       2.246   7.433  18.662  0.00  0.00    +0.000 A 
ATOM      2  C   UNL     1       1.846   8.264  17.616  0.00  0.00    +0.000 A 
ATOM      3  C   UNL     1       1.164   9.454  17.893  0.00  0.00    +0.000 A 
ATOM      4  C   UNL     1       0.855   9.856  19.212  0.00  0.00    +0.000 A 
ATOM      5  C   UNL     1       1.292   8.991  20.222  0.00  0.00    +0.000 A 
ATOM      6  C   UNL     1       2.025   7.822  19.974  0.00  0.00    +0.000 A 
ATOM      7  S   UNL     1       0.790   9.304  21.866  0.00  0.00    +0.000 S 
ATOM      8  O   UNL     1       1.897   9.010  22.751  0.00  0.00    +0.000 OA
ATOM      9  O   UNL     1      -0.522   8.715  22.049  0.00  0.00    +0.000 OA
ATOM     10  N   UNL     1       0.638  10.943  21.865  0.00  0.00    +0.000 NA
ATOM     11  C   UNL     1      -0.165  11.497  20.813  0.00  0.00    +0.000 C 
ATOM     12  N   UNL     1       0.159  11.052  19.456  0.00  0.00    +0.000 N 
ATOM     13  H   UNL     1       1.450  11.455  22.186  0.00  0.00    +0.000 HD
ENDROOT
BRANCH  12  14
ATOM     14  C   UNL     1      -0.789  11.548  18.426  0.00  0.00    +0.000 C 
ATOM     15  C   UNL     1      -2.086  10.837  18.129  0.00  0.00    +0.000 C 
ATOM     16  C   UNL     1      -2.102  12.178  18.796  0.00  0.00    +0.000 C 
ENDBRANCH  12  14
BRANCH   1  17
ATOM     17  O   UNL     1       2.795   6.191  18.442  0.00  0.00    +0.000 OA
BRANCH  17  22
ATOM     18  C   UNL     1       6.357   6.855  17.610  0.00  0.00    +0.000 A 
ATOM     19  C   UNL     1       6.955   5.948  18.486  0.00  0.00    +0.000 A 
ATOM     20  C   UNL     1       6.175   5.099  19.275  0.00  0.00    +0.000 A 
ATOM     21  C   UNL     1       4.783   5.186  19.225  0.00  0.00    +0.000 A 
ATOM     22  C   UNL     1       4.174   6.117  18.384  0.00  0.00    +0.000 A 
ATOM     23  C   UNL     1       4.966   6.906  17.535  0.00  0.00    +0.000 A 
BRANCH  18  25
ATOM     24  C   UNL     1       7.913   8.653  17.611  0.00  0.00    +0.000 C 
ATOM     25  O   UNL     1       7.221   7.636  16.891  0.00  0.00    +0.000 OA
ENDBRANCH  18  25
ENDBRANCH  17  22
ENDBRANCH   1  17
TORSDOF 4
ENDMDL
