MODEL 1
REMARK VINA RESULT:      -7.8      0.000      0.000
REMARK  Name = 
REMARK  11 active torsions:
REMARK  status: ('A' for Active; 'I' for Inactive)
REMARK    1  A    between atoms: C_1  and  C_2
REMARK    2  A    between atoms: C_2  and  O_3
REMARK    3  A    between atoms: O_3  and  C_4
REMARK    4  A    between atoms: C_4  and  C_6
REMARK    5  A    between atoms: C_9  and  C_10
REMARK    6  A    between atoms: C_10  and  N_11
REMARK    7  A    between atoms: N_14  and  C_15
REMARK    8  A    between atoms: C_18  and  N_19
REMARK    9  A    between atoms: C_21  and  C_22
REMARK   10  A    between atoms: C_22  and  N_23
REMARK   11  A    between atoms: C_24  and  C_25
REMARK                            x       y       z     vdW  Elec       q    Type
REMARK                         _______ _______ _______ _____ _____    ______ ____
ROOT
ATOM      1  C   UNL     1       1.305   9.268  19.424  0.00  0.00    +0.000 A 
ATOM      2  C   UNL     1       1.464   8.146  20.249  0.00  0.00    +0.000 A 
ATOM      3  C   UNL     1       2.213   7.024  19.853  0.00  0.00    +0.000 A 
ATOM      4  C   UNL     1       2.870   6.986  18.622  0.00  0.00    +0.000 A 
ATOM      5  C   UNL     1       2.744   8.100  17.792  0.00  0.00    +0.000 A 
ATOM      6  C   UNL     1       1.966   9.200  18.181  0.00  0.00    +0.000 A 
ATOM      7  F   UNL     1       1.893  10.213  17.302  0.00  0.00    +0.000 F 
ENDROOT
BRANCH   1  11
ATOM      8  N   UNL     1      -1.109  12.845  20.085  0.00  0.00    +0.000 NA
ATOM      9  C   UNL     1      -1.728  11.519  19.850  0.00  0.00    +0.000 C 
ATOM     10  C   UNL     1      -0.822  10.493  19.132  0.00  0.00    +0.000 C 
ATOM     11  N   UNL     1       0.466  10.320  19.837  0.00  0.00    +0.000 N 
ATOM     12  C   UNL     1       1.131  11.570  20.272  0.00  0.00    +0.000 C 
ATOM     13  C   UNL     1       0.130  12.601  20.863  0.00  0.00    +0.000 C 
BRANCH   8  14
ATOM     14  C   UNL     1      -0.801  13.563  18.834  0.00  0.00    +0.000 C 
BRANCH  14  18
ATOM     15  C   UNL     1       1.674  16.192  18.880  0.00  0.00    +0.000 A 
ATOM     16  C   UNL     1       0.738  16.849  19.657  0.00  0.00    +0.000 A 
ATOM     17  C   UNL     1      -0.402  16.013  19.722  0.00  0.00    +0.000 A 
ATOM     18  C   UNL     1      -0.090  14.866  19.022  0.00  0.00    +0.000 A 
ATOM     19  O   UNL     1       1.170  14.973  18.499  0.00  0.00    +0.000 OA
BRANCH  15  20
ATOM     20  C   UNL     1       2.982  16.623  18.444  0.00  0.00    +0.000 C 
ATOM     21  O   UNL     1       3.196  17.332  17.467  0.00  0.00    +0.000 OA
BRANCH  20  22
ATOM     22  O   UNL     1       3.952  16.076  19.231  0.00  0.00    +0.000 OA
BRANCH  22  24
ATOM     23  C   UNL     1       6.252  15.855  18.615  0.00  0.00    +0.000 C 
ATOM     24  C   UNL     1       4.878  15.212  18.560  0.00  0.00    +0.000 C 
ENDBRANCH  22  24
ENDBRANCH  20  22
ENDBRANCH  15  20
ENDBRANCH  14  18
ENDBRANCH   8  14
ENDBRANCH   1  11
BRANCH   4  25
ATOM     25  N   UNL     1       3.648   5.866  18.235  0.00  0.00    +0.000 N 
ATOM     26  C   UNL     1       5.076   5.877  18.160  0.00  0.00    +0.000 C 
ATOM     27  C   UNL     1       5.412   4.404  18.051  0.00  0.00    +0.000 C 
ATOM     28  O   UNL     1       4.219   3.809  17.514  0.00  0.00    +0.000 OA
ATOM     29  C   UNL     1       3.165   4.644  17.790  0.00  0.00    +0.000 C 
ATOM     30  O   UNL     1       2.012   4.301  17.595  0.00  0.00    +0.000 OA
BRANCH  27  31
ATOM     31  C   UNL     1       6.594   4.147  17.118  0.00  0.00    +0.000 C 
BRANCH  31  32
ATOM     32  N   UNL     1       6.180   3.757  15.780  0.00  0.00    +0.000 N 
ATOM     33  C   UNL     1       6.695   4.373  14.661  0.00  0.00    +0.000 C 
ATOM     34  C   UNL     1       6.199   3.803  13.356  0.00  0.00    +0.000 C 
ATOM     35  O   UNL     1       7.476   5.311  14.715  0.00  0.00    +0.000 OA
ATOM     36  H   UNL     1       5.681   2.882  15.676  0.00  0.00    +0.000 HD
ENDBRANCH  31  32
ENDBRANCH  27  31
ENDBRANCH   4  25
TORSDOF 9
ENDMDL
MODEL 2
REMARK VINA RESULT:      -7.8      3.515      5.199
REMARK  Name = 
REMARK  11 active torsions:
REMARK  status: ('A' for Active; 'I' for Inactive)
REMARK    1  A    between atoms: C_1  and  C_2
REMARK    2  A    between atoms: C_2  and  O_3
REMARK    3  A    between atoms: O_3  and  C_4
REMARK    4  A    between atoms: C_4  and  C_6
REMARK    5  A    between atoms: C_9  and  C_10
REMARK    6  A    between atoms: C_10  and  N_11
REMARK    7  A    between atoms: N_14  and  C_15
REMARK    8  A    between atoms: C_18  and  N_19
REMARK    9  A    between atoms: C_21  and  C_22
REMARK   10  A    between atoms: C_22  and  N_23
REMARK   11  A    between atoms: C_24  and  C_25
REMARK                            x       y       z     vdW  Elec       q    Type
REMARK                         _______ _______ _______ _____ _____    ______ ____
ROOT
ATOM      1  C   UNL     1       1.095   9.553  19.405  0.00  0.00    +0.000 A 
ATOM      2  C   UNL     1       1.593   9.346  18.111  0.00  0.00    +0.000 A 
ATOM      3  C   UNL     1       2.348   8.210  17.769  0.00  0.00    +0.000 A 
ATOM      4  C   UNL     1       2.612   7.206  18.702  0.00  0.00    +0.000 A 
ATOM      5  C   UNL     1       2.108   7.378  19.991  0.00  0.00    +0.000 A 
ATOM      6  C   UNL     1       1.386   8.531  20.332  0.00  0.00    +0.000 A 
ATOM      7  F   UNL     1       0.963   8.610  21.604  0.00  0.00    +0.000 F 
ENDROOT
BRANCH   1  11
ATOM      8  N   UNL     1      -1.013  13.018  21.018  0.00  0.00    +0.000 NA
ATOM      9  C   UNL     1       0.391  13.106  20.553  0.00  0.00    +0.000 C 
ATOM     10  C   UNL     1       1.151  11.761  20.512  0.00  0.00    +0.000 C 
ATOM     11  N   UNL     1       0.428  10.754  19.708  0.00  0.00    +0.000 N 
ATOM     12  C   UNL     1      -1.029  10.660  19.960  0.00  0.00    +0.000 C 
ATOM     13  C   UNL     1      -1.696  12.054  20.120  0.00  0.00    +0.000 C 
BRANCH   8  14
ATOM     14  C   UNL     1      -1.126  12.584  22.422  0.00  0.00    +0.000 C 
BRANCH  14  18
ATOM     15  C   UNL     1      -3.819  14.420  23.977  0.00  0.00    +0.000 A 
ATOM     16  C   UNL     1      -4.288  13.159  24.296  0.00  0.00    +0.000 A 
ATOM     17  C   UNL     1      -3.403  12.228  23.705  0.00  0.00    +0.000 A 
ATOM     18  C   UNL     1      -2.409  12.964  23.092  0.00  0.00    +0.000 A 
ATOM     19  O   UNL     1      -2.663  14.300  23.246  0.00  0.00    +0.000 OA
BRANCH  15  20
ATOM     20  C   UNL     1      -4.380  15.718  24.272  0.00  0.00    +0.000 C 
ATOM     21  O   UNL     1      -3.725  16.716  24.552  0.00  0.00    +0.000 OA
BRANCH  20  22
ATOM     22  O   UNL     1      -5.743  15.663  24.264  0.00  0.00    +0.000 OA
BRANCH  22  24
ATOM     23  C   UNL     1      -6.567  16.182  22.080  0.00  0.00    +0.000 C 
ATOM     24  C   UNL     1      -6.398  16.685  23.502  0.00  0.00    +0.000 C 
ENDBRANCH  22  24
ENDBRANCH  20  22
ENDBRANCH  15  20
ENDBRANCH  14  18
ENDBRANCH   8  14
ENDBRANCH   1  11
BRANCH   4  25
ATOM     25  N   UNL     1       3.349   6.048  18.350  0.00  0.00    +0.000 N 
ATOM     26  C   UNL     1       4.776   5.964  18.408  0.00  0.00    +0.000 C 
ATOM     27  C   UNL     1       5.025   4.475  18.282  0.00  0.00    +0.000 C 
ATOM     28  O   UNL     1       3.852   3.977  17.617  0.00  0.00    +0.000 OA
ATOM     29  C   UNL     1       2.833   4.874  17.822  0.00  0.00    +0.000 C 
ATOM     30  O   UNL     1       1.683   4.614  17.510  0.00  0.00    +0.000 OA
BRANCH  27  31
ATOM     31  C   UNL     1       6.271   4.164  17.454  0.00  0.00    +0.000 C 
BRANCH  31  32
ATOM     32  N   UNL     1       5.957   3.787  16.085  0.00  0.00    +0.000 N 
ATOM     33  C   UNL     1       6.578   4.389  15.014  0.00  0.00    +0.000 C 
ATOM     34  C   UNL     1       6.175   3.833  13.671  0.00  0.00    +0.000 C 
ATOM     35  O   UNL     1       7.377   5.305  15.134  0.00  0.00    +0.000 OA
ATOM     36  H   UNL     1       5.445   2.925  15.939  0.00  0.00    +0.000 HD
ENDBRANCH  31  32
ENDBRANCH  27  31
ENDBRANCH   4  25
TORSDOF 9
ENDMDL
MODEL 3
REMARK VINA RESULT:      -7.8      1.127      1.505
REMARK  Name = 
REMARK  11 active torsions:
REMARK  status: ('A' for Active; 'I' for Inactive)
REMARK    1  A    between atoms: C_1  and  C_2
REMARK    2  A    between atoms: C_2  and  O_3
REMARK    3  A    between atoms: O_3  and  C_4
REMARK    4  A    between atoms: C_4  and  C_6
REMARK    5  A    between atoms: C_9  and  C_10
REMARK    6  A    between atoms: C_10  and  N_11
REMARK    7  A    between atoms: N_14  and  C_15
REMARK    8  A    between atoms: C_18  and  N_19
REMARK    9  A    between atoms: C_21  and  C_22
REMARK   10  A    between atoms: C_22  and  N_23
REMARK   11  A    between atoms: C_24  and  C_25
REMARK                            x       y       z     vdW  Elec       q    Type
REMARK                         _______ _______ _______ _____ _____    ______ ____
ROOT
ATOM      1  C   UNL     1       1.197   9.003  19.223  0.00  0.00    +0.000 A 
ATOM      2  C   UNL     1       1.847   8.890  17.985  0.00  0.00    +0.000 A 
ATOM      3  C   UNL     1       2.789   7.881  17.720  0.00  0.00    +0.000 A 
ATOM      4  C   UNL     1       3.101   6.910  18.673  0.00  0.00    +0.000 A 
ATOM      5  C   UNL     1       2.451   6.987  19.906  0.00  0.00    +0.000 A 
ATOM      6  C   UNL     1       1.539   8.018  20.173  0.00  0.00    +0.000 A 
ATOM      7  F   UNL     1       0.984   8.015  21.396  0.00  0.00    +0.000 F 
ENDROOT
BRANCH   1  11
ATOM      8  N   UNL     1      -1.074  12.723  19.464  0.00  0.00    +0.000 NA
ATOM      9  C   UNL     1      -1.662  11.485  18.900  0.00  0.00    +0.000 C 
ATOM     10  C   UNL     1      -0.636  10.442  18.402  0.00  0.00    +0.000 C 
ATOM     11  N   UNL     1       0.336  10.090  19.459  0.00  0.00    +0.000 N 
ATOM     12  C   UNL     1       0.898  11.231  20.217  0.00  0.00    +0.000 C 
ATOM     13  C   UNL     1      -0.175  12.299  20.566  0.00  0.00    +0.000 C 
BRANCH   8  14
ATOM     14  C   UNL     1      -0.329  13.510  18.464  0.00  0.00    +0.000 C 
BRANCH  14  18
ATOM     15  C   UNL     1       1.627  16.223  19.826  0.00  0.00    +0.000 A 
ATOM     16  C   UNL     1       0.424  16.905  19.787  0.00  0.00    +0.000 A 
ATOM     17  C   UNL     1      -0.522  16.036  19.196  0.00  0.00    +0.000 A 
ATOM     18  C   UNL     1       0.135  14.850  18.945  0.00  0.00    +0.000 A 
ATOM     19  O   UNL     1       1.447  14.960  19.318  0.00  0.00    +0.000 OA
BRANCH  15  20
ATOM     20  C   UNL     1       2.928  16.666  20.270  0.00  0.00    +0.000 C 
ATOM     21  O   UNL     1       3.382  16.490  21.395  0.00  0.00    +0.000 OA
BRANCH  20  22
ATOM     22  O   UNL     1       3.555  17.369  19.283  0.00  0.00    +0.000 OA
BRANCH  22  24
ATOM     23  C   UNL     1       5.395  15.964  18.682  0.00  0.00    +0.000 C 
ATOM     24  C   UNL     1       4.092  16.583  18.211  0.00  0.00    +0.000 C 
ENDBRANCH  22  24
ENDBRANCH  20  22
ENDBRANCH  15  20
ENDBRANCH  14  18
ENDBRANCH   8  14
ENDBRANCH   1  11
BRANCH   4  25
ATOM     25  N   UNL     1       4.030   5.876  18.397  0.00  0.00    +0.000 N 
ATOM     26  C   UNL     1       5.392   6.108  18.026  0.00  0.00    +0.000 C 
ATOM     27  C   UNL     1       6.015   4.736  18.187  0.00  0.00    +0.000 C 
ATOM     28  O   UNL     1       4.908   3.829  18.059  0.00  0.00    +0.000 OA
ATOM     29  C   UNL     1       3.757   4.517  18.351  0.00  0.00    +0.000 C 
ATOM     30  O   UNL     1       2.689   3.945  18.484  0.00  0.00    +0.000 OA
BRANCH  27  31
ATOM     31  C   UNL     1       7.061   4.445  17.111  0.00  0.00    +0.000 C 
BRANCH  31  32
ATOM     32  N   UNL     1       6.476   3.934  15.882  0.00  0.00    +0.000 N 
ATOM     33  C   UNL     1       6.817   4.455  14.654  0.00  0.00    +0.000 C 
ATOM     34  C   UNL     1       6.161   3.766  13.484  0.00  0.00    +0.000 C 
ATOM     35  O   UNL     1       7.575   5.404  14.518  0.00  0.00    +0.000 OA
ATOM     36  H   UNL     1       5.989   3.047  15.924  0.00  0.00    +0.000 HD
ENDBRANCH  31  32
ENDBRANCH  27  31
ENDBRANCH   4  25
TORSDOF 9
ENDMDL
MODEL 4
REMARK VINA RESULT:      -7.7      3.026      4.042
REMARK  Name = 
REMARK  11 active torsions:
REMARK  status: ('A' for Active; 'I' for Inactive)
REMARK    1  A    between atoms: C_1  and  C_2
REMARK    2  A    between atoms: C_2  and  O_3
REMARK    3  A    between atoms: O_3  and  C_4
REMARK    4  A    between atoms: C_4  and  C_6
REMARK    5  A    between atoms: C_9  and  C_10
REMARK    6  A    between atoms: C_10  and  N_11
REMARK    7  A    between atoms: N_14  and  C_15
REMARK    8  A    between atoms: C_18  and  N_19
REMARK    9  A    between atoms: C_21  and  C_22
REMARK   10  A    between atoms: C_22  and  N_23
REMARK   11  A    between atoms: C_24  and  C_25
REMARK                            x       y       z     vdW  Elec       q    Type
REMARK                         _______ _______ _______ _____ _____    ______ ____
ROOT
ATOM      1  C   UNL     1       1.137   9.463  19.217  0.00  0.00    +0.000 A 
ATOM      2  C   UNL     1       1.674   9.246  17.940  0.00  0.00    +0.000 A 
ATOM      3  C   UNL     1       2.469   8.127  17.640  0.00  0.00    +0.000 A 
ATOM      4  C   UNL     1       2.736   7.148  18.598  0.00  0.00    +0.000 A 
ATOM      5  C   UNL     1       2.195   7.329  19.871  0.00  0.00    +0.000 A 
ATOM      6  C   UNL     1       1.432   8.467  20.170  0.00  0.00    +0.000 A 
ATOM      7  F   UNL     1       0.974   8.558  21.430  0.00  0.00    +0.000 F 
ENDROOT
BRANCH   1  11
ATOM      8  N   UNL     1      -1.105  12.899  20.709  0.00  0.00    +0.000 NA
ATOM      9  C   UNL     1       0.306  13.018  20.272  0.00  0.00    +0.000 C 
ATOM     10  C   UNL     1       1.106  11.696  20.276  0.00  0.00    +0.000 C 
ATOM     11  N   UNL     1       0.429  10.650  19.480  0.00  0.00    +0.000 N 
ATOM     12  C   UNL     1      -1.030  10.519  19.704  0.00  0.00    +0.000 C 
ATOM     13  C   UNL     1      -1.740  11.896  19.819  0.00  0.00    +0.000 C 
BRANCH   8  14
ATOM     14  C   UNL     1      -1.235  12.491  22.120  0.00  0.00    +0.000 C 
BRANCH  14  18
ATOM     15  C   UNL     1      -1.497  15.065  24.640  0.00  0.00    +0.000 A 
ATOM     16  C   UNL     1      -2.854  14.937  24.409  0.00  0.00    +0.000 A 
ATOM     17  C   UNL     1      -3.007  13.998  23.362  0.00  0.00    +0.000 A 
ATOM     18  C   UNL     1      -1.739  13.563  23.036  0.00  0.00    +0.000 A 
ATOM     19  O   UNL     1      -0.814  14.216  23.804  0.00  0.00    +0.000 OA
BRANCH  15  20
ATOM     20  C   UNL     1      -0.791  15.934  25.553  0.00  0.00    +0.000 C 
ATOM     21  O   UNL     1      -1.105  16.125  26.723  0.00  0.00    +0.000 OA
BRANCH  20  22
ATOM     22  O   UNL     1       0.235  16.566  24.913  0.00  0.00    +0.000 OA
BRANCH  22  24
ATOM     23  C   UNL     1       0.697  17.553  22.785  0.00  0.00    +0.000 C 
ATOM     24  C   UNL     1      -0.147  17.639  24.043  0.00  0.00    +0.000 C 
ENDBRANCH  22  24
ENDBRANCH  20  22
ENDBRANCH  15  20
ENDBRANCH  14  18
ENDBRANCH   8  14
ENDBRANCH   1  11
BRANCH   4  25
ATOM     25  N   UNL     1       3.514   6.004  18.288  0.00  0.00    +0.000 N 
ATOM     26  C   UNL     1       4.944   5.994  18.277  0.00  0.00    +0.000 C 
ATOM     27  C   UNL     1       5.264   4.513  18.238  0.00  0.00    +0.000 C 
ATOM     28  O   UNL     1       4.087   3.913  17.672  0.00  0.00    +0.000 OA
ATOM     29  C   UNL     1       3.034   4.772  17.868  0.00  0.00    +0.000 C 
ATOM     30  O   UNL     1       1.886   4.436  17.636  0.00  0.00    +0.000 OA
BRANCH  27  31
ATOM     31  C   UNL     1       6.482   4.205  17.369  0.00  0.00    +0.000 C 
BRANCH  31  32
ATOM     32  N   UNL     1       6.122   3.813  16.017  0.00  0.00    +0.000 N 
ATOM     33  C   UNL     1       6.620   4.480  14.919  0.00  0.00    +0.000 C 
ATOM     34  C   UNL     1       6.190   3.900  13.595  0.00  0.00    +0.000 C 
ATOM     35  O   UNL     1       7.337   5.465  15.005  0.00  0.00    +0.000 OA
ATOM     36  H   UNL     1       5.685   2.908  15.888  0.00  0.00    +0.000 HD
ENDBRANCH  31  32
ENDBRANCH  27  31
ENDBRANCH   4  25
TORSDOF 9
ENDMDL
MODEL 5
REMARK VINA RESULT:      -7.6      1.210      1.523
REMARK  Name = 
REMARK  11 active torsions:
REMARK  status: ('A' for Active; 'I' for Inactive)
REMARK    1  A    between atoms: C_1  and  C_2
REMARK    2  A    between atoms: C_2  and  O_3
REMARK    3  A    between atoms: O_3  and  C_4
REMARK    4  A    between atoms: C_4  and  C_6
REMARK    5  A    between atoms: C_9  and  C_10
REMARK    6  A    between atoms: C_10  and  N_11
REMARK    7  A    between atoms: N_14  and  C_15
REMARK    8  A    between atoms: C_18  and  N_19
REMARK    9  A    between atoms: C_21  and  C_22
REMARK   10  A    between atoms: C_22  and  N_23
REMARK   11  A    between atoms: C_24  and  C_25
REMARK                            x       y       z     vdW  Elec       q    Type
REMARK                         _______ _______ _______ _____ _____    ______ ____
ROOT
ATOM      1  C   UNL     1       1.265   9.220  19.492  0.00  0.00    +0.000 A 
ATOM      2  C   UNL     1       1.821   9.170  18.206  0.00  0.00    +0.000 A 
ATOM      3  C   UNL     1       2.613   8.094  17.771  0.00  0.00    +0.000 A 
ATOM      4  C   UNL     1       2.858   6.993  18.593  0.00  0.00    +0.000 A 
ATOM      5  C   UNL     1       2.296   7.008  19.871  0.00  0.00    +0.000 A 
ATOM      6  C   UNL     1       1.537   8.102  20.308  0.00  0.00    +0.000 A 
ATOM      7  F   UNL     1       1.059   8.028  21.561  0.00  0.00    +0.000 F 
ENDROOT
BRANCH   1  11
ATOM      8  N   UNL     1      -0.266  13.073  20.856  0.00  0.00    +0.000 NA
ATOM      9  C   UNL     1      -0.447  12.612  19.460  0.00  0.00    +0.000 C 
ATOM     10  C   UNL     1       0.557  11.534  18.992  0.00  0.00    +0.000 C 
ATOM     11  N   UNL     1       0.561  10.367  19.901  0.00  0.00    +0.000 N 
ATOM     12  C   UNL     1       0.585  10.683  21.348  0.00  0.00    +0.000 C 
ATOM     13  C   UNL     1      -0.353  11.866  21.714  0.00  0.00    +0.000 C 
BRANCH   8  14
ATOM     14  C   UNL     1       1.017  13.766  21.070  0.00  0.00    +0.000 C 
BRANCH  14  18
ATOM     15  C   UNL     1       2.155  16.401  18.878  0.00  0.00    +0.000 A 
ATOM     16  C   UNL     1       1.235  17.165  19.572  0.00  0.00    +0.000 A 
ATOM     17  C   UNL     1       0.578  16.298  20.476  0.00  0.00    +0.000 A 
ATOM     18  C   UNL     1       1.161  15.057  20.325  0.00  0.00    +0.000 A 
ATOM     19  O   UNL     1       2.116  15.111  19.346  0.00  0.00    +0.000 OA
BRANCH  15  20
ATOM     20  C   UNL     1       3.040  16.773  17.799  0.00  0.00    +0.000 C 
ATOM     21  O   UNL     1       2.715  17.445  16.826  0.00  0.00    +0.000 OA
BRANCH  20  22
ATOM     22  O   UNL     1       4.272  16.215  17.978  0.00  0.00    +0.000 OA
BRANCH  22  24
ATOM     23  C   UNL     1       5.604  15.673  19.888  0.00  0.00    +0.000 C 
ATOM     24  C   UNL     1       5.068  16.796  19.019  0.00  0.00    +0.000 C 
ENDBRANCH  22  24
ENDBRANCH  20  22
ENDBRANCH  15  20
ENDBRANCH  14  18
ENDBRANCH   8  14
ENDBRANCH   1  11
BRANCH   4  25
ATOM     25  N   UNL     1       3.632   5.894  18.145  0.00  0.00    +0.000 N 
ATOM     26  C   UNL     1       5.061   5.905  18.072  0.00  0.00    +0.000 C 
ATOM     27  C   UNL     1       5.393   4.439  17.882  0.00  0.00    +0.000 C 
ATOM     28  O   UNL     1       4.198   3.878  17.313  0.00  0.00    +0.000 OA
ATOM     29  C   UNL     1       3.147   4.700  17.634  0.00  0.00    +0.000 C 
ATOM     30  O   UNL     1       1.992   4.371  17.420  0.00  0.00    +0.000 OA
BRANCH  27  31
ATOM     31  C   UNL     1       6.574   4.230  16.936  0.00  0.00    +0.000 C 
BRANCH  31  32
ATOM     32  N   UNL     1       6.174   3.695  15.646  0.00  0.00    +0.000 N 
ATOM     33  C   UNL     1       6.440   4.370  14.475  0.00  0.00    +0.000 C 
ATOM     34  C   UNL     1       6.007   3.641  13.227  0.00  0.00    +0.000 C 
ATOM     35  O   UNL     1       6.968   5.471  14.444  0.00  0.00    +0.000 OA
ATOM     36  H   UNL     1       5.900   2.720  15.602  0.00  0.00    +0.000 HD
ENDBRANCH  31  32
ENDBRANCH  27  31
ENDBRANCH   4  25
TORSDOF 9
ENDMDL
MODEL 6
REMARK VINA RESULT:      -7.6      3.260      5.459
REMARK  Name = 
REMARK  11 active torsions:
REMARK  status: ('A' for Active; 'I' for Inactive)
REMARK    1  A    between atoms: C_1  and  C_2
REMARK    2  A    between atoms: C_2  and  O_3
REMARK    3  A    between atoms: O_3  and  C_4
REMARK    4  A    between atoms: C_4  and  C_6
REMARK    5  A    between atoms: C_9  and  C_10
REMARK    6  A    between atoms: C_10  and  N_11
REMARK    7  A    between atoms: N_14  and  C_15
REMARK    8  A    between atoms: C_18  and  N_19
REMARK    9  A    between atoms: C_21  and  C_22
REMARK   10  A    between atoms: C_22  and  N_23
REMARK   11  A    between atoms: C_24  and  C_25
REMARK                            x       y       z     vdW  Elec       q    Type
REMARK                         _______ _______ _______ _____ _____    ______ ____
ROOT
ATOM      1  C   UNL     1       1.530   9.070  19.635  0.00  0.00    +0.000 A 
ATOM      2  C   UNL     1       1.831   7.913  20.369  0.00  0.00    +0.000 A 
ATOM      3  C   UNL     1       2.540   6.834  19.813  0.00  0.00    +0.000 A 
ATOM      4  C   UNL     1       3.015   6.876  18.501  0.00  0.00    +0.000 A 
ATOM      5  C   UNL     1       2.748   8.025  17.757  0.00  0.00    +0.000 A 
ATOM      6  C   UNL     1       2.009   9.082  18.309  0.00  0.00    +0.000 A 
ATOM      7  F   UNL     1       1.788  10.133  17.503  0.00  0.00    +0.000 F 
ENDROOT
BRANCH   1  11
ATOM      8  N   UNL     1      -1.172  12.305  20.770  0.00  0.00    +0.000 NA
ATOM      9  C   UNL     1      -1.414  10.904  21.187  0.00  0.00    +0.000 C 
ATOM     10  C   UNL     1      -0.719   9.833  20.315  0.00  0.00    +0.000 C 
ATOM     11  N   UNL     1       0.736  10.074  20.217  0.00  0.00    +0.000 N 
ATOM     12  C   UNL     1       1.136  11.476  19.952  0.00  0.00    +0.000 C 
ATOM     13  C   UNL     1       0.299  12.497  20.771  0.00  0.00    +0.000 C 
BRANCH   8  14
ATOM     14  C   UNL     1      -1.731  12.612  19.441  0.00  0.00    +0.000 C 
BRANCH  14  18
ATOM     15  C   UNL     1      -5.267  12.216  20.057  0.00  0.00    +0.000 A 
ATOM     16  C   UNL     1      -5.254  11.585  18.827  0.00  0.00    +0.000 A 
ATOM     17  C   UNL     1      -3.933  11.683  18.328  0.00  0.00    +0.000 A 
ATOM     18  C   UNL     1      -3.193  12.327  19.298  0.00  0.00    +0.000 A 
ATOM     19  O   UNL     1      -4.002  12.663  20.349  0.00  0.00    +0.000 OA
BRANCH  15  20
ATOM     20  C   UNL     1      -6.368  12.459  20.960  0.00  0.00    +0.000 C 
ATOM     21  O   UNL     1      -6.787  13.569  21.271  0.00  0.00    +0.000 OA
BRANCH  20  22
ATOM     22  O   UNL     1      -6.833  11.284  21.473  0.00  0.00    +0.000 OA
BRANCH  22  24
ATOM     23  C   UNL     1      -7.709   9.176  20.760  0.00  0.00    +0.000 C 
ATOM     24  C   UNL     1      -7.914  10.680  20.752  0.00  0.00    +0.000 C 
ENDBRANCH  22  24
ENDBRANCH  20  22
ENDBRANCH  15  20
ENDBRANCH  14  18
ENDBRANCH   8  14
ENDBRANCH   1  11
BRANCH   4  25
ATOM     25  N   UNL     1       3.755   5.800  17.950  0.00  0.00    +0.000 N 
ATOM     26  C   UNL     1       5.171   5.827  17.751  0.00  0.00    +0.000 C 
ATOM     27  C   UNL     1       5.495   4.371  17.483  0.00  0.00    +0.000 C 
ATOM     28  O   UNL     1       4.258   3.818  17.002  0.00  0.00    +0.000 OA
ATOM     29  C   UNL     1       3.234   4.619  17.442  0.00  0.00    +0.000 C 
ATOM     30  O   UNL     1       2.067   4.286  17.320  0.00  0.00    +0.000 OA
BRANCH  27  31
ATOM     31  C   UNL     1       6.589   4.205  16.430  0.00  0.00    +0.000 C 
BRANCH  31  32
ATOM     32  N   UNL     1       6.082   3.695  15.167  0.00  0.00    +0.000 N 
ATOM     33  C   UNL     1       6.484   4.229  13.963  0.00  0.00    +0.000 C 
ATOM     34  C   UNL     1       5.904   3.539  12.754  0.00  0.00    +0.000 C 
ATOM     35  O   UNL     1       7.235   5.189  13.876  0.00  0.00    +0.000 OA
ATOM     36  H   UNL     1       5.606   2.800  15.176  0.00  0.00    +0.000 HD
ENDBRANCH  31  32
ENDBRANCH  27  31
ENDBRANCH   4  25
TORSDOF 9
ENDMDL
MODEL 7
REMARK VINA RESULT:      -7.5      2.169      3.611
REMARK  Name = 
REMARK  11 active torsions:
REMARK  status: ('A' for Active; 'I' for Inactive)
REMARK    1  A    between atoms: C_1  and  C_2
REMARK    2  A    between atoms: C_2  and  O_3
REMARK    3  A    between atoms: O_3  and  C_4
REMARK    4  A    between atoms: C_4  and  C_6
REMARK    5  A    between atoms: C_9  and  C_10
REMARK    6  A    between atoms: C_10  and  N_11
REMARK    7  A    between atoms: N_14  and  C_15
REMARK    8  A    between atoms: C_18  and  N_19
REMARK    9  A    between atoms: C_21  and  C_22
REMARK   10  A    between atoms: C_22  and  N_23
REMARK   11  A    between atoms: C_24  and  C_25
REMARK                            x       y       z     vdW  Elec       q    Type
REMARK                         _______ _______ _______ _____ _____    ______ ____
ROOT
ATOM      1  C   UNL     1       1.102   9.307  19.468  0.00  0.00    +0.000 A 
ATOM      2  C   UNL     1       1.685   9.217  18.196  0.00  0.00    +0.000 A 
ATOM      3  C   UNL     1       2.506   8.140  17.821  0.00  0.00    +0.000 A 
ATOM      4  C   UNL     1       2.754   7.078  18.692  0.00  0.00    +0.000 A 
ATOM      5  C   UNL     1       2.167   7.133  19.956  0.00  0.00    +0.000 A 
ATOM      6  C   UNL     1       1.378   8.230  20.334  0.00  0.00    +0.000 A 
ATOM      7  F   UNL     1       0.877   8.196  21.579  0.00  0.00    +0.000 F 
ENDROOT
BRANCH   1  11
ATOM      8  N   UNL     1      -0.709  13.225  20.121  0.00  0.00    +0.000 NA
ATOM      9  C   UNL     1      -1.413  12.155  19.376  0.00  0.00    +0.000 C 
ATOM     10  C   UNL     1      -0.497  11.062  18.781  0.00  0.00    +0.000 C 
ATOM     11  N   UNL     1       0.368  10.456  19.815  0.00  0.00    +0.000 N 
ATOM     12  C   UNL     1       1.024  11.410  20.740  0.00  0.00    +0.000 C 
ATOM     13  C   UNL     1       0.072  12.553  21.188  0.00  0.00    +0.000 C 
BRANCH   8  14
ATOM     14  C   UNL     1       0.177  14.032  19.263  0.00  0.00    +0.000 C 
BRANCH  14  18
ATOM     15  C   UNL     1      -1.590  17.176  19.445  0.00  0.00    +0.000 A 
ATOM     16  C   UNL     1      -0.619  17.597  18.557  0.00  0.00    +0.000 A 
ATOM     17  C   UNL     1       0.275  16.515  18.380  0.00  0.00    +0.000 A 
ATOM     18  C   UNL     1      -0.220  15.470  19.132  0.00  0.00    +0.000 A 
ATOM     19  O   UNL     1      -1.351  15.869  19.791  0.00  0.00    +0.000 OA
BRANCH  15  20
ATOM     20  C   UNL     1      -2.700  17.903  20.016  0.00  0.00    +0.000 C 
ATOM     21  O   UNL     1      -2.642  18.584  21.035  0.00  0.00    +0.000 OA
BRANCH  20  22
ATOM     22  O   UNL     1      -3.840  17.673  19.302  0.00  0.00    +0.000 OA
BRANCH  22  24
ATOM     23  C   UNL     1      -4.843  15.898  20.551  0.00  0.00    +0.000 C 
ATOM     24  C   UNL     1      -4.996  17.332  20.078  0.00  0.00    +0.000 C 
ENDBRANCH  22  24
ENDBRANCH  20  22
ENDBRANCH  15  20
ENDBRANCH  14  18
ENDBRANCH   8  14
ENDBRANCH   1  11
BRANCH   4  25
ATOM     25  N   UNL     1       3.559   5.978  18.304  0.00  0.00    +0.000 N 
ATOM     26  C   UNL     1       4.988   6.010  18.270  0.00  0.00    +0.000 C 
ATOM     27  C   UNL     1       5.349   4.544  18.141  0.00  0.00    +0.000 C 
ATOM     28  O   UNL     1       4.180   3.943  17.559  0.00  0.00    +0.000 OA
ATOM     29  C   UNL     1       3.107   4.758  17.822  0.00  0.00    +0.000 C 
ATOM     30  O   UNL     1       1.964   4.403  17.588  0.00  0.00    +0.000 OA
BRANCH  27  31
ATOM     31  C   UNL     1       6.560   4.322  17.236  0.00  0.00    +0.000 C 
BRANCH  31  32
ATOM     32  N   UNL     1       6.191   3.882  15.901  0.00  0.00    +0.000 N 
ATOM     33  C   UNL     1       6.735   4.463  14.778  0.00  0.00    +0.000 C 
ATOM     34  C   UNL     1       6.286   3.842  13.479  0.00  0.00    +0.000 C 
ATOM     35  O   UNL     1       7.506   5.410  14.822  0.00  0.00    +0.000 OA
ATOM     36  H   UNL     1       5.705   2.997  15.813  0.00  0.00    +0.000 HD
ENDBRANCH  31  32
ENDBRANCH  27  31
ENDBRANCH   4  25
TORSDOF 9
ENDMDL
MODEL 8
REMARK VINA RESULT:      -7.5      3.806      6.082
REMARK  Name = 
REMARK  11 active torsions:
REMARK  status: ('A' for Active; 'I' for Inactive)
REMARK    1  A    between atoms: C_1  and  C_2
REMARK    2  A    between atoms: C_2  and  O_3
REMARK    3  A    between atoms: O_3  and  C_4
REMARK    4  A    between atoms: C_4  and  C_6
REMARK    5  A    between atoms: C_9  and  C_10
REMARK    6  A    between atoms: C_10  and  N_11
REMARK    7  A    between atoms: N_14  and  C_15
REMARK    8  A    between atoms: C_18  and  N_19
REMARK    9  A    between atoms: C_21  and  C_22
REMARK   10  A    between atoms: C_22  and  N_23
REMARK   11  A    between atoms: C_24  and  C_25
REMARK                            x       y       z     vdW  Elec       q    Type
REMARK                         _______ _______ _______ _____ _____    ______ ____
ROOT
ATOM      1  C   UNL     1       1.144   9.966  19.205  0.00  0.00    +0.000 A 
ATOM      2  C   UNL     1       1.545   9.651  17.899  0.00  0.00    +0.000 A 
ATOM      3  C   UNL     1       2.103   8.405  17.565  0.00  0.00    +0.000 A 
ATOM      4  C   UNL     1       2.254   7.397  18.518  0.00  0.00    +0.000 A 
ATOM      5  C   UNL     1       1.842   7.678  19.821  0.00  0.00    +0.000 A 
ATOM      6  C   UNL     1       1.319   8.937  20.153  0.00  0.00    +0.000 A 
ATOM      7  F   UNL     1       0.973   9.113  21.438  0.00  0.00    +0.000 F 
ENDROOT
BRANCH   1  11
ATOM      8  N   UNL     1      -0.268  13.778  20.796  0.00  0.00    +0.000 NA
ATOM      9  C   UNL     1       1.058  13.647  20.148  0.00  0.00    +0.000 C 
ATOM     10  C   UNL     1       1.630  12.211  20.116  0.00  0.00    +0.000 C 
ATOM     11  N   UNL     1       0.681  11.263  19.496  0.00  0.00    +0.000 N 
ATOM     12  C   UNL     1      -0.726  11.382  19.941  0.00  0.00    +0.000 C 
ATOM     13  C   UNL     1      -1.184  12.861  20.074  0.00  0.00    +0.000 C 
BRANCH   8  14
ATOM     14  C   UNL     1      -0.239  13.451  22.234  0.00  0.00    +0.000 C 
BRANCH  14  18
ATOM     15  C   UNL     1      -3.511  13.413  23.759  0.00  0.00    +0.000 A 
ATOM     16  C   UNL     1      -3.266  14.759  23.954  0.00  0.00    +0.000 A 
ATOM     17  C   UNL     1      -1.956  15.012  23.486  0.00  0.00    +0.000 A 
ATOM     18  C   UNL     1      -1.481  13.818  22.983  0.00  0.00    +0.000 A 
ATOM     19  O   UNL     1      -2.420  12.838  23.155  0.00  0.00    +0.000 OA
BRANCH  15  20
ATOM     20  C   UNL     1      -4.665  12.621  24.117  0.00  0.00    +0.000 C 
ATOM     21  O   UNL     1      -4.781  11.981  25.156  0.00  0.00    +0.000 OA
BRANCH  20  22
ATOM     22  O   UNL     1      -5.581  12.628  23.106  0.00  0.00    +0.000 OA
BRANCH  22  24
ATOM     23  C   UNL     1      -7.587  13.453  24.114  0.00  0.00    +0.000 C 
ATOM     24  C   UNL     1      -6.490  13.737  23.104  0.00  0.00    +0.000 C 
ENDBRANCH  22  24
ENDBRANCH  20  22
ENDBRANCH  15  20
ENDBRANCH  14  18
ENDBRANCH   8  14
ENDBRANCH   1  11
BRANCH   4  25
ATOM     25  N   UNL     1       2.790   6.131  18.176  0.00  0.00    +0.000 N 
ATOM     26  C   UNL     1       2.023   4.924  18.143  0.00  0.00    +0.000 C 
ATOM     27  C   UNL     1       2.940   3.969  17.406  0.00  0.00    +0.000 C 
ATOM     28  O   UNL     1       4.254   4.512  17.614  0.00  0.00    +0.000 OA
ATOM     29  C   UNL     1       4.122   5.845  17.915  0.00  0.00    +0.000 C 
ATOM     30  O   UNL     1       5.089   6.585  17.971  0.00  0.00    +0.000 OA
BRANCH  27  31
ATOM     31  C   UNL     1       2.864   2.548  17.961  0.00  0.00    +0.000 C 
BRANCH  31  32
ATOM     32  N   UNL     1       2.102   2.467  19.196  0.00  0.00    +0.000 N 
ATOM     33  C   UNL     1       2.719   2.520  20.426  0.00  0.00    +0.000 C 
ATOM     34  C   UNL     1       1.770   2.482  21.598  0.00  0.00    +0.000 C 
ATOM     35  O   UNL     1       3.931   2.579  20.563  0.00  0.00    +0.000 OA
ATOM     36  H   UNL     1       1.098   2.597  19.141  0.00  0.00    +0.000 HD
ENDBRANCH  31  32
ENDBRANCH  27  31
ENDBRANCH   4  25
TORSDOF 9
ENDMDL
MODEL 9
REMARK VINA RESULT:      -7.4      2.087     10.235
REMARK  Name = 
REMARK  11 active torsions:
REMARK  status: ('A' for Active; 'I' for Inactive)
REMARK    1  A    between atoms: C_1  and  C_2
REMARK    2  A    between atoms: C_2  and  O_3
REMARK    3  A    between atoms: O_3  and  C_4
REMARK    4  A    between atoms: C_4  and  C_6
REMARK    5  A    between atoms: C_9  and  C_10
REMARK    6  A    between atoms: C_10  and  N_11
REMARK    7  A    between atoms: N_14  and  C_15
REMARK    8  A    between atoms: C_18  and  N_19
REMARK    9  A    between atoms: C_21  and  C_22
REMARK   10  A    between atoms: C_22  and  N_23
REMARK   11  A    between atoms: C_24  and  C_25
REMARK                            x       y       z     vdW  Elec       q    Type
REMARK                         _______ _______ _______ _____ _____    ______ ____
ROOT
ATOM      1  C   UNL     1       2.046   7.569  19.054  0.00  0.00    +0.000 A 
ATOM      2  C   UNL     1       2.167   8.399  17.930  0.00  0.00    +0.000 A 
ATOM      3  C   UNL     1       1.702   9.726  17.923  0.00  0.00    +0.000 A 
ATOM      4  C   UNL     1       1.124  10.299  19.056  0.00  0.00    +0.000 A 
ATOM      5  C   UNL     1       1.012   9.500  20.194  0.00  0.00    +0.000 A 
ATOM      6  C   UNL     1       1.446   8.167  20.181  0.00  0.00    +0.000 A 
ATOM      7  F   UNL     1       1.274   7.477  21.321  0.00  0.00    +0.000 F 
ENDROOT
BRANCH   1  11
ATOM      8  N   UNL     1       3.950   3.645  18.882  0.00  0.00    +0.000 NA
ATOM      9  C   UNL     1       3.063   4.033  20.004  0.00  0.00    +0.000 C 
ATOM     10  C   UNL     1       2.896   5.556  20.208  0.00  0.00    +0.000 C 
ATOM     11  N   UNL     1       2.444   6.222  18.968  0.00  0.00    +0.000 N 
ATOM     12  C   UNL     1       3.146   5.814  17.729  0.00  0.00    +0.000 C 
ATOM     13  C   UNL     1       3.392   4.281  17.664  0.00  0.00    +0.000 C 
BRANCH   8  14
ATOM     14  C   UNL     1       5.349   4.061  19.087  0.00  0.00    +0.000 C 
BRANCH  14  18
ATOM     15  C   UNL     1       6.715   5.220  15.952  0.00  0.00    +0.000 A 
ATOM     16  C   UNL     1       6.960   6.380  16.664  0.00  0.00    +0.000 A 
ATOM     17  C   UNL     1       6.422   6.189  17.958  0.00  0.00    +0.000 A 
ATOM     18  C   UNL     1       5.917   4.905  17.989  0.00  0.00    +0.000 A 
ATOM     19  O   UNL     1       6.084   4.313  16.767  0.00  0.00    +0.000 OA
BRANCH  15  20
ATOM     20  C   UNL     1       6.995   4.906  14.570  0.00  0.00    +0.000 C 
ATOM     21  O   UNL     1       7.923   5.376  13.919  0.00  0.00    +0.000 OA
BRANCH  20  22
ATOM     22  O   UNL     1       6.045   4.066  14.068  0.00  0.00    +0.000 OA
BRANCH  22  24
ATOM     23  C   UNL     1       4.995   3.371  12.036  0.00  0.00    +0.000 C 
ATOM     24  C   UNL     1       6.316   3.534  12.766  0.00  0.00    +0.000 C 
ENDBRANCH  22  24
ENDBRANCH  20  22
ENDBRANCH  15  20
ENDBRANCH  14  18
ENDBRANCH   8  14
ENDBRANCH   1  11
BRANCH   4  25
ATOM     25  N   UNL     1       0.681  11.645  19.058  0.00  0.00    +0.000 N 
ATOM     26  C   UNL     1       1.561  12.773  19.048  0.00  0.00    +0.000 C 
ATOM     27  C   UNL     1       0.627  13.917  18.708  0.00  0.00    +0.000 C 
ATOM     28  O   UNL     1      -0.668  13.450  19.121  0.00  0.00    +0.000 OA
ATOM     29  C   UNL     1      -0.633  12.078  19.160  0.00  0.00    +0.000 C 
ATOM     30  O   UNL     1      -1.647  11.420  19.316  0.00  0.00    +0.000 OA
BRANCH  27  31
ATOM     31  C   UNL     1       0.987  15.200  19.456  0.00  0.00    +0.000 C 
BRANCH  31  32
ATOM     32  N   UNL     1       0.655  16.400  18.706  0.00  0.00    +0.000 N 
ATOM     33  C   UNL     1       1.618  17.105  18.018  0.00  0.00    +0.000 C 
ATOM     34  C   UNL     1       1.087  18.288  17.248  0.00  0.00    +0.000 C 
ATOM     35  O   UNL     1       2.804  16.811  18.038  0.00  0.00    +0.000 OA
ATOM     36  H   UNL     1      -0.322  16.581  18.512  0.00  0.00    +0.000 HD
ENDBRANCH  31  32
ENDBRANCH  27  31
ENDBRANCH   4  25
TORSDOF 9
ENDMDL
