MODEL 1
REMARK VINA RESULT:      -7.1      0.000      0.000
REMARK  Name = 
REMARK  7 active torsions:
REMARK  status: ('A' for Active; 'I' for Inactive)
REMARK    1  A    between atoms: C_1  and  C_2
REMARK    2  A    between atoms: C_2  and  C_3
REMARK    3  A    between atoms: C_2  and  O_4
REMARK    4  A    between atoms: O_4  and  C_5
REMARK    5  A    between atoms: C_10  and  C_11
REMARK    6  A    between atoms: C_11  and  N_12
REMARK    7  A    between atoms: C_13  and  C_15
REMARK                            x       y       z     vdW  Elec       q    Type
REMARK                         _______ _______ _______ _____ _____    ______ ____
ROOT
ATOM      1  C   UNL     1       6.317   6.328  16.357  0.00  0.00    +0.000 A 
ATOM      2  N   UNL     1       7.316   5.822  15.600  0.00  0.00    +0.000 NA
ATOM      3  C   UNL     1       7.077   4.660  14.960  0.00  0.00    +0.000 A 
ATOM      4  C   UNL     1       5.867   3.993  15.011  0.00  0.00    +0.000 A 
ATOM      5  C   UNL     1       4.855   4.528  15.801  0.00  0.00    +0.000 A 
ATOM      6  C   UNL     1       5.083   5.703  16.529  0.00  0.00    +0.000 A 
ENDROOT
BRANCH   1   7
ATOM      7  O   UNL     1       6.557   7.497  17.047  0.00  0.00    +0.000 OA
BRANCH   7   9
ATOM      8  C   UNL     1       8.107   9.056  17.943  0.00  0.00    +0.000 C 
ATOM      9  C   UNL     1       7.876   7.584  17.608  0.00  0.00    +0.000 C 
ATOM     10  C   UNL     1       7.986   6.736  18.873  0.00  0.00    +0.000 C 
ENDBRANCH   7   9
ENDBRANCH   1   7
BRANCH   6  11
ATOM     11  C   UNL     1       4.045   6.208  17.489  0.00  0.00    +0.000 C 
BRANCH  11  12
ATOM     12  N   UNL     1       3.424   5.187  18.296  0.00  0.00    +0.000 N 
ATOM     13  C   UNL     1       2.707   5.556  19.418  0.00  0.00    +0.000 C 
ATOM     14  O   UNL     1       2.563   6.733  19.735  0.00  0.00    +0.000 OA
ATOM     15  H   UNL     1       3.577   4.203  18.117  0.00  0.00    +0.000 HD
BRANCH  13  16
ATOM     16  C   UNL     1       2.158   4.462  20.191  0.00  0.00    +0.000 A 
ATOM     17  C   UNL     1       1.067   3.649  19.936  0.00  0.00    +0.000 A 
ATOM     18  C   UNL     1       0.971   2.741  21.014  0.00  0.00    +0.000 A 
ATOM     19  C   UNL     1       2.007   3.050  21.864  0.00  0.00    +0.000 A 
ATOM     20  O   UNL     1       2.731   4.094  21.380  0.00  0.00    +0.000 OA
ENDBRANCH  13  16
ENDBRANCH  11  12
ENDBRANCH   6  11
TORSDOF 5
ENDMDL
MODEL 2
REMARK VINA RESULT:      -7.1      2.126      6.824
REMARK  Name = 
REMARK  7 active torsions:
REMARK  status: ('A' for Active; 'I' for Inactive)
REMARK    1  A    between atoms: C_1  and  C_2
REMARK    2  A    between atoms: C_2  and  C_3
REMARK    3  A    between atoms: C_2  and  O_4
REMARK    4  A    between atoms: O_4  and  C_5
REMARK    5  A    between atoms: C_10  and  C_11
REMARK    6  A    between atoms: C_11  and  N_12
REMARK    7  A    between atoms: C_13  and  C_15
REMARK                            x       y       z     vdW  Elec       q    Type
REMARK                         _______ _______ _______ _____ _____    ______ ____
ROOT
ATOM      1  C   UNL     1       3.521   5.198  18.991  0.00  0.00    +0.000 A 
ATOM      2  N   UNL     1       2.469   5.954  19.379  0.00  0.00    +0.000 NA
ATOM      3  C   UNL     1       2.354   7.180  18.830  0.00  0.00    +0.000 A 
ATOM      4  C   UNL     1       3.227   7.677  17.879  0.00  0.00    +0.000 A 
ATOM      5  C   UNL     1       4.306   6.885  17.500  0.00  0.00    +0.000 A 
ATOM      6  C   UNL     1       4.494   5.628  18.090  0.00  0.00    +0.000 A 
ENDROOT
BRANCH   1   7
ATOM      7  O   UNL     1       3.674   3.957  19.570  0.00  0.00    +0.000 OA
BRANCH   7   9
ATOM      8  C   UNL     1       3.194   1.830  18.630  0.00  0.00    +0.000 C 
ATOM      9  C   UNL     1       2.587   3.053  19.313  0.00  0.00    +0.000 C 
ATOM     10  C   UNL     1       1.904   2.641  20.615  0.00  0.00    +0.000 C 
ENDBRANCH   7   9
ENDBRANCH   1   7
BRANCH   6  11
ATOM     11  C   UNL     1       5.728   4.831  17.788  0.00  0.00    +0.000 C 
BRANCH  11  12
ATOM     12  N   UNL     1       5.874   4.448  16.406  0.00  0.00    +0.000 N 
ATOM     13  C   UNL     1       6.764   5.139  15.604  0.00  0.00    +0.000 C 
ATOM     14  O   UNL     1       7.453   6.054  16.043  0.00  0.00    +0.000 OA
ATOM     15  H   UNL     1       5.276   3.752  15.981  0.00  0.00    +0.000 HD
BRANCH  13  16
ATOM     16  C   UNL     1       6.810   4.715  14.220  0.00  0.00    +0.000 A 
ATOM     17  C   UNL     1       6.115   3.710  13.571  0.00  0.00    +0.000 A 
ATOM     18  C   UNL     1       6.537   3.723  12.223  0.00  0.00    +0.000 A 
ATOM     19  C   UNL     1       7.464   4.733  12.125  0.00  0.00    +0.000 A 
ATOM     20  O   UNL     1       7.644   5.340  13.329  0.00  0.00    +0.000 OA
ENDBRANCH  13  16
ENDBRANCH  11  12
ENDBRANCH   6  11
TORSDOF 5
ENDMDL
MODEL 3
REMARK VINA RESULT:      -7.0      1.638      3.211
REMARK  Name = 
REMARK  7 active torsions:
REMARK  status: ('A' for Active; 'I' for Inactive)
REMARK    1  A    between atoms: C_1  and  C_2
REMARK    2  A    between atoms: C_2  and  C_3
REMARK    3  A    between atoms: C_2  and  O_4
REMARK    4  A    between atoms: O_4  and  C_5
REMARK    5  A    between atoms: C_10  and  C_11
REMARK    6  A    between atoms: C_11  and  N_12
REMARK    7  A    between atoms: C_13  and  C_15
REMARK                            x       y       z     vdW  Elec       q    Type
REMARK                         _______ _______ _______ _____ _____    ______ ____
ROOT
ATOM      1  C   UNL     1       6.691   5.778  16.283  0.00  0.00    +0.000 A 
ATOM      2  N   UNL     1       7.499   6.832  16.536  0.00  0.00    +0.000 NA
ATOM      3  C   UNL     1       7.903   7.007  17.810  0.00  0.00    +0.000 A 
ATOM      4  C   UNL     1       7.565   6.154  18.844  0.00  0.00    +0.000 A 
ATOM      5  C   UNL     1       6.727   5.080  18.563  0.00  0.00    +0.000 A 
ATOM      6  C   UNL     1       6.237   4.896  17.263  0.00  0.00    +0.000 A 
ENDROOT
BRANCH   1   7
ATOM      7  O   UNL     1       6.239   5.605  14.992  0.00  0.00    +0.000 OA
BRANCH   7   9
ATOM      8  C   UNL     1       6.076   3.777  13.486  0.00  0.00    +0.000 C 
ATOM      9  C   UNL     1       7.044   4.716  14.204  0.00  0.00    +0.000 C 
ATOM     10  C   UNL     1       7.873   5.493  13.184  0.00  0.00    +0.000 C 
ENDBRANCH   7   9
ENDBRANCH   1   7
BRANCH   6  11
ATOM     11  C   UNL     1       5.226   3.824  16.983  0.00  0.00    +0.000 C 
BRANCH  11  12
ATOM     12  N   UNL     1       4.476   3.389  18.135  0.00  0.00    +0.000 N 
ATOM     13  C   UNL     1       3.230   3.938  18.378  0.00  0.00    +0.000 C 
ATOM     14  O   UNL     1       2.733   4.769  17.624  0.00  0.00    +0.000 OA
ATOM     15  H   UNL     1       4.875   2.763  18.823  0.00  0.00    +0.000 HD
BRANCH  13  16
ATOM     16  C   UNL     1       2.571   3.475  19.580  0.00  0.00    +0.000 A 
ATOM     17  C   UNL     1       1.242   3.557  19.957  0.00  0.00    +0.000 A 
ATOM     18  C   UNL     1       1.137   2.947  21.228  0.00  0.00    +0.000 A 
ATOM     19  C   UNL     1       2.404   2.527  21.553  0.00  0.00    +0.000 A 
ATOM     20  O   UNL     1       3.285   2.845  20.567  0.00  0.00    +0.000 OA
ENDBRANCH  13  16
ENDBRANCH  11  12
ENDBRANCH   6  11
TORSDOF 5
ENDMDL
MODEL 4
REMARK VINA RESULT:      -7.0      2.345      6.323
REMARK  Name = 
REMARK  7 active torsions:
REMARK  status: ('A' for Active; 'I' for Inactive)
REMARK    1  A    between atoms: C_1  and  C_2
REMARK    2  A    between atoms: C_2  and  C_3
REMARK    3  A    between atoms: C_2  and  O_4
REMARK    4  A    between atoms: O_4  and  C_5
REMARK    5  A    between atoms: C_10  and  C_11
REMARK    6  A    between atoms: C_11  and  N_12
REMARK    7  A    between atoms: C_13  and  C_15
REMARK                            x       y       z     vdW  Elec       q    Type
REMARK                         _______ _______ _______ _____ _____    ______ ____
ROOT
ATOM      1  C   UNL     1       2.921   4.507  19.115  0.00  0.00    +0.000 A 
ATOM      2  N   UNL     1       1.611   4.252  19.328  0.00  0.00    +0.000 NA
ATOM      3  C   UNL     1       1.199   2.977  19.185  0.00  0.00    +0.000 A 
ATOM      4  C   UNL     1       2.046   1.930  18.870  0.00  0.00    +0.000 A 
ATOM      5  C   UNL     1       3.389   2.216  18.648  0.00  0.00    +0.000 A 
ATOM      6  C   UNL     1       3.846   3.538  18.730  0.00  0.00    +0.000 A 
ENDROOT
BRANCH   1   7
ATOM      7  O   UNL     1       3.352   5.812  19.222  0.00  0.00    +0.000 OA
BRANCH   7   9
ATOM      8  C   UNL     1       2.229   7.869  18.839  0.00  0.00    +0.000 C 
ATOM      9  C   UNL     1       2.892   6.669  18.165  0.00  0.00    +0.000 C 
ATOM     10  C   UNL     1       4.058   7.133  17.296  0.00  0.00    +0.000 C 
ENDBRANCH   7   9
ENDBRANCH   1   7
BRANCH   6  11
ATOM     11  C   UNL     1       5.261   3.871  18.357  0.00  0.00    +0.000 C 
BRANCH  11  12
ATOM     12  N   UNL     1       5.520   3.889  16.938  0.00  0.00    +0.000 N 
ATOM     13  C   UNL     1       6.671   4.494  16.469  0.00  0.00    +0.000 C 
ATOM     14  O   UNL     1       7.493   4.996  17.230  0.00  0.00    +0.000 OA
ATOM     15  H   UNL     1       4.839   3.555  16.270  0.00  0.00    +0.000 HD
BRANCH  13  16
ATOM     16  C   UNL     1       6.826   4.503  15.030  0.00  0.00    +0.000 A 
ATOM     17  C   UNL     1       6.144   3.795  14.055  0.00  0.00    +0.000 A 
ATOM     18  C   UNL     1       6.691   4.181  12.810  0.00  0.00    +0.000 A 
ATOM     19  C   UNL     1       7.672   5.101  13.095  0.00  0.00    +0.000 A 
ATOM     20  O   UNL     1       7.768   5.302  14.436  0.00  0.00    +0.000 OA
ENDBRANCH  13  16
ENDBRANCH  11  12
ENDBRANCH   6  11
TORSDOF 5
ENDMDL
MODEL 5
REMARK VINA RESULT:      -6.8      1.965      2.948
REMARK  Name = 
REMARK  7 active torsions:
REMARK  status: ('A' for Active; 'I' for Inactive)
REMARK    1  A    between atoms: C_1  and  C_2
REMARK    2  A    between atoms: C_2  and  C_3
REMARK    3  A    between atoms: C_2  and  O_4
REMARK    4  A    between atoms: O_4  and  C_5
REMARK    5  A    between atoms: C_10  and  C_11
REMARK    6  A    between atoms: C_11  and  N_12
REMARK    7  A    between atoms: C_13  and  C_15
REMARK                            x       y       z     vdW  Elec       q    Type
REMARK                         _______ _______ _______ _____ _____    ______ ____
ROOT
ATOM      1  C   UNL     1       6.287   5.716  16.370  0.00  0.00    +0.000 A 
ATOM      2  N   UNL     1       7.262   5.723  15.435  0.00  0.00    +0.000 NA
ATOM      3  C   UNL     1       7.139   4.860  14.407  0.00  0.00    +0.000 A 
ATOM      4  C   UNL     1       6.062   4.007  14.250  0.00  0.00    +0.000 A 
ATOM      5  C   UNL     1       5.074   4.010  15.229  0.00  0.00    +0.000 A 
ATOM      6  C   UNL     1       5.193   4.851  16.343  0.00  0.00    +0.000 A 
ENDROOT
BRANCH   1   7
ATOM      7  O   UNL     1       6.416   6.567  17.447  0.00  0.00    +0.000 OA
BRANCH   7   9
ATOM      8  C   UNL     1       8.085   8.127  18.094  0.00  0.00    +0.000 C 
ATOM      9  C   UNL     1       7.748   6.642  17.977  0.00  0.00    +0.000 C 
ATOM     10  C   UNL     1       7.825   5.978  19.350  0.00  0.00    +0.000 C 
ENDBRANCH   7   9
ENDBRANCH   1   7
BRANCH   6  11
ATOM     11  C   UNL     1       4.203   4.760  17.467  0.00  0.00    +0.000 C 
BRANCH  11  12
ATOM     12  N   UNL     1       3.483   5.980  17.734  0.00  0.00    +0.000 N 
ATOM     13  C   UNL     1       3.065   6.249  19.024  0.00  0.00    +0.000 C 
ATOM     14  O   UNL     1       3.312   5.489  19.955  0.00  0.00    +0.000 OA
ATOM     15  H   UNL     1       3.193   6.599  16.989  0.00  0.00    +0.000 HD
BRANCH  13  16
ATOM     16  C   UNL     1       2.311   7.474  19.190  0.00  0.00    +0.000 A 
ATOM     17  C   UNL     1       1.688   7.993  20.311  0.00  0.00    +0.000 A 
ATOM     18  C   UNL     1       1.096   9.216  19.923  0.00  0.00    +0.000 A 
ATOM     19  C   UNL     1       1.392   9.374  18.590  0.00  0.00    +0.000 A 
ATOM     20  O   UNL     1       2.124   8.324  18.131  0.00  0.00    +0.000 OA
ENDBRANCH  13  16
ENDBRANCH  11  12
ENDBRANCH   6  11
TORSDOF 5
ENDMDL
MODEL 6
REMARK VINA RESULT:      -6.8      2.505      6.341
REMARK  Name = 
REMARK  7 active torsions:
REMARK  status: ('A' for Active; 'I' for Inactive)
REMARK    1  A    between atoms: C_1  and  C_2
REMARK    2  A    between atoms: C_2  and  C_3
REMARK    3  A    between atoms: C_2  and  O_4
REMARK    4  A    between atoms: O_4  and  C_5
REMARK    5  A    between atoms: C_10  and  C_11
REMARK    6  A    between atoms: C_11  and  N_12
REMARK    7  A    between atoms: C_13  and  C_15
REMARK                            x       y       z     vdW  Elec       q    Type
REMARK                         _______ _______ _______ _____ _____    ______ ____
ROOT
ATOM      1  C   UNL     1       2.929   4.334  17.939  0.00  0.00    +0.000 A 
ATOM      2  N   UNL     1       1.611   4.101  18.126  0.00  0.00    +0.000 NA
ATOM      3  C   UNL     1       1.269   2.957  18.752  0.00  0.00    +0.000 A 
ATOM      4  C   UNL     1       2.189   2.044  19.234  0.00  0.00    +0.000 A 
ATOM      5  C   UNL     1       3.540   2.300  19.025  0.00  0.00    +0.000 A 
ATOM      6  C   UNL     1       3.935   3.449  18.327  0.00  0.00    +0.000 A 
ENDROOT
BRANCH   1   7
ATOM      7  O   UNL     1       3.295   5.481  17.269  0.00  0.00    +0.000 OA
BRANCH   7   9
ATOM      8  C   UNL     1       4.827   7.277  17.519  0.00  0.00    +0.000 C 
ATOM      9  C   UNL     1       3.609   6.587  18.129  0.00  0.00    +0.000 C 
ATOM     10  C   UNL     1       2.438   7.563  18.209  0.00  0.00    +0.000 C 
ENDBRANCH   7   9
ENDBRANCH   1   7
BRANCH   6  11
ATOM     11  C   UNL     1       5.379   3.660  17.978  0.00  0.00    +0.000 C 
BRANCH  11  12
ATOM     12  N   UNL     1       5.652   3.726  16.563  0.00  0.00    +0.000 N 
ATOM     13  C   UNL     1       6.732   4.465  16.117  0.00  0.00    +0.000 C 
ATOM     14  O   UNL     1       7.481   5.048  16.895  0.00  0.00    +0.000 OA
ATOM     15  H   UNL     1       5.021   3.325  15.882  0.00  0.00    +0.000 HD
BRANCH  13  16
ATOM     16  C   UNL     1       6.902   4.512  14.680  0.00  0.00    +0.000 A 
ATOM     17  C   UNL     1       6.253   3.805  13.683  0.00  0.00    +0.000 A 
ATOM     18  C   UNL     1       6.802   4.235  12.453  0.00  0.00    +0.000 A 
ATOM     19  C   UNL     1       7.751   5.176  12.769  0.00  0.00    +0.000 A 
ATOM     20  O   UNL     1       7.827   5.351  14.116  0.00  0.00    +0.000 OA
ENDBRANCH  13  16
ENDBRANCH  11  12
ENDBRANCH   6  11
TORSDOF 5
ENDMDL
MODEL 7
REMARK VINA RESULT:      -6.7      1.641      2.012
REMARK  Name = 
REMARK  7 active torsions:
REMARK  status: ('A' for Active; 'I' for Inactive)
REMARK    1  A    between atoms: C_1  and  C_2
REMARK    2  A    between atoms: C_2  and  C_3
REMARK    3  A    between atoms: C_2  and  O_4
REMARK    4  A    between atoms: O_4  and  C_5
REMARK    5  A    between atoms: C_10  and  C_11
REMARK    6  A    between atoms: C_11  and  N_12
REMARK    7  A    between atoms: C_13  and  C_15
REMARK                            x       y       z     vdW  Elec       q    Type
REMARK                         _______ _______ _______ _____ _____    ______ ____
ROOT
ATOM      1  C   UNL     1       7.161   5.434  16.308  0.00  0.00    +0.000 A 
ATOM      2  N   UNL     1       7.426   5.614  14.995  0.00  0.00    +0.000 NA
ATOM      3  C   UNL     1       6.824   4.780  14.123  0.00  0.00    +0.000 A 
ATOM      4  C   UNL     1       5.936   3.790  14.501  0.00  0.00    +0.000 A 
ATOM      5  C   UNL     1       5.684   3.617  15.858  0.00  0.00    +0.000 A 
ATOM      6  C   UNL     1       6.335   4.424  16.800  0.00  0.00    +0.000 A 
ENDROOT
BRANCH   1   7
ATOM      7  O   UNL     1       7.797   6.254  17.215  0.00  0.00    +0.000 OA
BRANCH   7   9
ATOM      8  C   UNL     1       5.940   7.714  17.452  0.00  0.00    +0.000 C 
ATOM      9  C   UNL     1       7.427   7.638  17.112  0.00  0.00    +0.000 C 
ATOM     10  C   UNL     1       8.232   8.489  18.091  0.00  0.00    +0.000 C 
ENDBRANCH   7   9
ENDBRANCH   1   7
BRANCH   6  11
ATOM     11  C   UNL     1       6.173   4.152  18.267  0.00  0.00    +0.000 C 
BRANCH  11  12
ATOM     12  N   UNL     1       4.809   4.156  18.733  0.00  0.00    +0.000 N 
ATOM     13  C   UNL     1       4.400   3.192  19.635  0.00  0.00    +0.000 C 
ATOM     14  O   UNL     1       5.174   2.346  20.072  0.00  0.00    +0.000 OA
ATOM     15  H   UNL     1       4.118   4.786  18.346  0.00  0.00    +0.000 HD
BRANCH  13  16
ATOM     16  C   UNL     1       3.003   3.246  20.012  0.00  0.00    +0.000 A 
ATOM     17  C   UNL     1       1.923   3.810  19.354  0.00  0.00    +0.000 A 
ATOM     18  C   UNL     1       0.786   3.578  20.160  0.00  0.00    +0.000 A 
ATOM     19  C   UNL     1       1.234   2.888  21.261  0.00  0.00    +0.000 A 
ATOM     20  O   UNL     1       2.577   2.684  21.187  0.00  0.00    +0.000 OA
ENDBRANCH  13  16
ENDBRANCH  11  12
ENDBRANCH   6  11
TORSDOF 5
ENDMDL
MODEL 8
REMARK VINA RESULT:      -6.7      2.366      6.894
REMARK  Name = 
REMARK  7 active torsions:
REMARK  status: ('A' for Active; 'I' for Inactive)
REMARK    1  A    between atoms: C_1  and  C_2
REMARK    2  A    between atoms: C_2  and  C_3
REMARK    3  A    between atoms: C_2  and  O_4
REMARK    4  A    between atoms: O_4  and  C_5
REMARK    5  A    between atoms: C_10  and  C_11
REMARK    6  A    between atoms: C_11  and  N_12
REMARK    7  A    between atoms: C_13  and  C_15
REMARK                            x       y       z     vdW  Elec       q    Type
REMARK                         _______ _______ _______ _____ _____    ______ ____
ROOT
ATOM      1  C   UNL     1       2.982   5.116  19.272  0.00  0.00    +0.000 A 
ATOM      2  N   UNL     1       2.327   6.200  19.746  0.00  0.00    +0.000 NA
ATOM      3  C   UNL     1       2.446   7.347  19.047  0.00  0.00    +0.000 A 
ATOM      4  C   UNL     1       3.165   7.455  17.872  0.00  0.00    +0.000 A 
ATOM      5  C   UNL     1       3.838   6.330  17.407  0.00  0.00    +0.000 A 
ATOM      6  C   UNL     1       3.787   5.134  18.134  0.00  0.00    +0.000 A 
ENDROOT
BRANCH   1   7
ATOM      7  O   UNL     1       2.901   3.945  19.994  0.00  0.00    +0.000 OA
BRANCH   7   9
ATOM      8  C   UNL     1       1.046   2.722  19.158  0.00  0.00    +0.000 C 
ATOM      9  C   UNL     1       1.560   3.556  20.329  0.00  0.00    +0.000 C 
ATOM     10  C   UNL     1       1.539   2.727  21.612  0.00  0.00    +0.000 C 
ENDBRANCH   7   9
ENDBRANCH   1   7
BRANCH   6  11
ATOM     11  C   UNL     1       4.621   3.959  17.713  0.00  0.00    +0.000 C 
BRANCH  11  12
ATOM     12  N   UNL     1       4.998   3.958  16.321  0.00  0.00    +0.000 N 
ATOM     13  C   UNL     1       6.302   4.256  15.974  0.00  0.00    +0.000 C 
ATOM     14  O   UNL     1       7.156   4.499  16.820  0.00  0.00    +0.000 OA
ATOM     15  H   UNL     1       4.313   3.837  15.586  0.00  0.00    +0.000 HD
BRANCH  13  16
ATOM     16  C   UNL     1       6.578   4.275  14.553  0.00  0.00    +0.000 A 
ATOM     17  C   UNL     1       7.403   5.106  13.815  0.00  0.00    +0.000 A 
ATOM     18  C   UNL     1       7.305   4.690  12.468  0.00  0.00    +0.000 A 
ATOM     19  C   UNL     1       6.429   3.631  12.460  0.00  0.00    +0.000 A 
ATOM     20  O   UNL     1       5.976   3.372  13.715  0.00  0.00    +0.000 OA
ENDBRANCH  13  16
ENDBRANCH  11  12
ENDBRANCH   6  11
TORSDOF 5
ENDMDL
MODEL 9
REMARK VINA RESULT:      -6.7      2.402      6.324
REMARK  Name = 
REMARK  7 active torsions:
REMARK  status: ('A' for Active; 'I' for Inactive)
REMARK    1  A    between atoms: C_1  and  C_2
REMARK    2  A    between atoms: C_2  and  C_3
REMARK    3  A    between atoms: C_2  and  O_4
REMARK    4  A    between atoms: O_4  and  C_5
REMARK    5  A    between atoms: C_10  and  C_11
REMARK    6  A    between atoms: C_11  and  N_12
REMARK    7  A    between atoms: C_13  and  C_15
REMARK                            x       y       z     vdW  Elec       q    Type
REMARK                         _______ _______ _______ _____ _____    ______ ____
ROOT
ATOM      1  C   UNL     1       2.876   4.640  18.953  0.00  0.00    +0.000 A 
ATOM      2  N   UNL     1       1.611   4.172  19.044  0.00  0.00    +0.000 NA
ATOM      3  C   UNL     1       1.355   2.973  18.484  0.00  0.00    +0.000 A 
ATOM      4  C   UNL     1       2.317   2.197  17.864  0.00  0.00    +0.000 A 
ATOM      5  C   UNL     1       3.610   2.702  17.775  0.00  0.00    +0.000 A 
ATOM      6  C   UNL     1       3.905   3.970  18.292  0.00  0.00    +0.000 A 
ENDROOT
BRANCH   1   7
ATOM      7  O   UNL     1       3.146   5.882  19.488  0.00  0.00    +0.000 OA
BRANCH   7   9
ATOM      8  C   UNL     1       1.828   7.663  20.339  0.00  0.00    +0.000 C 
ATOM      9  C   UNL     1       2.231   6.909  19.074  0.00  0.00    +0.000 C 
ATOM     10  C   UNL     1       2.896   7.862  18.084  0.00  0.00    +0.000 C 
ENDBRANCH   7   9
ENDBRANCH   1   7
BRANCH   6  11
ATOM     11  C   UNL     1       5.260   4.577  18.077  0.00  0.00    +0.000 C 
BRANCH  11  12
ATOM     12  N   UNL     1       5.848   4.296  16.791  0.00  0.00    +0.000 N 
ATOM     13  C   UNL     1       5.730   5.227  15.776  0.00  0.00    +0.000 C 
ATOM     14  O   UNL     1       5.160   6.300  15.947  0.00  0.00    +0.000 OA
ATOM     15  H   UNL     1       6.262   3.397  16.581  0.00  0.00    +0.000 HD
BRANCH  13  16
ATOM     16  C   UNL     1       6.311   4.841  14.508  0.00  0.00    +0.000 A 
ATOM     17  C   UNL     1       5.876   3.918  13.572  0.00  0.00    +0.000 A 
ATOM     18  C   UNL     1       6.815   3.933  12.515  0.00  0.00    +0.000 A 
ATOM     19  C   UNL     1       7.766   4.861  12.865  0.00  0.00    +0.000 A 
ATOM     20  O   UNL     1       7.476   5.416  14.072  0.00  0.00    +0.000 OA
ENDBRANCH  13  16
ENDBRANCH  11  12
ENDBRANCH   6  11
TORSDOF 5
ENDMDL
