MODEL 1
REMARK VINA RESULT:      -8.0      0.000      0.000
REMARK  Name = 
REMARK  7 active torsions:
REMARK  status: ('A' for Active; 'I' for Inactive)
REMARK    1  A    between atoms: C_1  and  N_2
REMARK    2  A    between atoms: N_2  and  C_3
REMARK    3  A    between atoms: N_2  and  S_21
REMARK    4  A    between atoms: C_3  and  C_4
REMARK    5  A    between atoms: C_4  and  C_5
REMARK    6  A    between atoms: C_5  and  N_6
REMARK    7  A    between atoms: S_21  and  C_24
REMARK                            x       y       z     vdW  Elec       q    Type
REMARK                         _______ _______ _______ _____ _____    ______ ____
ROOT
ATOM      1  C   UNL     1       3.092   6.676  19.589  0.00  0.00    +0.000 C 
ENDROOT
BRANCH   1   2
ATOM      2  N   UNL     1       3.510   5.470  18.821  0.00  0.00    +0.000 N 
ATOM      3  C   UNL     1       2.648   4.330  18.921  0.00  0.00    +0.000 A 
ATOM      4  C   UNL     1       1.517   4.304  19.773  0.00  0.00    +0.000 A 
ATOM      5  C   UNL     1       0.568   3.278  19.752  0.00  0.00    +0.000 A 
ATOM      6  C   UNL     1       0.761   2.183  18.933  0.00  0.00    +0.000 A 
ATOM      7  C   UNL     1       1.919   2.113  18.169  0.00  0.00    +0.000 A 
ATOM      8  C   UNL     1       2.857   3.166  18.161  0.00  0.00    +0.000 A 
ATOM      9  S   UNL     1       4.293   2.880  17.164  0.00  0.00    +0.000 S 
ATOM     10  C   UNL     1       5.204   4.390  17.360  0.00  0.00    +0.000 A 
ATOM     11  C   UNL     1       6.454   4.398  16.699  0.00  0.00    +0.000 A 
ATOM     12  C   UNL     1       7.262   5.527  16.701  0.00  0.00    +0.000 A 
ATOM     13  C   UNL     1       6.807   6.657  17.352  0.00  0.00    +0.000 A 
ATOM     14 CL   UNL     1       7.775   8.084  17.351  0.00  0.00    +0.000 Cl
ATOM     15  C   UNL     1       5.572   6.652  18.022  0.00  0.00    +0.000 A 
ATOM     16  C   UNL     1       4.735   5.513  18.080  0.00  0.00    +0.000 A 
ENDBRANCH   1   2
BRANCH   1  17
ATOM     17  C   UNL     1       2.332   7.712  18.741  0.00  0.00    +0.000 C 
BRANCH  17  18
ATOM     18  C   UNL     1       1.582   8.710  19.617  0.00  0.00    +0.000 C 
BRANCH  18  20
ATOM     19  C   UNL     1       1.952  10.464  17.973  0.00  0.00    +0.000 C 
ATOM     20  N   UNL     1       0.936   9.841  18.870  0.00  0.00    +0.000 NA
BRANCH  20  21
ATOM     21  S   UNL     1       0.113  10.960  19.895  0.00  0.00    +0.000 S 
ATOM     22  O   UNL     1      -0.078  10.352  21.190  0.00  0.00    +0.000 OA
ATOM     23  O   UNL     1       0.790  12.233  19.746  0.00  0.00    +0.000 OA
BRANCH  21  24
ATOM     24  C   UNL     1      -1.497  11.092  19.178  0.00  0.00    +0.000 A 
ATOM     25  C   UNL     1      -2.384  12.066  19.652  0.00  0.00    +0.000 A 
ATOM     26  C   UNL     1      -3.661  12.143  19.100  0.00  0.00    +0.000 A 
ATOM     27  C   UNL     1      -4.030  11.259  18.083  0.00  0.00    +0.000 A 
ATOM     28 CL   UNL     1      -5.615  11.341  17.416  0.00  0.00    +0.000 Cl
ATOM     29  C   UNL     1      -3.131  10.304  17.602  0.00  0.00    +0.000 A 
ATOM     30  C   UNL     1      -1.856  10.219  18.150  0.00  0.00    +0.000 A 
ENDBRANCH  21  24
ENDBRANCH  20  21
ENDBRANCH  18  20
ENDBRANCH  17  18
ENDBRANCH   1  17
TORSDOF 6
ENDMDL
MODEL 2
REMARK VINA RESULT:      -7.6      1.661      1.991
REMARK  Name = 
REMARK  7 active torsions:
REMARK  status: ('A' for Active; 'I' for Inactive)
REMARK    1  A    between atoms: C_1  and  N_2
REMARK    2  A    between atoms: N_2  and  C_3
REMARK    3  A    between atoms: N_2  and  S_21
REMARK    4  A    between atoms: C_3  and  C_4
REMARK    5  A    between atoms: C_4  and  C_5
REMARK    6  A    between atoms: C_5  and  N_6
REMARK    7  A    between atoms: S_21  and  C_24
REMARK                            x       y       z     vdW  Elec       q    Type
REMARK                         _______ _______ _______ _____ _____    ______ ____
ROOT
ATOM      1  C   UNL     1       3.124   6.773  19.861  0.00  0.00    +0.000 C 
ENDROOT
BRANCH   1   2
ATOM      2  N   UNL     1       3.466   5.620  18.982  0.00  0.00    +0.000 N 
ATOM      3  C   UNL     1       2.592   4.487  19.063  0.00  0.00    +0.000 A 
ATOM      4  C   UNL     1       1.524   4.415  19.989  0.00  0.00    +0.000 A 
ATOM      5  C   UNL     1       0.557   3.405  19.963  0.00  0.00    +0.000 A 
ATOM      6  C   UNL     1       0.673   2.370  19.058  0.00  0.00    +0.000 A 
ATOM      7  C   UNL     1       1.773   2.338  18.211  0.00  0.00    +0.000 A 
ATOM      8  C   UNL     1       2.728   3.377  18.210  0.00  0.00    +0.000 A 
ATOM      9  S   UNL     1       4.085   3.144  17.097  0.00  0.00    +0.000 S 
ATOM     10  C   UNL     1       5.034   4.625  17.333  0.00  0.00    +0.000 A 
ATOM     11  C   UNL     1       6.235   4.663  16.587  0.00  0.00    +0.000 A 
ATOM     12  C   UNL     1       7.061   5.778  16.612  0.00  0.00    +0.000 A 
ATOM     13  C   UNL     1       6.674   6.865  17.371  0.00  0.00    +0.000 A 
ATOM     14 CL   UNL     1       7.664   8.276  17.401  0.00  0.00    +0.000 Cl
ATOM     15  C   UNL     1       5.488   6.829  18.124  0.00  0.00    +0.000 A 
ATOM     16  C   UNL     1       4.637   5.699  18.161  0.00  0.00    +0.000 A 
ENDBRANCH   1   2
BRANCH   1  17
ATOM     17  C   UNL     1       2.095   7.735  19.240  0.00  0.00    +0.000 C 
BRANCH  17  18
ATOM     18  C   UNL     1       1.153   8.304  20.295  0.00  0.00    +0.000 C 
BRANCH  18  20
ATOM     19  C   UNL     1       1.250  10.161  18.726  0.00  0.00    +0.000 C 
ATOM     20  N   UNL     1       0.662   9.695  20.016  0.00  0.00    +0.000 NA
BRANCH  20  21
ATOM     21  S   UNL     1       0.894  10.784  21.335  0.00  0.00    +0.000 S 
ATOM     22  O   UNL     1       1.212  10.020  22.519  0.00  0.00    +0.000 OA
ATOM     23  O   UNL     1       1.767  11.837  20.854  0.00  0.00    +0.000 OA
BRANCH  21  24
ATOM     24  C   UNL     1      -0.711  11.467  21.614  0.00  0.00    +0.000 A 
ATOM     25  C   UNL     1      -1.247  11.461  22.907  0.00  0.00    +0.000 A 
ATOM     26  C   UNL     1      -2.527  11.975  23.111  0.00  0.00    +0.000 A 
ATOM     27  C   UNL     1      -3.244  12.496  22.031  0.00  0.00    +0.000 A 
ATOM     28 CL   UNL     1      -4.831  13.112  22.280  0.00  0.00    +0.000 Cl
ATOM     29  C   UNL     1      -2.691  12.518  20.748  0.00  0.00    +0.000 A 
ATOM     30  C   UNL     1      -1.417  12.003  20.536  0.00  0.00    +0.000 A 
ENDBRANCH  21  24
ENDBRANCH  20  21
ENDBRANCH  18  20
ENDBRANCH  17  18
ENDBRANCH   1  17
TORSDOF 6
ENDMDL
MODEL 3
REMARK VINA RESULT:      -7.6      0.533      1.031
REMARK  Name = 
REMARK  7 active torsions:
REMARK  status: ('A' for Active; 'I' for Inactive)
REMARK    1  A    between atoms: C_1  and  N_2
REMARK    2  A    between atoms: N_2  and  C_3
REMARK    3  A    between atoms: N_2  and  S_21
REMARK    4  A    between atoms: C_3  and  C_4
REMARK    5  A    between atoms: C_4  and  C_5
REMARK    6  A    between atoms: C_5  and  N_6
REMARK    7  A    between atoms: S_21  and  C_24
REMARK                            x       y       z     vdW  Elec       q    Type
REMARK                         _______ _______ _______ _____ _____    ______ ____
ROOT
ATOM      1  C   UNL     1       2.881   6.902  19.219  0.00  0.00    +0.000 C 
ENDROOT
BRANCH   1   2
ATOM      2  N   UNL     1       3.436   5.645  18.644  0.00  0.00    +0.000 N 
ATOM      3  C   UNL     1       2.618   4.476  18.778  0.00  0.00    +0.000 A 
ATOM      4  C   UNL     1       1.400   4.480  19.499  0.00  0.00    +0.000 A 
ATOM      5  C   UNL     1       0.504   3.406  19.492  0.00  0.00    +0.000 A 
ATOM      6  C   UNL     1       0.837   2.242  18.830  0.00  0.00    +0.000 A 
ATOM      7  C   UNL     1       2.077   2.153  18.210  0.00  0.00    +0.000 A 
ATOM      8  C   UNL     1       2.964   3.250  18.184  0.00  0.00    +0.000 A 
ATOM      9  S   UNL     1       4.515   2.938  17.390  0.00  0.00    +0.000 S 
ATOM     10  C   UNL     1       5.331   4.509  17.510  0.00  0.00    +0.000 A 
ATOM     11  C   UNL     1       6.648   4.514  16.992  0.00  0.00    +0.000 A 
ATOM     12  C   UNL     1       7.400   5.680  16.954  0.00  0.00    +0.000 A 
ATOM     13  C   UNL     1       6.826   6.847  17.418  0.00  0.00    +0.000 A 
ATOM     14 CL   UNL     1       7.724   8.317  17.359  0.00  0.00    +0.000 Cl
ATOM     15  C   UNL     1       5.523   6.847  17.945  0.00  0.00    +0.000 A 
ATOM     16  C   UNL     1       4.735   5.675  18.041  0.00  0.00    +0.000 A 
ENDBRANCH   1   2
BRANCH   1  17
ATOM     17  C   UNL     1       2.717   8.031  18.186  0.00  0.00    +0.000 C 
BRANCH  17  18
ATOM     18  C   UNL     1       1.261   8.462  18.053  0.00  0.00    +0.000 C 
BRANCH  18  20
ATOM     19  C   UNL     1       2.345  10.635  17.923  0.00  0.00    +0.000 C 
ATOM     20  N   UNL     1       1.036   9.945  18.109  0.00  0.00    +0.000 NA
BRANCH  20  21
ATOM     21  S   UNL     1       0.158  10.455  19.506  0.00  0.00    +0.000 S 
ATOM     22  O   UNL     1      -0.000   9.328  20.393  0.00  0.00    +0.000 OA
ATOM     23  O   UNL     1       0.770  11.692  19.950  0.00  0.00    +0.000 OA
BRANCH  21  24
ATOM     24  C   UNL     1      -1.457  10.817  18.887  0.00  0.00    +0.000 A 
ATOM     25  C   UNL     1      -1.941  10.118  17.775  0.00  0.00    +0.000 A 
ATOM     26  C   UNL     1      -3.204  10.432  17.277  0.00  0.00    +0.000 A 
ATOM     27  C   UNL     1      -3.967  11.424  17.898  0.00  0.00    +0.000 A 
ATOM     28 CL   UNL     1      -5.518  11.825  17.270  0.00  0.00    +0.000 Cl
ATOM     29  C   UNL     1      -3.484  12.101  19.021  0.00  0.00    +0.000 A 
ATOM     30  C   UNL     1      -2.223  11.796  19.521  0.00  0.00    +0.000 A 
ENDBRANCH  21  24
ENDBRANCH  20  21
ENDBRANCH  18  20
ENDBRANCH  17  18
ENDBRANCH   1  17
TORSDOF 6
ENDMDL
MODEL 4
REMARK VINA RESULT:      -7.5      0.750      1.319
REMARK  Name = 
REMARK  7 active torsions:
REMARK  status: ('A' for Active; 'I' for Inactive)
REMARK    1  A    between atoms: C_1  and  N_2
REMARK    2  A    between atoms: N_2  and  C_3
REMARK    3  A    between atoms: N_2  and  S_21
REMARK    4  A    between atoms: C_3  and  C_4
REMARK    5  A    between atoms: C_4  and  C_5
REMARK    6  A    between atoms: C_5  and  N_6
REMARK    7  A    between atoms: S_21  and  C_24
REMARK                            x       y       z     vdW  Elec       q    Type
REMARK                         _______ _______ _______ _____ _____    ______ ____
ROOT
ATOM      1  C   UNL     1       2.933   6.851  19.403  0.00  0.00    +0.000 C 
ENDROOT
BRANCH   1   2
ATOM      2  N   UNL     1       3.444   5.618  18.742  0.00  0.00    +0.000 N 
ATOM      3  C   UNL     1       2.616   4.454  18.857  0.00  0.00    +0.000 A 
ATOM      4  C   UNL     1       1.433   4.436  19.633  0.00  0.00    +0.000 A 
ATOM      5  C   UNL     1       0.523   3.374  19.615  0.00  0.00    +0.000 A 
ATOM      6  C   UNL     1       0.808   2.240  18.881  0.00  0.00    +0.000 A 
ATOM      7  C   UNL     1       2.018   2.168  18.201  0.00  0.00    +0.000 A 
ATOM      8  C   UNL     1       2.917   3.255  18.187  0.00  0.00    +0.000 A 
ATOM      9  S   UNL     1       4.426   2.964  17.307  0.00  0.00    +0.000 S 
ATOM     10  C   UNL     1       5.269   4.518  17.466  0.00  0.00    +0.000 A 
ATOM     11  C   UNL     1       6.560   4.534  16.889  0.00  0.00    +0.000 A 
ATOM     12  C   UNL     1       7.326   5.691  16.873  0.00  0.00    +0.000 A 
ATOM     13  C   UNL     1       6.790   6.840  17.420  0.00  0.00    +0.000 A 
ATOM     14 CL   UNL     1       7.705   8.301  17.392  0.00  0.00    +0.000 Cl
ATOM     15  C   UNL     1       5.513   6.829  18.006  0.00  0.00    +0.000 A 
ATOM     16  C   UNL     1       4.714   5.663  18.081  0.00  0.00    +0.000 A 
ENDBRANCH   1   2
BRANCH   1  17
ATOM     17  C   UNL     1       2.515   7.953  18.412  0.00  0.00    +0.000 C 
BRANCH  17  18
ATOM     18  C   UNL     1       1.159   8.548  18.775  0.00  0.00    +0.000 C 
BRANCH  18  20
ATOM     19  C   UNL     1       0.271   8.992  20.995  0.00  0.00    +0.000 C 
ATOM     20  N   UNL     1       1.181   9.506  19.931  0.00  0.00    +0.000 NA
BRANCH  20  21
ATOM     21  S   UNL     1       0.882  11.143  19.472  0.00  0.00    +0.000 S 
ATOM     22  O   UNL     1       0.893  11.968  20.656  0.00  0.00    +0.000 OA
ATOM     23  O   UNL     1       1.748  11.422  18.343  0.00  0.00    +0.000 OA
BRANCH  21  24
ATOM     24  C   UNL     1      -0.792  11.129  18.906  0.00  0.00    +0.000 A 
ATOM     25  C   UNL     1      -1.147  10.314  17.824  0.00  0.00    +0.000 A 
ATOM     26  C   UNL     1      -2.463  10.333  17.367  0.00  0.00    +0.000 A 
ATOM     27  C   UNL     1      -3.404  11.151  17.997  0.00  0.00    +0.000 A 
ATOM     28 CL   UNL     1      -5.024  11.188  17.419  0.00  0.00    +0.000 Cl
ATOM     29  C   UNL     1      -3.045  11.945  19.090  0.00  0.00    +0.000 A 
ATOM     30  C   UNL     1      -1.733  11.934  19.550  0.00  0.00    +0.000 A 
ENDBRANCH  21  24
ENDBRANCH  20  21
ENDBRANCH  18  20
ENDBRANCH  17  18
ENDBRANCH   1  17
TORSDOF 6
ENDMDL
MODEL 5
REMARK VINA RESULT:      -7.4      2.567      3.179
REMARK  Name = 
REMARK  7 active torsions:
REMARK  status: ('A' for Active; 'I' for Inactive)
REMARK    1  A    between atoms: C_1  and  N_2
REMARK    2  A    between atoms: N_2  and  C_3
REMARK    3  A    between atoms: N_2  and  S_21
REMARK    4  A    between atoms: C_3  and  C_4
REMARK    5  A    between atoms: C_4  and  C_5
REMARK    6  A    between atoms: C_5  and  N_6
REMARK    7  A    between atoms: S_21  and  C_24
REMARK                            x       y       z     vdW  Elec       q    Type
REMARK                         _______ _______ _______ _____ _____    ______ ____
ROOT
ATOM      1  C   UNL     1       3.103   6.744  19.703  0.00  0.00    +0.000 C 
ENDROOT
BRANCH   1   2
ATOM      2  N   UNL     1       3.502   5.572  18.874  0.00  0.00    +0.000 N 
ATOM      3  C   UNL     1       2.645   4.425  18.952  0.00  0.00    +0.000 A 
ATOM      4  C   UNL     1       1.540   4.361  19.834  0.00  0.00    +0.000 A 
ATOM      5  C   UNL     1       0.593   3.333  19.798  0.00  0.00    +0.000 A 
ATOM      6  C   UNL     1       0.765   2.273  18.930  0.00  0.00    +0.000 A 
ATOM      7  C   UNL     1       1.901   2.238  18.131  0.00  0.00    +0.000 A 
ATOM      8  C   UNL     1       2.836   3.294  18.139  0.00  0.00    +0.000 A 
ATOM      9  S   UNL     1       4.243   3.054  17.091  0.00  0.00    +0.000 S 
ATOM     10  C   UNL     1       5.155   4.558  17.323  0.00  0.00    +0.000 A 
ATOM     11  C   UNL     1       6.386   4.597  16.627  0.00  0.00    +0.000 A 
ATOM     12  C   UNL     1       7.191   5.728  16.653  0.00  0.00    +0.000 A 
ATOM     13  C   UNL     1       6.753   6.829  17.362  0.00  0.00    +0.000 A 
ATOM     14 CL   UNL     1       7.717   8.258  17.392  0.00  0.00    +0.000 Cl
ATOM     15  C   UNL     1       5.538   6.793  18.066  0.00  0.00    +0.000 A 
ATOM     16  C   UNL     1       4.705   5.649  18.101  0.00  0.00    +0.000 A 
ENDBRANCH   1   2
BRANCH   1  17
ATOM     17  C   UNL     1       2.289   7.796  18.929  0.00  0.00    +0.000 C 
BRANCH  17  18
ATOM     18  C   UNL     1       1.073   8.259  19.724  0.00  0.00    +0.000 C 
BRANCH  18  20
ATOM     19  C   UNL     1       0.989   9.799  21.604  0.00  0.00    +0.000 C 
ATOM     20  N   UNL     1       1.095   9.707  20.119  0.00  0.00    +0.000 NA
BRANCH  20  21
ATOM     21  S   UNL     1      -0.056  10.671  19.265  0.00  0.00    +0.000 S 
ATOM     22  O   UNL     1      -0.321  10.054  17.987  0.00  0.00    +0.000 OA
ATOM     23  O   UNL     1      -1.122  10.968  20.201  0.00  0.00    +0.000 OA
BRANCH  21  24
ATOM     24  C   UNL     1       0.817  12.166  18.912  0.00  0.00    +0.000 A 
ATOM     25  C   UNL     1       2.138  12.101  18.455  0.00  0.00    +0.000 A 
ATOM     26  C   UNL     1       2.827  13.287  18.207  0.00  0.00    +0.000 A 
ATOM     27  C   UNL     1       2.189  14.513  18.407  0.00  0.00    +0.000 A 
ATOM     28 CL   UNL     1       3.046  15.977  18.121  0.00  0.00    +0.000 Cl
ATOM     29  C   UNL     1       0.862  14.568  18.843  0.00  0.00    +0.000 A 
ATOM     30  C   UNL     1       0.169  13.389  19.096  0.00  0.00    +0.000 A 
ENDBRANCH  21  24
ENDBRANCH  20  21
ENDBRANCH  18  20
ENDBRANCH  17  18
ENDBRANCH   1  17
TORSDOF 6
ENDMDL
MODEL 6
REMARK VINA RESULT:      -7.4      1.721      2.089
REMARK  Name = 
REMARK  7 active torsions:
REMARK  status: ('A' for Active; 'I' for Inactive)
REMARK    1  A    between atoms: C_1  and  N_2
REMARK    2  A    between atoms: N_2  and  C_3
REMARK    3  A    between atoms: N_2  and  S_21
REMARK    4  A    between atoms: C_3  and  C_4
REMARK    5  A    between atoms: C_4  and  C_5
REMARK    6  A    between atoms: C_5  and  N_6
REMARK    7  A    between atoms: S_21  and  C_24
REMARK                            x       y       z     vdW  Elec       q    Type
REMARK                         _______ _______ _______ _____ _____    ______ ____
ROOT
ATOM      1  C   UNL     1       2.980   6.760  19.836  0.00  0.00    +0.000 C 
ENDROOT
BRANCH   1   2
ATOM      2  N   UNL     1       3.369   5.617  18.963  0.00  0.00    +0.000 N 
ATOM      3  C   UNL     1       2.531   4.457  19.034  0.00  0.00    +0.000 A 
ATOM      4  C   UNL     1       1.453   4.353  19.946  0.00  0.00    +0.000 A 
ATOM      5  C   UNL     1       0.519   3.313  19.909  0.00  0.00    +0.000 A 
ATOM      6  C   UNL     1       0.679   2.280  19.007  0.00  0.00    +0.000 A 
ATOM      7  C   UNL     1       1.792   2.283  18.174  0.00  0.00    +0.000 A 
ATOM      8  C   UNL     1       2.712   3.351  18.185  0.00  0.00    +0.000 A 
ATOM      9  S   UNL     1       4.091   3.160  17.090  0.00  0.00    +0.000 S 
ATOM     10  C   UNL     1       4.990   4.670  17.336  0.00  0.00    +0.000 A 
ATOM     11  C   UNL     1       6.199   4.746  16.606  0.00  0.00    +0.000 A 
ATOM     12  C   UNL     1       6.989   5.887  16.640  0.00  0.00    +0.000 A 
ATOM     13  C   UNL     1       6.557   6.961  17.392  0.00  0.00    +0.000 A 
ATOM     14 CL   UNL     1       7.502   8.403  17.434  0.00  0.00    +0.000 Cl
ATOM     15  C   UNL     1       5.364   6.889  18.130  0.00  0.00    +0.000 A 
ATOM     16  C   UNL     1       4.548   5.733  18.157  0.00  0.00    +0.000 A 
ENDBRANCH   1   2
BRANCH   1  17
ATOM     17  C   UNL     1       2.063   7.781  19.138  0.00  0.00    +0.000 C 
BRANCH  17  18
ATOM     18  C   UNL     1       1.531   8.818  20.121  0.00  0.00    +0.000 C 
BRANCH  18  20
ATOM     19  C   UNL     1       0.624   9.696  18.042  0.00  0.00    +0.000 C 
ATOM     20  N   UNL     1       0.579   9.817  19.528  0.00  0.00    +0.000 NA
BRANCH  20  21
ATOM     21  S   UNL     1       0.814  11.423  20.116  0.00  0.00    +0.000 S 
ATOM     22  O   UNL     1       1.852  11.404  21.120  0.00  0.00    +0.000 OA
ATOM     23  O   UNL     1       0.899  12.282  18.951  0.00  0.00    +0.000 OA
BRANCH  21  24
ATOM     24  C   UNL     1      -0.687  11.787  20.975  0.00  0.00    +0.000 A 
ATOM     25  C   UNL     1      -1.723  12.445  20.302  0.00  0.00    +0.000 A 
ATOM     26  C   UNL     1      -2.891  12.753  20.997  0.00  0.00    +0.000 A 
ATOM     27  C   UNL     1      -3.013  12.395  22.342  0.00  0.00    +0.000 A 
ATOM     28 CL   UNL     1      -4.447  12.795  23.204  0.00  0.00    +0.000 Cl
ATOM     29  C   UNL     1      -1.981  11.720  22.999  0.00  0.00    +0.000 A 
ATOM     30  C   UNL     1      -0.811  11.412  22.313  0.00  0.00    +0.000 A 
ENDBRANCH  21  24
ENDBRANCH  20  21
ENDBRANCH  18  20
ENDBRANCH  17  18
ENDBRANCH   1  17
TORSDOF 6
ENDMDL
MODEL 7
REMARK VINA RESULT:      -7.2      1.204      1.274
REMARK  Name = 
REMARK  7 active torsions:
REMARK  status: ('A' for Active; 'I' for Inactive)
REMARK    1  A    between atoms: C_1  and  N_2
REMARK    2  A    between atoms: N_2  and  C_3
REMARK    3  A    between atoms: N_2  and  S_21
REMARK    4  A    between atoms: C_3  and  C_4
REMARK    5  A    between atoms: C_4  and  C_5
REMARK    6  A    between atoms: C_5  and  N_6
REMARK    7  A    between atoms: S_21  and  C_24
REMARK                            x       y       z     vdW  Elec       q    Type
REMARK                         _______ _______ _______ _____ _____    ______ ____
ROOT
ATOM      1  C   UNL     1       3.098   6.959  17.110  0.00  0.00    +0.000 C 
ENDROOT
BRANCH   1   2
ATOM      2  N   UNL     1       3.837   5.868  17.805  0.00  0.00    +0.000 N 
ATOM      3  C   UNL     1       3.054   4.739  18.214  0.00  0.00    +0.000 A 
ATOM      4  C   UNL     1       1.647   4.694  18.061  0.00  0.00    +0.000 A 
ATOM      5  C   UNL     1       0.891   3.540  18.286  0.00  0.00    +0.000 A 
ATOM      6  C   UNL     1       1.507   2.400  18.762  0.00  0.00    +0.000 A 
ATOM      7  C   UNL     1       2.867   2.438  19.040  0.00  0.00    +0.000 A 
ATOM      8  C   UNL     1       3.637   3.590  18.777  0.00  0.00    +0.000 A 
ATOM      9  S   UNL     1       5.342   3.471  19.238  0.00  0.00    +0.000 S 
ATOM     10  C   UNL     1       5.987   5.046  18.736  0.00  0.00    +0.000 A 
ATOM     11  C   UNL     1       7.352   5.237  19.056  0.00  0.00    +0.000 A 
ATOM     12  C   UNL     1       8.024   6.391  18.677  0.00  0.00    +0.000 A 
ATOM     13  C   UNL     1       7.333   7.347  17.959  0.00  0.00    +0.000 A 
ATOM     14 CL   UNL     1       8.147   8.779  17.450  0.00  0.00    +0.000 Cl
ATOM     15  C   UNL     1       5.975   7.169  17.649  0.00  0.00    +0.000 A 
ATOM     16  C   UNL     1       5.239   6.028  18.049  0.00  0.00    +0.000 A 
ENDBRANCH   1   2
BRANCH   1  17
ATOM     17  C   UNL     1       2.868   8.202  17.987  0.00  0.00    +0.000 C 
BRANCH  17  18
ATOM     18  C   UNL     1       1.387   8.550  18.088  0.00  0.00    +0.000 C 
BRANCH  18  20
ATOM     19  C   UNL     1       2.363  10.774  17.961  0.00  0.00    +0.000 C 
ATOM     20  N   UNL     1       1.087  10.020  18.132  0.00  0.00    +0.000 NA
BRANCH  20  21
ATOM     21  S   UNL     1       0.164  10.492  19.513  0.00  0.00    +0.000 S 
ATOM     22  O   UNL     1       0.011   9.350  20.383  0.00  0.00    +0.000 OA
ATOM     23  O   UNL     1       0.737  11.737  19.988  0.00  0.00    +0.000 OA
BRANCH  21  24
ATOM     24  C   UNL     1      -1.443  10.826  18.860  0.00  0.00    +0.000 A 
ATOM     25  C   UNL     1      -2.248  11.794  19.472  0.00  0.00    +0.000 A 
ATOM     26  C   UNL     1      -3.526  12.028  18.967  0.00  0.00    +0.000 A 
ATOM     27  C   UNL     1      -3.976  11.306  17.859  0.00  0.00    +0.000 A 
ATOM     28 CL   UNL     1      -5.561  11.581  17.249  0.00  0.00    +0.000 Cl
ATOM     29  C   UNL     1      -3.157  10.357  17.242  0.00  0.00    +0.000 A 
ATOM     30  C   UNL     1      -1.882  10.115  17.742  0.00  0.00    +0.000 A 
ENDBRANCH  21  24
ENDBRANCH  20  21
ENDBRANCH  18  20
ENDBRANCH  17  18
ENDBRANCH   1  17
TORSDOF 6
ENDMDL
MODEL 8
REMARK VINA RESULT:      -7.2      2.867      3.348
REMARK  Name = 
REMARK  7 active torsions:
REMARK  status: ('A' for Active; 'I' for Inactive)
REMARK    1  A    between atoms: C_1  and  N_2
REMARK    2  A    between atoms: N_2  and  C_3
REMARK    3  A    between atoms: N_2  and  S_21
REMARK    4  A    between atoms: C_3  and  C_4
REMARK    5  A    between atoms: C_4  and  C_5
REMARK    6  A    between atoms: C_5  and  N_6
REMARK    7  A    between atoms: S_21  and  C_24
REMARK                            x       y       z     vdW  Elec       q    Type
REMARK                         _______ _______ _______ _____ _____    ______ ____
ROOT
ATOM      1  C   UNL     1       2.943   6.878  19.603  0.00  0.00    +0.000 C 
ENDROOT
BRANCH   1   2
ATOM      2  N   UNL     1       3.402   5.683  18.840  0.00  0.00    +0.000 N 
ATOM      3  C   UNL     1       2.572   4.518  18.937  0.00  0.00    +0.000 A 
ATOM      4  C   UNL     1       1.437   4.462  19.781  0.00  0.00    +0.000 A 
ATOM      5  C   UNL     1       0.517   3.408  19.755  0.00  0.00    +0.000 A 
ATOM      6  C   UNL     1       0.748   2.318  18.940  0.00  0.00    +0.000 A 
ATOM      7  C   UNL     1       1.913   2.279  18.185  0.00  0.00    +0.000 A 
ATOM      8  C   UNL     1       2.820   3.359  18.181  0.00  0.00    +0.000 A 
ATOM      9  S   UNL     1       4.271   3.112  17.196  0.00  0.00    +0.000 S 
ATOM     10  C   UNL     1       5.136   4.649  17.394  0.00  0.00    +0.000 A 
ATOM     11  C   UNL     1       6.391   4.691  16.742  0.00  0.00    +0.000 A 
ATOM     12  C   UNL     1       7.166   5.842  16.748  0.00  0.00    +0.000 A 
ATOM     13  C   UNL     1       6.674   6.960  17.393  0.00  0.00    +0.000 A 
ATOM     14 CL   UNL     1       7.600   8.415  17.395  0.00  0.00    +0.000 Cl
ATOM     15  C   UNL     1       5.435   6.922  18.053  0.00  0.00    +0.000 A 
ATOM     16  C   UNL     1       4.630   5.759  18.108  0.00  0.00    +0.000 A 
ENDBRANCH   1   2
BRANCH   1  17
ATOM     17  C   UNL     1       2.309   7.966  18.718  0.00  0.00    +0.000 C 
BRANCH  17  18
ATOM     18  C   UNL     1       1.073   8.570  19.373  0.00  0.00    +0.000 C 
BRANCH  18  20
ATOM     19  C   UNL     1       1.237   8.600  21.799  0.00  0.00    +0.000 C 
ATOM     20  N   UNL     1       1.352   9.434  20.568  0.00  0.00    +0.000 NA
BRANCH  20  21
ATOM     21  S   UNL     1       0.414  10.884  20.603  0.00  0.00    +0.000 S 
ATOM     22  O   UNL     1      -0.699  10.740  19.694  0.00  0.00    +0.000 OA
ATOM     23  O   UNL     1       0.216  11.214  22.000  0.00  0.00    +0.000 OA
BRANCH  21  24
ATOM     24  C   UNL     1       1.476  12.098  19.882  0.00  0.00    +0.000 A 
ATOM     25  C   UNL     1       1.933  13.165  20.665  0.00  0.00    +0.000 A 
ATOM     26  C   UNL     1       2.746  14.133  20.079  0.00  0.00    +0.000 A 
ATOM     27  C   UNL     1       3.099  14.019  18.733  0.00  0.00    +0.000 A 
ATOM     28 CL   UNL     1       4.087  15.226  18.005  0.00  0.00    +0.000 Cl
ATOM     29  C   UNL     1       2.656  12.938  17.965  0.00  0.00    +0.000 A 
ATOM     30  C   UNL     1       1.842  11.970  18.541  0.00  0.00    +0.000 A 
ENDBRANCH  21  24
ENDBRANCH  20  21
ENDBRANCH  18  20
ENDBRANCH  17  18
ENDBRANCH   1  17
TORSDOF 6
ENDMDL
MODEL 9
REMARK VINA RESULT:      -7.2      1.854      2.352
REMARK  Name = 
REMARK  7 active torsions:
REMARK  status: ('A' for Active; 'I' for Inactive)
REMARK    1  A    between atoms: C_1  and  N_2
REMARK    2  A    between atoms: N_2  and  C_3
REMARK    3  A    between atoms: N_2  and  S_21
REMARK    4  A    between atoms: C_3  and  C_4
REMARK    5  A    between atoms: C_4  and  C_5
REMARK    6  A    between atoms: C_5  and  N_6
REMARK    7  A    between atoms: S_21  and  C_24
REMARK                            x       y       z     vdW  Elec       q    Type
REMARK                         _______ _______ _______ _____ _____    ______ ____
ROOT
ATOM      1  C   UNL     1       2.785   7.072  19.314  0.00  0.00    +0.000 C 
ENDROOT
BRANCH   1   2
ATOM      2  N   UNL     1       3.343   5.837  18.696  0.00  0.00    +0.000 N 
ATOM      3  C   UNL     1       2.548   4.652  18.828  0.00  0.00    +0.000 A 
ATOM      4  C   UNL     1       1.350   4.621  19.582  0.00  0.00    +0.000 A 
ATOM      5  C   UNL     1       0.471   3.533  19.577  0.00  0.00    +0.000 A 
ATOM      6  C   UNL     1       0.803   2.389  18.880  0.00  0.00    +0.000 A 
ATOM      7  C   UNL     1       2.027   2.333  18.225  0.00  0.00    +0.000 A 
ATOM      8  C   UNL     1       2.896   3.444  18.198  0.00  0.00    +0.000 A 
ATOM      9  S   UNL     1       4.429   3.174  17.355  0.00  0.00    +0.000 S 
ATOM     10  C   UNL     1       5.224   4.755  17.486  0.00  0.00    +0.000 A 
ATOM     11  C   UNL     1       6.525   4.793  16.933  0.00  0.00    +0.000 A 
ATOM     12  C   UNL     1       7.258   5.971  16.900  0.00  0.00    +0.000 A 
ATOM     13  C   UNL     1       6.679   7.118  17.404  0.00  0.00    +0.000 A 
ATOM     14 CL   UNL     1       7.553   8.604  17.353  0.00  0.00    +0.000 Cl
ATOM     15  C   UNL     1       5.392   7.086  17.966  0.00  0.00    +0.000 A 
ATOM     16  C   UNL     1       4.624   5.900  18.059  0.00  0.00    +0.000 A 
ENDBRANCH   1   2
BRANCH   1  17
ATOM     17  C   UNL     1       2.003   7.954  18.324  0.00  0.00    +0.000 C 
BRANCH  17  18
ATOM     18  C   UNL     1       1.995   9.415  18.761  0.00  0.00    +0.000 C 
BRANCH  18  20
ATOM     19  C   UNL     1      -0.298   9.597  17.972  0.00  0.00    +0.000 C 
ATOM     20  N   UNL     1       0.636   9.971  19.073  0.00  0.00    +0.000 NA
BRANCH  20  21
ATOM     21  S   UNL     1       0.653  11.657  19.447  0.00  0.00    +0.000 S 
ATOM     22  O   UNL     1       1.934  11.993  20.021  0.00  0.00    +0.000 OA
ATOM     23  O   UNL     1       0.140  12.345  18.279  0.00  0.00    +0.000 OA
BRANCH  21  24
ATOM     24  C   UNL     1      -0.523  11.816  20.756  0.00  0.00    +0.000 A 
ATOM     25  C   UNL     1      -0.325  11.110  21.949  0.00  0.00    +0.000 A 
ATOM     26  C   UNL     1      -1.274  11.219  22.964  0.00  0.00    +0.000 A 
ATOM     27  C   UNL     1      -2.394  12.034  22.781  0.00  0.00    +0.000 A 
ATOM     28 CL   UNL     1      -3.575  12.153  24.027  0.00  0.00    +0.000 Cl
ATOM     29  C   UNL     1      -2.571  12.752  21.595  0.00  0.00    +0.000 A 
ATOM     30  C   UNL     1      -1.631  12.646  20.576  0.00  0.00    +0.000 A 
ENDBRANCH  21  24
ENDBRANCH  20  21
ENDBRANCH  18  20
ENDBRANCH  17  18
ENDBRANCH   1  17
TORSDOF 6
ENDMDL
