MODEL 1
REMARK VINA RESULT:      -8.4      0.000      0.000
REMARK  Name = 
REMARK  4 active torsions:
REMARK  status: ('A' for Active; 'I' for Inactive)
REMARK    1  A    between atoms: C_1  and  N_2
REMARK    2  A    between atoms: C_3  and  C_5
REMARK    3  A    between atoms: C_5  and  C_6
REMARK    4  A    between atoms: C_17  and  C_19
REMARK                            x       y       z     vdW  Elec       q    Type
REMARK                         _______ _______ _______ _____ _____    ______ ____
ROOT
ATOM      1  C   UNL     1      -1.186  11.054  19.068  0.00  0.00    +0.000 C 
ATOM      2  C   UNL     1      -0.836  12.452  18.556  0.00  0.00    +0.000 C 
ATOM      3  O   UNL     1      -1.504  13.434  19.357  0.00  0.00    +0.000 OA
ATOM      4  C   UNL     1      -1.515  13.151  20.706  0.00  0.00    +0.000 A 
ATOM      5  C   UNL     1      -2.108  14.149  21.488  0.00  0.00    +0.000 A 
ATOM      6  C   UNL     1      -2.168  13.999  22.865  0.00  0.00    +0.000 A 
ATOM      7 BR   UNL     1      -2.966  15.342  23.927  0.00  0.00    +0.000 Br
ATOM      8  C   UNL     1      -1.642  12.859  23.465  0.00  0.00    +0.000 A 
ATOM      9  C   UNL     1      -1.067  11.848  22.680  0.00  0.00    +0.000 A 
ATOM     10  C   UNL     1      -0.992  11.967  21.285  0.00  0.00    +0.000 A 
ATOM     11  N   UNL     1      -0.483  10.898  20.408  0.00  0.00    +0.000 N 
ATOM     12  C   UNL     1       0.587  10.090  20.892  0.00  0.00    +0.000 C 
ATOM     13  O   UNL     1       0.988  10.144  22.059  0.00  0.00    +0.000 OA
ENDROOT
BRANCH  12  14
ATOM     14  C   UNL     1       1.327   9.068  20.092  0.00  0.00    +0.000 A 
ATOM     15  C   UNL     1       1.847   9.329  18.833  0.00  0.00    +0.000 A 
ATOM     16  C   UNL     1       2.269   8.283  18.010  0.00  0.00    +0.000 A 
ATOM     17  C   UNL     1       2.436   7.013  18.539  0.00  0.00    +0.000 A 
ATOM     18  C   UNL     1       2.173   6.786  19.889  0.00  0.00    +0.000 A 
ATOM     19  C   UNL     1       1.572   7.791  20.653  0.00  0.00    +0.000 A 
ATOM     20  N   UNL     1       2.518   5.554  20.454  0.00  0.00    +0.000 N 
ATOM     21  C   UNL     1       3.228   4.617  19.742  0.00  0.00    +0.000 C 
ATOM     22  O   UNL     1       3.576   3.552  20.246  0.00  0.00    +0.000 OA
ATOM     23  C   UNL     1       3.632   5.044  18.331  0.00  0.00    +0.000 C 
ATOM     24  O   UNL     1       2.854   6.037  17.681  0.00  0.00    +0.000 OA
ATOM     25  H   UNL     1       2.329   5.342  21.425  0.00  0.00    +0.000 HD
ENDBRANCH  12  14
BRANCH   1  26
ATOM     26  C   UNL     1      -1.257  10.024  17.936  0.00  0.00    +0.000 C 
BRANCH  26  29
ATOM     27  C   UNL     1      -3.456  10.412  14.882  0.00  0.00    +0.000 C 
ATOM     28  N   UNL     1      -2.331  10.149  15.743  0.00  0.00    +0.000 N 
ATOM     29  C   UNL     1      -2.506   9.991  17.090  0.00  0.00    +0.000 C 
ATOM     30  O   UNL     1      -3.606   9.815  17.609  0.00  0.00    +0.000 OA
ATOM     31  H   UNL     1      -1.417  10.380  15.368  0.00  0.00    +0.000 HD
ENDBRANCH  26  29
ENDBRANCH   1  26
TORSDOF 3
ENDMDL
MODEL 2
REMARK VINA RESULT:      -7.5      1.112      1.744
REMARK  Name = 
REMARK  4 active torsions:
REMARK  status: ('A' for Active; 'I' for Inactive)
REMARK    1  A    between atoms: C_1  and  N_2
REMARK    2  A    between atoms: C_3  and  C_5
REMARK    3  A    between atoms: C_5  and  C_6
REMARK    4  A    between atoms: C_17  and  C_19
REMARK                            x       y       z     vdW  Elec       q    Type
REMARK                         _______ _______ _______ _____ _____    ______ ____
ROOT
ATOM      1  C   UNL     1      -0.895  11.056  19.139  0.00  0.00    +0.000 C 
ATOM      2  C   UNL     1      -0.216  12.297  18.556  0.00  0.00    +0.000 C 
ATOM      3  O   UNL     1      -0.754  13.471  19.176  0.00  0.00    +0.000 OA
ATOM      4  C   UNL     1      -0.968  13.346  20.532  0.00  0.00    +0.000 A 
ATOM      5  C   UNL     1      -1.427  14.519  21.142  0.00  0.00    +0.000 A 
ATOM      6  C   UNL     1      -1.665  14.537  22.508  0.00  0.00    +0.000 A 
ATOM      7 BR   UNL     1      -2.285  16.116  23.338  0.00  0.00    +0.000 Br
ATOM      8  C   UNL     1      -1.450  13.391  23.267  0.00  0.00    +0.000 A 
ATOM      9  C   UNL     1      -1.009  12.208  22.654  0.00  0.00    +0.000 A 
ATOM     10  C   UNL     1      -0.761  12.156  21.274  0.00  0.00    +0.000 A 
ATOM     11  N   UNL     1      -0.387  10.918  20.566  0.00  0.00    +0.000 N 
ATOM     12  C   UNL     1       0.438   9.981  21.252  0.00  0.00    +0.000 C 
ATOM     13  O   UNL     1       0.712  10.085  22.452  0.00  0.00    +0.000 OA
ENDROOT
BRANCH  12  14
ATOM     14  C   UNL     1       1.038   8.754  20.645  0.00  0.00    +0.000 A 
ATOM     15  C   UNL     1       0.733   7.472  21.080  0.00  0.00    +0.000 A 
ATOM     16  C   UNL     1       1.519   6.386  20.692  0.00  0.00    +0.000 A 
ATOM     17  C   UNL     1       2.431   6.529  19.658  0.00  0.00    +0.000 A 
ATOM     18  C   UNL     1       2.562   7.760  19.017  0.00  0.00    +0.000 A 
ATOM     19  C   UNL     1       1.911   8.882  19.538  0.00  0.00    +0.000 A 
ATOM     20  N   UNL     1       3.346   7.848  17.861  0.00  0.00    +0.000 N 
ATOM     21  C   UNL     1       3.877   6.725  17.273  0.00  0.00    +0.000 C 
ATOM     22  O   UNL     1       4.526   6.788  16.233  0.00  0.00    +0.000 OA
ATOM     23  C   UNL     1       3.512   5.404  17.951  0.00  0.00    +0.000 C 
ATOM     24  O   UNL     1       3.166   5.427  19.327  0.00  0.00    +0.000 OA
ATOM     25  H   UNL     1       3.481   8.725  17.376  0.00  0.00    +0.000 HD
ENDBRANCH  12  14
BRANCH   1  26
ATOM     26  C   UNL     1      -1.050   9.941  18.101  0.00  0.00    +0.000 C 
BRANCH  26  29
ATOM     27  C   UNL     1      -3.378  10.785  15.241  0.00  0.00    +0.000 C 
ATOM     28  N   UNL     1      -2.198  10.490  16.014  0.00  0.00    +0.000 N 
ATOM     29  C   UNL     1      -2.301   9.930  17.257  0.00  0.00    +0.000 C 
ATOM     30  O   UNL     1      -3.337   9.427  17.685  0.00  0.00    +0.000 OA
ATOM     31  H   UNL     1      -1.350  10.972  15.736  0.00  0.00    +0.000 HD
ENDBRANCH  26  29
ENDBRANCH   1  26
TORSDOF 3
ENDMDL
MODEL 3
REMARK VINA RESULT:      -7.4      1.278      1.424
REMARK  Name = 
REMARK  4 active torsions:
REMARK  status: ('A' for Active; 'I' for Inactive)
REMARK    1  A    between atoms: C_1  and  N_2
REMARK    2  A    between atoms: C_3  and  C_5
REMARK    3  A    between atoms: C_5  and  C_6
REMARK    4  A    between atoms: C_17  and  C_19
REMARK                            x       y       z     vdW  Elec       q    Type
REMARK                         _______ _______ _______ _____ _____    ______ ____
ROOT
ATOM      1  C   UNL     1      -1.260  12.572  19.292  0.00  0.00    +0.000 C 
ATOM      2  C   UNL     1      -0.702  13.990  19.168  0.00  0.00    +0.000 C 
ATOM      3  O   UNL     1      -1.428  14.867  20.038  0.00  0.00    +0.000 OA
ATOM      4  C   UNL     1      -1.726  14.322  21.269  0.00  0.00    +0.000 A 
ATOM      5  C   UNL     1      -2.374  15.209  22.136  0.00  0.00    +0.000 A 
ATOM      6  C   UNL     1      -2.714  14.795  23.416  0.00  0.00    +0.000 A 
ATOM      7 BR   UNL     1      -3.589  15.985  24.593  0.00  0.00    +0.000 Br
ATOM      8  C   UNL     1      -2.413  13.501  23.832  0.00  0.00    +0.000 A 
ATOM      9  C   UNL     1      -1.782  12.605  22.955  0.00  0.00    +0.000 A 
ATOM     10  C   UNL     1      -1.426  12.992  21.655  0.00  0.00    +0.000 A 
ATOM     11  N   UNL     1      -0.847  12.065  20.666  0.00  0.00    +0.000 N 
ATOM     12  C   UNL     1       0.035  11.052  21.138  0.00  0.00    +0.000 C 
ATOM     13  O   UNL     1       0.204  10.820  22.340  0.00  0.00    +0.000 OA
ENDROOT
BRANCH  12  14
ATOM     14  C   UNL     1       0.830  10.127  20.273  0.00  0.00    +0.000 A 
ATOM     15  C   UNL     1       1.346  10.504  19.042  0.00  0.00    +0.000 A 
ATOM     16  C   UNL     1       1.823   9.543  18.150  0.00  0.00    +0.000 A 
ATOM     17  C   UNL     1       2.047   8.247  18.586  0.00  0.00    +0.000 A 
ATOM     18  C   UNL     1       1.785   7.909  19.913  0.00  0.00    +0.000 A 
ATOM     19  C   UNL     1       1.131   8.825  20.742  0.00  0.00    +0.000 A 
ATOM     20  N   UNL     1       2.184   6.655  20.389  0.00  0.00    +0.000 N 
ATOM     21  C   UNL     1       2.943   5.808  19.618  0.00  0.00    +0.000 C 
ATOM     22  O   UNL     1       3.337   4.727  20.046  0.00  0.00    +0.000 OA
ATOM     23  C   UNL     1       3.337   6.357  18.247  0.00  0.00    +0.000 C 
ATOM     24  O   UNL     1       2.517   7.357  17.663  0.00  0.00    +0.000 OA
ATOM     25  H   UNL     1       1.998   6.364  21.340  0.00  0.00    +0.000 HD
ENDBRANCH  12  14
BRANCH   1  26
ATOM     26  C   UNL     1      -1.194  11.807  17.967  0.00  0.00    +0.000 C 
BRANCH  26  29
ATOM     27  C   UNL     1      -4.840  11.254  17.118  0.00  0.00    +0.000 C 
ATOM     28  N   UNL     1      -3.542  11.857  17.285  0.00  0.00    +0.000 N 
ATOM     29  C   UNL     1      -2.437  11.083  17.508  0.00  0.00    +0.000 C 
ATOM     30  O   UNL     1      -2.423   9.867  17.338  0.00  0.00    +0.000 OA
ATOM     31  H   UNL     1      -3.535  12.844  17.522  0.00  0.00    +0.000 HD
ENDBRANCH  26  29
ENDBRANCH   1  26
TORSDOF 3
ENDMDL
MODEL 4
REMARK VINA RESULT:      -7.2      2.439      3.420
REMARK  Name = 
REMARK  4 active torsions:
REMARK  status: ('A' for Active; 'I' for Inactive)
REMARK    1  A    between atoms: C_1  and  N_2
REMARK    2  A    between atoms: C_3  and  C_5
REMARK    3  A    between atoms: C_5  and  C_6
REMARK    4  A    between atoms: C_17  and  C_19
REMARK                            x       y       z     vdW  Elec       q    Type
REMARK                         _______ _______ _______ _____ _____    ______ ____
ROOT
ATOM      1  C   UNL     1       1.054  12.858  20.159  0.00  0.00    +0.000 C 
ATOM      2  C   UNL     1       1.900  13.490  21.266  0.00  0.00    +0.000 C 
ATOM      3  O   UNL     1       1.059  14.271  22.123  0.00  0.00    +0.000 OA
ATOM      4  C   UNL     1      -0.160  13.690  22.400  0.00  0.00    +0.000 A 
ATOM      5  C   UNL     1      -0.947  14.427  23.293  0.00  0.00    +0.000 A 
ATOM      6  C   UNL     1      -2.191  13.946  23.673  0.00  0.00    +0.000 A 
ATOM      7 BR   UNL     1      -3.258  14.935  24.877  0.00  0.00    +0.000 Br
ATOM      8  C   UNL     1      -2.654  12.735  23.166  0.00  0.00    +0.000 A 
ATOM      9  C   UNL     1      -1.874  12.006  22.254  0.00  0.00    +0.000 A 
ATOM     10  C   UNL     1      -0.613  12.465  21.848  0.00  0.00    +0.000 A 
ATOM     11  N   UNL     1       0.204  11.787  20.826  0.00  0.00    +0.000 N 
ATOM     12  C   UNL     1       0.155  10.364  20.770  0.00  0.00    +0.000 C 
ATOM     13  O   UNL     1      -0.654   9.697  21.423  0.00  0.00    +0.000 OA
ENDROOT
BRANCH  12  14
ATOM     14  C   UNL     1       1.024   9.504  19.909  0.00  0.00    +0.000 A 
ATOM     15  C   UNL     1       1.402   9.864  18.624  0.00  0.00    +0.000 A 
ATOM     16  C   UNL     1       1.961   8.920  17.760  0.00  0.00    +0.000 A 
ATOM     17  C   UNL     1       2.401   7.704  18.258  0.00  0.00    +0.000 A 
ATOM     18  C   UNL     1       2.273   7.427  19.619  0.00  0.00    +0.000 A 
ATOM     19  C   UNL     1       1.542   8.297  20.434  0.00  0.00    +0.000 A 
ATOM     20  N   UNL     1       2.882   6.281  20.142  0.00  0.00    +0.000 N 
ATOM     21  C   UNL     1       3.710   5.499  19.373  0.00  0.00    +0.000 C 
ATOM     22  O   UNL     1       4.285   4.519  19.837  0.00  0.00    +0.000 OA
ATOM     23  C   UNL     1       3.933   6.000  17.945  0.00  0.00    +0.000 C 
ATOM     24  O   UNL     1       2.941   6.828  17.361  0.00  0.00    +0.000 OA
ATOM     25  H   UNL     1       2.800   6.034  21.119  0.00  0.00    +0.000 HD
ENDBRANCH  12  14
BRANCH   1  26
ATOM     26  C   UNL     1       1.824  12.738  18.841  0.00  0.00    +0.000 C 
BRANCH  26  29
ATOM     27  C   UNL     1       4.722  14.924  17.772  0.00  0.00    +0.000 C 
ATOM     28  N   UNL     1       3.865  13.787  17.996  0.00  0.00    +0.000 N 
ATOM     29  C   UNL     1       2.551  13.960  18.335  0.00  0.00    +0.000 C 
ATOM     30  O   UNL     1       1.966  15.035  18.231  0.00  0.00    +0.000 OA
ATOM     31  H   UNL     1       4.331  12.905  18.181  0.00  0.00    +0.000 HD
ENDBRANCH  26  29
ENDBRANCH   1  26
TORSDOF 3
ENDMDL
MODEL 5
REMARK VINA RESULT:      -7.2      3.062      5.401
REMARK  Name = 
REMARK  4 active torsions:
REMARK  status: ('A' for Active; 'I' for Inactive)
REMARK    1  A    between atoms: C_1  and  N_2
REMARK    2  A    between atoms: C_3  and  C_5
REMARK    3  A    between atoms: C_5  and  C_6
REMARK    4  A    between atoms: C_17  and  C_19
REMARK                            x       y       z     vdW  Elec       q    Type
REMARK                         _______ _______ _______ _____ _____    ______ ____
ROOT
ATOM      1  C   UNL     1       1.597   7.481  20.815  0.00  0.00    +0.000 C 
ATOM      2  C   UNL     1       0.105   7.198  21.002  0.00  0.00    +0.000 C 
ATOM      3  O   UNL     1      -0.546   8.376  21.495  0.00  0.00    +0.000 OA
ATOM      4  C   UNL     1      -0.109   9.547  20.914  0.00  0.00    +0.000 A 
ATOM      5  C   UNL     1      -0.799  10.685  21.350  0.00  0.00    +0.000 A 
ATOM      6  C   UNL     1      -0.472  11.929  20.831  0.00  0.00    +0.000 A 
ATOM      7 BR   UNL     1      -1.398  13.468  21.415  0.00  0.00    +0.000 Br
ATOM      8  C   UNL     1       0.539  12.043  19.882  0.00  0.00    +0.000 A 
ATOM      9  C   UNL     1       1.245  10.906  19.459  0.00  0.00    +0.000 A 
ATOM     10  C   UNL     1       0.941   9.634  19.966  0.00  0.00    +0.000 A 
ATOM     11  N   UNL     1       1.710   8.424  19.626  0.00  0.00    +0.000 N 
ATOM     12  C   UNL     1       2.237   8.317  18.307  0.00  0.00    +0.000 C 
ATOM     13  O   UNL     1       2.216   9.253  17.501  0.00  0.00    +0.000 OA
ENDROOT
BRANCH  12  14
ATOM     14  C   UNL     1       2.906   7.106  17.740  0.00  0.00    +0.000 A 
ATOM     15  C   UNL     1       2.307   5.856  17.718  0.00  0.00    +0.000 A 
ATOM     16  C   UNL     1       3.062   4.712  17.452  0.00  0.00    +0.000 A 
ATOM     17  C   UNL     1       4.342   4.836  16.936  0.00  0.00    +0.000 A 
ATOM     18  C   UNL     1       4.871   6.103  16.694  0.00  0.00    +0.000 A 
ATOM     19  C   UNL     1       4.182   7.235  17.141  0.00  0.00    +0.000 A 
ATOM     20  N   UNL     1       6.084   6.216  16.006  0.00  0.00    +0.000 N 
ATOM     21  C   UNL     1       6.694   5.117  15.450  0.00  0.00    +0.000 C 
ATOM     22  O   UNL     1       7.733   5.215  14.804  0.00  0.00    +0.000 OA
ATOM     23  C   UNL     1       5.931   3.802  15.610  0.00  0.00    +0.000 C 
ATOM     24  O   UNL     1       5.025   3.678  16.695  0.00  0.00    +0.000 OA
ATOM     25  H   UNL     1       6.511   7.115  15.824  0.00  0.00    +0.000 HD
ENDBRANCH  12  14
BRANCH   1  26
ATOM     26  C   UNL     1       2.459   6.249  21.102  0.00  0.00    +0.000 C 
BRANCH  26  29
ATOM     27  C   UNL     1       1.977   2.530  21.605  0.00  0.00    +0.000 C 
ATOM     28  N   UNL     1       2.338   3.910  21.806  0.00  0.00    +0.000 N 
ATOM     29  C   UNL     1       1.802   4.893  21.021  0.00  0.00    +0.000 C 
ATOM     30  O   UNL     1       0.830   4.714  20.290  0.00  0.00    +0.000 OA
ATOM     31  H   UNL     1       3.193   4.078  22.327  0.00  0.00    +0.000 HD
ENDBRANCH  26  29
ENDBRANCH   1  26
TORSDOF 3
ENDMDL
MODEL 6
REMARK VINA RESULT:      -7.1      3.783      8.152
REMARK  Name = 
REMARK  4 active torsions:
REMARK  status: ('A' for Active; 'I' for Inactive)
REMARK    1  A    between atoms: C_1  and  N_2
REMARK    2  A    between atoms: C_3  and  C_5
REMARK    3  A    between atoms: C_5  and  C_6
REMARK    4  A    between atoms: C_17  and  C_19
REMARK                            x       y       z     vdW  Elec       q    Type
REMARK                         _______ _______ _______ _____ _____    ______ ____
ROOT
ATOM      1  C   UNL     1      -0.060  10.640  20.862  0.00  0.00    +0.000 C 
ATOM      2  C   UNL     1       0.732   9.959  21.979  0.00  0.00    +0.000 C 
ATOM      3  O   UNL     1       1.111   8.642  21.561  0.00  0.00    +0.000 OA
ATOM      4  C   UNL     1       1.520   8.563  20.246  0.00  0.00    +0.000 A 
ATOM      5  C   UNL     1       1.955   7.288  19.867  0.00  0.00    +0.000 A 
ATOM      6  C   UNL     1       2.412   7.073  18.574  0.00  0.00    +0.000 A 
ATOM      7 BR   UNL     1       3.001   5.356  18.054  0.00  0.00    +0.000 Br
ATOM      8  C   UNL     1       2.434   8.123  17.661  0.00  0.00    +0.000 A 
ATOM      9  C   UNL     1       1.978   9.397  18.035  0.00  0.00    +0.000 A 
ATOM     10  C   UNL     1       1.509   9.646  19.332  0.00  0.00    +0.000 A 
ATOM     11  N   UNL     1       0.934  10.938  19.750  0.00  0.00    +0.000 N 
ATOM     12  C   UNL     1       1.483  12.126  19.186  0.00  0.00    +0.000 C 
ATOM     13  O   UNL     1       2.297  12.109  18.257  0.00  0.00    +0.000 OA
ENDROOT
BRANCH  12  14
ATOM     14  C   UNL     1       1.135  13.519  19.601  0.00  0.00    +0.000 A 
ATOM     15  C   UNL     1       1.599  14.093  20.775  0.00  0.00    +0.000 A 
ATOM     16  C   UNL     1       1.027  15.270  21.263  0.00  0.00    +0.000 A 
ATOM     17  C   UNL     1       0.195  16.021  20.448  0.00  0.00    +0.000 A 
ATOM     18  C   UNL     1      -0.073  15.592  19.149  0.00  0.00    +0.000 A 
ATOM     19  C   UNL     1       0.349  14.323  18.741  0.00  0.00    +0.000 A 
ATOM     20  N   UNL     1      -0.761  16.443  18.277  0.00  0.00    +0.000 N 
ATOM     21  C   UNL     1      -1.058  17.737  18.632  0.00  0.00    +0.000 C 
ATOM     22  O   UNL     1      -1.619  18.505  17.855  0.00  0.00    +0.000 OA
ATOM     23  C   UNL     1      -0.550  18.166  20.008  0.00  0.00    +0.000 C 
ATOM     24  O   UNL     1      -0.328  17.162  20.986  0.00  0.00    +0.000 OA
ATOM     25  H   UNL     1      -0.990  16.165  17.333  0.00  0.00    +0.000 HD
ENDBRANCH  12  14
BRANCH   1  26
ATOM     26  C   UNL     1      -1.144  11.574  21.408  0.00  0.00    +0.000 C 
BRANCH  26  29
ATOM     27  C   UNL     1      -4.453  12.992  20.246  0.00  0.00    +0.000 C 
ATOM     28  N   UNL     1      -3.257  12.738  21.007  0.00  0.00    +0.000 N 
ATOM     29  C   UNL     1      -2.212  12.050  20.454  0.00  0.00    +0.000 C 
ATOM     30  O   UNL     1      -2.115  11.829  19.249  0.00  0.00    +0.000 OA
ATOM     31  H   UNL     1      -3.341  12.821  22.014  0.00  0.00    +0.000 HD
ENDBRANCH  26  29
ENDBRANCH   1  26
TORSDOF 3
ENDMDL
MODEL 7
REMARK VINA RESULT:      -7.1      3.951      8.622
REMARK  Name = 
REMARK  4 active torsions:
REMARK  status: ('A' for Active; 'I' for Inactive)
REMARK    1  A    between atoms: C_1  and  N_2
REMARK    2  A    between atoms: C_3  and  C_5
REMARK    3  A    between atoms: C_5  and  C_6
REMARK    4  A    between atoms: C_17  and  C_19
REMARK                            x       y       z     vdW  Elec       q    Type
REMARK                         _______ _______ _______ _____ _____    ______ ____
ROOT
ATOM      1  C   UNL     1       0.385  12.570  20.364  0.00  0.00    +0.000 C 
ATOM      2  C   UNL     1      -0.175  12.115  19.015  0.00  0.00    +0.000 C 
ATOM      3  O   UNL     1       0.542  10.958  18.568  0.00  0.00    +0.000 OA
ATOM      4  C   UNL     1       0.828  10.050  19.565  0.00  0.00    +0.000 A 
ATOM      5  C   UNL     1       1.466   8.891  19.107  0.00  0.00    +0.000 A 
ATOM      6  C   UNL     1       1.794   7.886  20.005  0.00  0.00    +0.000 A 
ATOM      7 BR   UNL     1       2.655   6.319  19.395  0.00  0.00    +0.000 Br
ATOM      8  C   UNL     1       1.491   8.032  21.355  0.00  0.00    +0.000 A 
ATOM      9  C   UNL     1       0.870   9.203  21.818  0.00  0.00    +0.000 A 
ATOM     10  C   UNL     1       0.527  10.238  20.937  0.00  0.00    +0.000 A 
ATOM     11  N   UNL     1      -0.041  11.524  21.383  0.00  0.00    +0.000 N 
ATOM     12  C   UNL     1      -0.927  11.511  22.498  0.00  0.00    +0.000 C 
ATOM     13  O   UNL     1      -1.107  10.507  23.196  0.00  0.00    +0.000 OA
ENDROOT
BRANCH  12  14
ATOM     14  C   UNL     1      -1.711  12.684  22.991  0.00  0.00    +0.000 A 
ATOM     15  C   UNL     1      -1.117  13.804  23.553  0.00  0.00    +0.000 A 
ATOM     16  C   UNL     1      -1.884  14.736  24.256  0.00  0.00    +0.000 A 
ATOM     17  C   UNL     1      -3.266  14.703  24.161  0.00  0.00    +0.000 A 
ATOM     18  C   UNL     1      -3.883  13.734  23.372  0.00  0.00    +0.000 A 
ATOM     19  C   UNL     1      -3.117  12.696  22.830  0.00  0.00    +0.000 A 
ATOM     20  N   UNL     1      -5.259  13.820  23.136  0.00  0.00    +0.000 N 
ATOM     21  C   UNL     1      -5.987  14.908  23.554  0.00  0.00    +0.000 C 
ATOM     22  O   UNL     1      -7.186  15.013  23.310  0.00  0.00    +0.000 OA
ATOM     23  C   UNL     1      -5.176  16.005  24.244  0.00  0.00    +0.000 C 
ATOM     24  O   UNL     1      -3.955  15.644  24.871  0.00  0.00    +0.000 OA
ATOM     25  H   UNL     1      -5.748  13.128  22.583  0.00  0.00    +0.000 HD
ENDBRANCH  12  14
BRANCH   1  26
ATOM     26  C   UNL     1       0.334  14.092  20.527  0.00  0.00    +0.000 C 
BRANCH  26  29
ATOM     27  C   UNL     1       3.453  16.234  20.504  0.00  0.00    +0.000 C 
ATOM     28  N   UNL     1       2.135  15.719  20.229  0.00  0.00    +0.000 N 
ATOM     29  C   UNL     1       1.565  14.787  21.053  0.00  0.00    +0.000 C 
ATOM     30  O   UNL     1       2.001  14.522  22.170  0.00  0.00    +0.000 OA
ATOM     31  H   UNL     1       1.795  15.843  19.282  0.00  0.00    +0.000 HD
ENDBRANCH  26  29
ENDBRANCH   1  26
TORSDOF 3
ENDMDL
MODEL 8
REMARK VINA RESULT:      -7.0      3.942      8.477
REMARK  Name = 
REMARK  4 active torsions:
REMARK  status: ('A' for Active; 'I' for Inactive)
REMARK    1  A    between atoms: C_1  and  N_2
REMARK    2  A    between atoms: C_3  and  C_5
REMARK    3  A    between atoms: C_5  and  C_6
REMARK    4  A    between atoms: C_17  and  C_19
REMARK                            x       y       z     vdW  Elec       q    Type
REMARK                         _______ _______ _______ _____ _____    ______ ____
ROOT
ATOM      1  C   UNL     1       0.243  12.651  20.359  0.00  0.00    +0.000 C 
ATOM      2  C   UNL     1      -0.361  12.148  19.047  0.00  0.00    +0.000 C 
ATOM      3  O   UNL     1       0.357  10.991  18.604  0.00  0.00    +0.000 OA
ATOM      4  C   UNL     1       0.698  10.116  19.614  0.00  0.00    +0.000 A 
ATOM      5  C   UNL     1       1.338   8.956  19.164  0.00  0.00    +0.000 A 
ATOM      6  C   UNL     1       1.718   7.982  20.076  0.00  0.00    +0.000 A 
ATOM      7 BR   UNL     1       2.581   6.413  19.477  0.00  0.00    +0.000 Br
ATOM      8  C   UNL     1       1.465   8.162  21.433  0.00  0.00    +0.000 A 
ATOM      9  C   UNL     1       0.842   9.335  21.887  0.00  0.00    +0.000 A 
ATOM     10  C   UNL     1       0.447  10.339  20.991  0.00  0.00    +0.000 A 
ATOM     11  N   UNL     1      -0.125  11.628  21.422  0.00  0.00    +0.000 N 
ATOM     12  C   UNL     1      -0.966  11.632  22.572  0.00  0.00    +0.000 C 
ATOM     13  O   UNL     1      -1.102  10.647  23.304  0.00  0.00    +0.000 OA
ENDROOT
BRANCH  12  14
ATOM     14  C   UNL     1      -1.751  12.806  23.063  0.00  0.00    +0.000 A 
ATOM     15  C   UNL     1      -1.157  13.930  23.619  0.00  0.00    +0.000 A 
ATOM     16  C   UNL     1      -1.923  14.863  24.320  0.00  0.00    +0.000 A 
ATOM     17  C   UNL     1      -3.305  14.828  24.229  0.00  0.00    +0.000 A 
ATOM     18  C   UNL     1      -3.923  13.855  23.445  0.00  0.00    +0.000 A 
ATOM     19  C   UNL     1      -3.158  12.816  22.905  0.00  0.00    +0.000 A 
ATOM     20  N   UNL     1      -5.300  13.938  23.212  0.00  0.00    +0.000 N 
ATOM     21  C   UNL     1      -6.029  15.026  23.627  0.00  0.00    +0.000 C 
ATOM     22  O   UNL     1      -7.228  15.129  23.386  0.00  0.00    +0.000 OA
ATOM     23  C   UNL     1      -5.217  16.127  24.312  0.00  0.00    +0.000 C 
ATOM     24  O   UNL     1      -3.994  15.771  24.937  0.00  0.00    +0.000 OA
ATOM     25  H   UNL     1      -5.790  13.244  22.663  0.00  0.00    +0.000 HD
ENDBRANCH  12  14
BRANCH   1  26
ATOM     26  C   UNL     1       0.171  14.176  20.481  0.00  0.00    +0.000 C 
BRANCH  26  29
ATOM     27  C   UNL     1       2.704  15.859  18.228  0.00  0.00    +0.000 C 
ATOM     28  N   UNL     1       2.050  14.917  19.100  0.00  0.00    +0.000 N 
ATOM     29  C   UNL     1       0.704  15.001  19.335  0.00  0.00    +0.000 C 
ATOM     30  O   UNL     1      -0.054  15.690  18.657  0.00  0.00    +0.000 OA
ATOM     31  H   UNL     1       2.651  14.405  19.738  0.00  0.00    +0.000 HD
ENDBRANCH  26  29
ENDBRANCH   1  26
TORSDOF 3
ENDMDL
MODEL 9
REMARK VINA RESULT:      -7.0      4.008      8.132
REMARK  Name = 
REMARK  4 active torsions:
REMARK  status: ('A' for Active; 'I' for Inactive)
REMARK    1  A    between atoms: C_1  and  N_2
REMARK    2  A    between atoms: C_3  and  C_5
REMARK    3  A    between atoms: C_5  and  C_6
REMARK    4  A    between atoms: C_17  and  C_19
REMARK                            x       y       z     vdW  Elec       q    Type
REMARK                         _______ _______ _______ _____ _____    ______ ____
ROOT
ATOM      1  C   UNL     1       0.007  10.472  20.662  0.00  0.00    +0.000 C 
ATOM      2  C   UNL     1       0.775  10.007  21.901  0.00  0.00    +0.000 C 
ATOM      3  O   UNL     1       1.110   8.621  21.761  0.00  0.00    +0.000 OA
ATOM      4  C   UNL     1       1.517   8.263  20.493  0.00  0.00    +0.000 A 
ATOM      5  C   UNL     1       1.909   6.924  20.384  0.00  0.00    +0.000 A 
ATOM      6  C   UNL     1       2.359   6.436  19.166  0.00  0.00    +0.000 A 
ATOM      7 BR   UNL     1       2.890   4.630  19.009  0.00  0.00    +0.000 Br
ATOM      8  C   UNL     1       2.418   7.277  18.058  0.00  0.00    +0.000 A 
ATOM      9  C   UNL     1       2.006   8.614  18.162  0.00  0.00    +0.000 A 
ATOM     10  C   UNL     1       1.543   9.138  19.379  0.00  0.00    +0.000 A 
ATOM     11  N   UNL     1       1.013  10.506  19.520  0.00  0.00    +0.000 N 
ATOM     12  C   UNL     1       1.603  11.535  18.732  0.00  0.00    +0.000 C 
ATOM     13  O   UNL     1       2.416  11.304  17.832  0.00  0.00    +0.000 OA
ENDROOT
BRANCH  12  14
ATOM     14  C   UNL     1       1.302  12.994  18.853  0.00  0.00    +0.000 A 
ATOM     15  C   UNL     1       0.040  13.524  18.626  0.00  0.00    +0.000 A 
ATOM     16  C   UNL     1      -0.132  14.900  18.466  0.00  0.00    +0.000 A 
ATOM     17  C   UNL     1       0.893  15.768  18.806  0.00  0.00    +0.000 A 
ATOM     18  C   UNL     1       2.094  15.260  19.300  0.00  0.00    +0.000 A 
ATOM     19  C   UNL     1       2.322  13.881  19.275  0.00  0.00    +0.000 A 
ATOM     20  N   UNL     1       3.051  16.144  19.811  0.00  0.00    +0.000 N 
ATOM     21  C   UNL     1       2.777  17.483  19.959  0.00  0.00    +0.000 C 
ATOM     22  O   UNL     1       3.593  18.257  20.451  0.00  0.00    +0.000 OA
ATOM     23  C   UNL     1       1.361  17.903  19.565  0.00  0.00    +0.000 C 
ATOM     24  O   UNL     1       0.658  17.101  18.628  0.00  0.00    +0.000 OA
ATOM     25  H   UNL     1       3.941  15.819  20.163  0.00  0.00    +0.000 HD
ENDBRANCH  12  14
BRANCH   1  26
ATOM     26  C   UNL     1      -1.044  11.534  20.998  0.00  0.00    +0.000 C 
BRANCH  26  29
ATOM     27  C   UNL     1      -1.546  13.956  23.861  0.00  0.00    +0.000 C 
ATOM     28  N   UNL     1      -1.653  12.812  22.993  0.00  0.00    +0.000 N 
ATOM     29  C   UNL     1      -0.697  12.563  22.046  0.00  0.00    +0.000 C 
ATOM     30  O   UNL     1       0.397  13.121  22.033  0.00  0.00    +0.000 OA
ATOM     31  H   UNL     1      -2.574  12.394  22.914  0.00  0.00    +0.000 HD
ENDBRANCH  26  29
ENDBRANCH   1  26
TORSDOF 3
ENDMDL
