MODEL 1
REMARK VINA RESULT:      -7.0      0.000      0.000
REMARK  Name = 
REMARK  8 active torsions:
REMARK  status: ('A' for Active; 'I' for Inactive)
REMARK    1  A    between atoms: C_1  and  O_2
REMARK    2  A    between atoms: O_2  and  C_3
REMARK    3  A    between atoms: C_3  and  C_4
REMARK    4  A    between atoms: C_4  and  N_5
REMARK    5  A    between atoms: C_6  and  C_7
REMARK    6  A    between atoms: C_9  and  C_10
REMARK    7  A    between atoms: N_15  and  C_16
REMARK    8  A    between atoms: C_25  and  C_26
REMARK                            x       y       z     vdW  Elec       q    Type
REMARK                         _______ _______ _______ _____ _____    ______ ____
ROOT
ATOM      1  C   UNL     1       6.607   5.649  17.267  0.00  0.00    +0.000 C 
ATOM      2  C   UNL     1       6.710   5.363  15.966  0.00  0.00    +0.000 C 
ATOM      3  N   UNL     1       7.669   5.838  15.127  0.00  0.00    +0.000 N 
ATOM      4  C   UNL     1       7.523   5.281  13.862  0.00  0.00    +0.000 C 
ATOM      5  O   UNL     1       8.277   5.559  12.942  0.00  0.00    +0.000 OA
ATOM      6  N   UNL     1       6.413   4.440  13.887  0.00  0.00    +0.000 N 
ATOM      7  C   UNL     1       5.843   4.446  15.151  0.00  0.00    +0.000 C 
ATOM      8  O   UNL     1       4.883   3.824  15.567  0.00  0.00    +0.000 OA
ATOM      9  H   UNL     1       8.415   6.477  15.359  0.00  0.00    +0.000 HD
ENDROOT
BRANCH   1  14
ATOM     10  N   UNL     1       3.684   4.680  19.132  0.00  0.00    +0.000 N 
ATOM     11  C   UNL     1       4.522   3.617  19.429  0.00  0.00    +0.000 A 
ATOM     12  C   UNL     1       4.129   2.400  20.189  0.00  0.00    +0.000 C 
ATOM     13  C   UNL     1       5.751   3.893  18.861  0.00  0.00    +0.000 A 
ATOM     14  C   UNL     1       5.622   5.090  18.128  0.00  0.00    +0.000 A 
ATOM     15  C   UNL     1       4.340   5.574  18.301  0.00  0.00    +0.000 A 
ATOM     16  C   UNL     1       3.683   6.768  17.697  0.00  0.00    +0.000 C 
BRANCH  10  17
ATOM     17  C   UNL     1       2.313   4.821  19.606  0.00  0.00    +0.000 C 
BRANCH  17  18
ATOM     18  C   UNL     1       1.304   4.533  18.501  0.00  0.00    +0.000 C 
BRANCH  18  20
ATOM     19  C   UNL     1       0.745   2.267  18.748  0.00  0.00    +0.000 C 
ATOM     20  O   UNL     1       1.501   3.211  17.998  0.00  0.00    +0.000 OA
ENDBRANCH  18  20
ENDBRANCH  17  18
ENDBRANCH  10  17
ENDBRANCH   1  14
BRANCH   6  21
ATOM     21  C   UNL     1       5.957   3.630  12.810  0.00  0.00    +0.000 A 
ATOM     22  C   UNL     1       6.639   2.463  12.437  0.00  0.00    +0.000 A 
ATOM     23  C   UNL     1       6.141   1.622  11.434  0.00  0.00    +0.000 A 
ATOM     24  C   UNL     1       4.965   1.946  10.767  0.00  0.00    +0.000 A 
ATOM     25  C   UNL     1       4.292   3.116  11.102  0.00  0.00    +0.000 A 
ATOM     26 CL   UNL     1       2.849   3.542  10.266  0.00  0.00    +0.000 Cl
ATOM     27  C   UNL     1       4.779   3.948  12.111  0.00  0.00    +0.000 A 
ENDBRANCH   6  21
TORSDOF 5
ENDMDL
MODEL 2
REMARK VINA RESULT:      -6.9      5.631      8.867
REMARK  Name = 
REMARK  8 active torsions:
REMARK  status: ('A' for Active; 'I' for Inactive)
REMARK    1  A    between atoms: C_1  and  O_2
REMARK    2  A    between atoms: O_2  and  C_3
REMARK    3  A    between atoms: C_3  and  C_4
REMARK    4  A    between atoms: C_4  and  N_5
REMARK    5  A    between atoms: C_6  and  C_7
REMARK    6  A    between atoms: C_9  and  C_10
REMARK    7  A    between atoms: N_15  and  C_16
REMARK    8  A    between atoms: C_25  and  C_26
REMARK                            x       y       z     vdW  Elec       q    Type
REMARK                         _______ _______ _______ _____ _____    ______ ____
ROOT
ATOM      1  C   UNL     1       2.814   7.656  17.240  0.00  0.00    +0.000 C 
ATOM      2  C   UNL     1       2.027   8.489  17.927  0.00  0.00    +0.000 C 
ATOM      3  N   UNL     1       1.304   9.511  17.396  0.00  0.00    +0.000 N 
ATOM      4  C   UNL     1       0.541  10.125  18.381  0.00  0.00    +0.000 C 
ATOM      5  O   UNL     1      -0.194  11.070  18.135  0.00  0.00    +0.000 OA
ATOM      6  N   UNL     1       0.807   9.491  19.592  0.00  0.00    +0.000 N 
ATOM      7  C   UNL     1       1.730   8.474  19.399  0.00  0.00    +0.000 C 
ATOM      8  O   UNL     1       2.189   7.685  20.206  0.00  0.00    +0.000 OA
ATOM      9  H   UNL     1       1.274   9.793  16.427  0.00  0.00    +0.000 HD
ENDROOT
BRANCH   1  14
ATOM     10  N   UNL     1       4.042   4.513  18.494  0.00  0.00    +0.000 N 
ATOM     11  C   UNL     1       5.202   5.269  18.560  0.00  0.00    +0.000 A 
ATOM     12  C   UNL     1       6.549   4.744  18.915  0.00  0.00    +0.000 C 
ATOM     13  C   UNL     1       4.871   6.562  18.203  0.00  0.00    +0.000 A 
ATOM     14  C   UNL     1       3.514   6.563  17.821  0.00  0.00    +0.000 A 
ATOM     15  C   UNL     1       3.005   5.293  18.005  0.00  0.00    +0.000 A 
ATOM     16  C   UNL     1       1.649   4.755  17.698  0.00  0.00    +0.000 C 
BRANCH  10  17
ATOM     17  C   UNL     1       3.938   3.108  18.864  0.00  0.00    +0.000 C 
BRANCH  17  18
ATOM     18  C   UNL     1       3.499   2.941  20.314  0.00  0.00    +0.000 C 
BRANCH  18  20
ATOM     19  C   UNL     1       1.305   3.138  21.124  0.00  0.00    +0.000 C 
ATOM     20  O   UNL     1       2.205   2.340  20.363  0.00  0.00    +0.000 OA
ENDBRANCH  18  20
ENDBRANCH  17  18
ENDBRANCH  10  17
ENDBRANCH   1  14
BRANCH   6  21
ATOM     21  C   UNL     1       0.183   9.776  20.838  0.00  0.00    +0.000 A 
ATOM     22  C   UNL     1      -0.149   8.754  21.738  0.00  0.00    +0.000 A 
ATOM     23  C   UNL     1      -0.685   9.044  22.999  0.00  0.00    +0.000 A 
ATOM     24  C   UNL     1      -0.923  10.362  23.373  0.00  0.00    +0.000 A 
ATOM     25  C   UNL     1      -0.628  11.387  22.481  0.00  0.00    +0.000 A 
ATOM     26 CL   UNL     1      -0.941  13.020  22.923  0.00  0.00    +0.000 Cl
ATOM     27  C   UNL     1      -0.081  11.101  21.229  0.00  0.00    +0.000 A 
ENDBRANCH   6  21
TORSDOF 5
ENDMDL
MODEL 3
REMARK VINA RESULT:      -6.9      1.214      1.628
REMARK  Name = 
REMARK  8 active torsions:
REMARK  status: ('A' for Active; 'I' for Inactive)
REMARK    1  A    between atoms: C_1  and  O_2
REMARK    2  A    between atoms: O_2  and  C_3
REMARK    3  A    between atoms: C_3  and  C_4
REMARK    4  A    between atoms: C_4  and  N_5
REMARK    5  A    between atoms: C_6  and  C_7
REMARK    6  A    between atoms: C_9  and  C_10
REMARK    7  A    between atoms: N_15  and  C_16
REMARK    8  A    between atoms: C_25  and  C_26
REMARK                            x       y       z     vdW  Elec       q    Type
REMARK                         _______ _______ _______ _____ _____    ______ ____
ROOT
ATOM      1  C   UNL     1       6.377   5.657  17.447  0.00  0.00    +0.000 C 
ATOM      2  C   UNL     1       6.554   5.372  16.153  0.00  0.00    +0.000 C 
ATOM      3  N   UNL     1       7.586   5.809  15.383  0.00  0.00    +0.000 N 
ATOM      4  C   UNL     1       7.501   5.264  14.108  0.00  0.00    +0.000 C 
ATOM      5  O   UNL     1       8.325   5.514  13.241  0.00  0.00    +0.000 OA
ATOM      6  N   UNL     1       6.357   4.471  14.053  0.00  0.00    +0.000 N 
ATOM      7  C   UNL     1       5.706   4.496  15.277  0.00  0.00    +0.000 C 
ATOM      8  O   UNL     1       4.695   3.912  15.624  0.00  0.00    +0.000 OA
ATOM      9  H   UNL     1       8.341   6.416  15.668  0.00  0.00    +0.000 HD
ENDROOT
BRANCH   1  14
ATOM     10  N   UNL     1       3.304   4.821  19.127  0.00  0.00    +0.000 N 
ATOM     11  C   UNL     1       4.057   3.697  19.428  0.00  0.00    +0.000 A 
ATOM     12  C   UNL     1       3.547   2.484  20.123  0.00  0.00    +0.000 C 
ATOM     13  C   UNL     1       5.329   3.910  18.933  0.00  0.00    +0.000 A 
ATOM     14  C   UNL     1       5.315   5.136  18.237  0.00  0.00    +0.000 A 
ATOM     15  C   UNL     1       4.059   5.697  18.362  0.00  0.00    +0.000 A 
ATOM     16  C   UNL     1       3.512   6.951  17.769  0.00  0.00    +0.000 C 
BRANCH  10  17
ATOM     17  C   UNL     1       1.923   5.037  19.537  0.00  0.00    +0.000 C 
BRANCH  17  18
ATOM     18  C   UNL     1       1.841   5.730  20.892  0.00  0.00    +0.000 C 
BRANCH  18  20
ATOM     19  C   UNL     1       1.572   8.057  20.743  0.00  0.00    +0.000 C 
ATOM     20  O   UNL     1       0.902   6.804  20.830  0.00  0.00    +0.000 OA
ENDBRANCH  18  20
ENDBRANCH  17  18
ENDBRANCH  10  17
ENDBRANCH   1  14
BRANCH   6  21
ATOM     21  C   UNL     1       5.941   3.685  12.943  0.00  0.00    +0.000 A 
ATOM     22  C   UNL     1       6.650   2.540  12.554  0.00  0.00    +0.000 A 
ATOM     23  C   UNL     1       6.190   1.721  11.516  0.00  0.00    +0.000 A 
ATOM     24  C   UNL     1       5.025   2.046  10.829  0.00  0.00    +0.000 A 
ATOM     25  C   UNL     1       4.326   3.196  11.181  0.00  0.00    +0.000 A 
ATOM     26 CL   UNL     1       2.897   3.622  10.322  0.00  0.00    +0.000 Cl
ATOM     27  C   UNL     1       4.775   4.006  12.224  0.00  0.00    +0.000 A 
ENDBRANCH   6  21
TORSDOF 5
ENDMDL
MODEL 4
REMARK VINA RESULT:      -6.9      1.027      1.119
REMARK  Name = 
REMARK  8 active torsions:
REMARK  status: ('A' for Active; 'I' for Inactive)
REMARK    1  A    between atoms: C_1  and  O_2
REMARK    2  A    between atoms: O_2  and  C_3
REMARK    3  A    between atoms: C_3  and  C_4
REMARK    4  A    between atoms: C_4  and  N_5
REMARK    5  A    between atoms: C_6  and  C_7
REMARK    6  A    between atoms: C_9  and  C_10
REMARK    7  A    between atoms: N_15  and  C_16
REMARK    8  A    between atoms: C_25  and  C_26
REMARK                            x       y       z     vdW  Elec       q    Type
REMARK                         _______ _______ _______ _____ _____    ______ ____
ROOT
ATOM      1  C   UNL     1       6.572   5.608  17.286  0.00  0.00    +0.000 C 
ATOM      2  C   UNL     1       6.713   5.351  15.982  0.00  0.00    +0.000 C 
ATOM      3  N   UNL     1       7.644   5.910  15.162  0.00  0.00    +0.000 N 
ATOM      4  C   UNL     1       7.557   5.363  13.888  0.00  0.00    +0.000 C 
ATOM      5  O   UNL     1       8.298   5.712  12.982  0.00  0.00    +0.000 OA
ATOM      6  N   UNL     1       6.513   4.439  13.885  0.00  0.00    +0.000 N 
ATOM      7  C   UNL     1       5.929   4.383  15.142  0.00  0.00    +0.000 C 
ATOM      8  O   UNL     1       5.014   3.683  15.536  0.00  0.00    +0.000 OA
ATOM      9  H   UNL     1       8.335   6.601  15.414  0.00  0.00    +0.000 HD
ENDROOT
BRANCH   1  14
ATOM     10  N   UNL     1       3.710   4.396  19.102  0.00  0.00    +0.000 N 
ATOM     11  C   UNL     1       4.618   3.387  19.382  0.00  0.00    +0.000 A 
ATOM     12  C   UNL     1       4.305   2.128  20.111  0.00  0.00    +0.000 C 
ATOM     13  C   UNL     1       5.829   3.761  18.832  0.00  0.00    +0.000 A 
ATOM     14  C   UNL     1       5.622   4.962  18.125  0.00  0.00    +0.000 A 
ATOM     15  C   UNL     1       4.309   5.352  18.297  0.00  0.00    +0.000 A 
ATOM     16  C   UNL     1       3.575   6.512  17.714  0.00  0.00    +0.000 C 
BRANCH  10  17
ATOM     17  C   UNL     1       2.330   4.431  19.568  0.00  0.00    +0.000 C 
BRANCH  17  18
ATOM     18  C   UNL     1       2.234   4.936  21.002  0.00  0.00    +0.000 C 
BRANCH  18  20
ATOM     19  C   UNL     1       1.239   2.847  21.390  0.00  0.00    +0.000 C 
ATOM     20  O   UNL     1       2.133   3.830  21.899  0.00  0.00    +0.000 OA
ENDBRANCH  18  20
ENDBRANCH  17  18
ENDBRANCH  10  17
ENDBRANCH   1  14
BRANCH   6  21
ATOM     21  C   UNL     1       6.135   3.614  12.791  0.00  0.00    +0.000 A 
ATOM     22  C   UNL     1       6.992   2.621  12.297  0.00  0.00    +0.000 A 
ATOM     23  C   UNL     1       6.584   1.753  11.277  0.00  0.00    +0.000 A 
ATOM     24  C   UNL     1       5.318   1.879  10.714  0.00  0.00    +0.000 A 
ATOM     25  C   UNL     1       4.466   2.878  11.171  0.00  0.00    +0.000 A 
ATOM     26 CL   UNL     1       2.907   3.059  10.466  0.00  0.00    +0.000 Cl
ATOM     27  C   UNL     1       4.865   3.735  12.197  0.00  0.00    +0.000 A 
ENDBRANCH   6  21
TORSDOF 5
ENDMDL
MODEL 5
REMARK VINA RESULT:      -6.8      1.100      1.447
REMARK  Name = 
REMARK  8 active torsions:
REMARK  status: ('A' for Active; 'I' for Inactive)
REMARK    1  A    between atoms: C_1  and  O_2
REMARK    2  A    between atoms: O_2  and  C_3
REMARK    3  A    between atoms: C_3  and  C_4
REMARK    4  A    between atoms: C_4  and  N_5
REMARK    5  A    between atoms: C_6  and  C_7
REMARK    6  A    between atoms: C_9  and  C_10
REMARK    7  A    between atoms: N_15  and  C_16
REMARK    8  A    between atoms: C_25  and  C_26
REMARK                            x       y       z     vdW  Elec       q    Type
REMARK                         _______ _______ _______ _____ _____    ______ ____
ROOT
ATOM      1  C   UNL     1       6.579   5.623  17.585  0.00  0.00    +0.000 C 
ATOM      2  C   UNL     1       6.626   5.363  16.274  0.00  0.00    +0.000 C 
ATOM      3  N   UNL     1       7.591   5.792  15.418  0.00  0.00    +0.000 N 
ATOM      4  C   UNL     1       7.372   5.278  14.146  0.00  0.00    +0.000 C 
ATOM      5  O   UNL     1       8.117   5.527  13.211  0.00  0.00    +0.000 OA
ATOM      6  N   UNL     1       6.207   4.515  14.184  0.00  0.00    +0.000 N 
ATOM      7  C   UNL     1       5.675   4.528  15.465  0.00  0.00    +0.000 C 
ATOM      8  O   UNL     1       4.686   3.963  15.895  0.00  0.00    +0.000 OA
ATOM      9  H   UNL     1       8.386   6.374  15.643  0.00  0.00    +0.000 HD
ENDROOT
BRANCH   1  14
ATOM     10  N   UNL     1       3.647   4.805  19.507  0.00  0.00    +0.000 N 
ATOM     11  C   UNL     1       4.425   3.687  19.765  0.00  0.00    +0.000 A 
ATOM     12  C   UNL     1       3.975   2.483  20.516  0.00  0.00    +0.000 C 
ATOM     13  C   UNL     1       5.654   3.896  19.171  0.00  0.00    +0.000 A 
ATOM     14  C   UNL     1       5.582   5.111  18.461  0.00  0.00    +0.000 A 
ATOM     15  C   UNL     1       4.338   5.671  18.674  0.00  0.00    +0.000 A 
ATOM     16  C   UNL     1       3.742   6.914  18.106  0.00  0.00    +0.000 C 
BRANCH  10  17
ATOM     17  C   UNL     1       2.300   5.022  20.019  0.00  0.00    +0.000 C 
BRANCH  17  18
ATOM     18  C   UNL     1       1.247   4.415  19.100  0.00  0.00    +0.000 C 
BRANCH  18  20
ATOM     19  C   UNL     1       0.770   2.137  18.797  0.00  0.00    +0.000 C 
ATOM     20  O   UNL     1       0.704   3.237  19.698  0.00  0.00    +0.000 OA
ENDBRANCH  18  20
ENDBRANCH  17  18
ENDBRANCH  10  17
ENDBRANCH   1  14
BRANCH   6  21
ATOM     21  C   UNL     1       5.667   3.765  13.103  0.00  0.00    +0.000 A 
ATOM     22  C   UNL     1       4.490   4.164  12.456  0.00  0.00    +0.000 A 
ATOM     23  C   UNL     1       4.007   3.472  11.338  0.00  0.00    +0.000 A 
ATOM     24  C   UNL     1       4.680   2.352  10.862  0.00  0.00    +0.000 A 
ATOM     25  C   UNL     1       5.833   1.924  11.511  0.00  0.00    +0.000 A 
ATOM     26 CL   UNL     1       6.660   0.524  10.947  0.00  0.00    +0.000 Cl
ATOM     27  C   UNL     1       6.323   2.619  12.616  0.00  0.00    +0.000 A 
ENDBRANCH   6  21
TORSDOF 5
ENDMDL
MODEL 6
REMARK VINA RESULT:      -6.7      1.725      2.265
REMARK  Name = 
REMARK  8 active torsions:
REMARK  status: ('A' for Active; 'I' for Inactive)
REMARK    1  A    between atoms: C_1  and  O_2
REMARK    2  A    between atoms: O_2  and  C_3
REMARK    3  A    between atoms: C_3  and  C_4
REMARK    4  A    between atoms: C_4  and  N_5
REMARK    5  A    between atoms: C_6  and  C_7
REMARK    6  A    between atoms: C_9  and  C_10
REMARK    7  A    between atoms: N_15  and  C_16
REMARK    8  A    between atoms: C_25  and  C_26
REMARK                            x       y       z     vdW  Elec       q    Type
REMARK                         _______ _______ _______ _____ _____    ______ ____
ROOT
ATOM      1  C   UNL     1       6.390   5.723  17.452  0.00  0.00    +0.000 C 
ATOM      2  C   UNL     1       6.502   5.409  16.158  0.00  0.00    +0.000 C 
ATOM      3  N   UNL     1       7.539   5.752  15.349  0.00  0.00    +0.000 N 
ATOM      4  C   UNL     1       7.370   5.200  14.085  0.00  0.00    +0.000 C 
ATOM      5  O   UNL     1       8.183   5.372  13.190  0.00  0.00    +0.000 OA
ATOM      6  N   UNL     1       6.166   4.499  14.079  0.00  0.00    +0.000 N 
ATOM      7  C   UNL     1       5.559   4.592  15.322  0.00  0.00    +0.000 C 
ATOM      8  O   UNL     1       4.516   4.096  15.710  0.00  0.00    +0.000 OA
ATOM      9  H   UNL     1       8.349   6.300  15.601  0.00  0.00    +0.000 HD
ENDROOT
BRANCH   1  14
ATOM     10  N   UNL     1       3.305   5.127  19.208  0.00  0.00    +0.000 N 
ATOM     11  C   UNL     1       4.013   3.994  19.575  0.00  0.00    +0.000 A 
ATOM     12  C   UNL     1       3.462   2.851  20.352  0.00  0.00    +0.000 C 
ATOM     13  C   UNL     1       5.288   4.122  19.057  0.00  0.00    +0.000 A 
ATOM     14  C   UNL     1       5.316   5.299  18.283  0.00  0.00    +0.000 A 
ATOM     15  C   UNL     1       4.086   5.919  18.382  0.00  0.00    +0.000 A 
ATOM     16  C   UNL     1       3.584   7.154  17.713  0.00  0.00    +0.000 C 
BRANCH  10  17
ATOM     17  C   UNL     1       1.937   5.426  19.615  0.00  0.00    +0.000 C 
BRANCH  17  18
ATOM     18  C   UNL     1       1.902   6.341  20.833  0.00  0.00    +0.000 C 
BRANCH  18  20
ATOM     19  C   UNL     1       1.143   8.465  21.481  0.00  0.00    +0.000 C 
ATOM     20  O   UNL     1       1.688   7.690  20.419  0.00  0.00    +0.000 OA
ENDBRANCH  18  20
ENDBRANCH  17  18
ENDBRANCH  10  17
ENDBRANCH   1  14
BRANCH   6  21
ATOM     21  C   UNL     1       5.652   3.735  12.995  0.00  0.00    +0.000 A 
ATOM     22  C   UNL     1       4.545   4.173  12.255  0.00  0.00    +0.000 A 
ATOM     23  C   UNL     1       4.094   3.462  11.136  0.00  0.00    +0.000 A 
ATOM     24  C   UNL     1       4.728   2.286  10.750  0.00  0.00    +0.000 A 
ATOM     25  C   UNL     1       5.809   1.821  11.491  0.00  0.00    +0.000 A 
ATOM     26 CL   UNL     1       6.586   0.353  11.039  0.00  0.00    +0.000 Cl
ATOM     27  C   UNL     1       6.268   2.535  12.598  0.00  0.00    +0.000 A 
ENDBRANCH   6  21
TORSDOF 5
ENDMDL
MODEL 7
REMARK VINA RESULT:      -6.6      5.717      8.563
REMARK  Name = 
REMARK  8 active torsions:
REMARK  status: ('A' for Active; 'I' for Inactive)
REMARK    1  A    between atoms: C_1  and  O_2
REMARK    2  A    between atoms: O_2  and  C_3
REMARK    3  A    between atoms: C_3  and  C_4
REMARK    4  A    between atoms: C_4  and  N_5
REMARK    5  A    between atoms: C_6  and  C_7
REMARK    6  A    between atoms: C_9  and  C_10
REMARK    7  A    between atoms: N_15  and  C_16
REMARK    8  A    between atoms: C_25  and  C_26
REMARK                            x       y       z     vdW  Elec       q    Type
REMARK                         _______ _______ _______ _____ _____    ______ ____
ROOT
ATOM      1  C   UNL     1       2.981   6.763  17.464  0.00  0.00    +0.000 C 
ATOM      2  C   UNL     1       2.499   7.795  18.163  0.00  0.00    +0.000 C 
ATOM      3  N   UNL     1       2.527   9.097  17.771  0.00  0.00    +0.000 N 
ATOM      4  C   UNL     1       1.873   9.896  18.701  0.00  0.00    +0.000 C 
ATOM      5  O   UNL     1       1.769  11.104  18.556  0.00  0.00    +0.000 OA
ATOM      6  N   UNL     1       1.436   9.078  19.740  0.00  0.00    +0.000 N 
ATOM      7  C   UNL     1       1.797   7.762  19.490  0.00  0.00    +0.000 C 
ATOM      8  O   UNL     1       1.572   6.763  20.149  0.00  0.00    +0.000 OA
ATOM      9  H   UNL     1       2.925   9.464  16.919  0.00  0.00    +0.000 HD
ENDROOT
BRANCH   1  14
ATOM     10  N   UNL     1       3.287   3.484  18.918  0.00  0.00    +0.000 N 
ATOM     11  C   UNL     1       2.016   3.388  18.373  0.00  0.00    +0.000 A 
ATOM     12  C   UNL     1       1.086   2.242  18.560  0.00  0.00    +0.000 C 
ATOM     13  C   UNL     1       1.782   4.556  17.672  0.00  0.00    +0.000 A 
ATOM     14  C   UNL     1       2.886   5.406  17.881  0.00  0.00    +0.000 A 
ATOM     15  C   UNL     1       3.816   4.737  18.652  0.00  0.00    +0.000 A 
ATOM     16  C   UNL     1       5.120   5.211  19.198  0.00  0.00    +0.000 C 
BRANCH  10  17
ATOM     17  C   UNL     1       3.953   2.431  19.674  0.00  0.00    +0.000 C 
BRANCH  17  18
ATOM     18  C   UNL     1       3.574   2.474  21.149  0.00  0.00    +0.000 C 
BRANCH  18  20
ATOM     19  C   UNL     1       1.399   2.833  21.955  0.00  0.00    +0.000 C 
ATOM     20  O   UNL     1       2.539   3.437  21.355  0.00  0.00    +0.000 OA
ENDBRANCH  18  20
ENDBRANCH  17  18
ENDBRANCH  10  17
ENDBRANCH   1  14
BRANCH   6  21
ATOM     21  C   UNL     1       0.668   9.496  20.862  0.00  0.00    +0.000 A 
ATOM     22  C   UNL     1       0.894   8.962  22.139  0.00  0.00    +0.000 A 
ATOM     23  C   UNL     1       0.196   9.437  23.256  0.00  0.00    +0.000 A 
ATOM     24  C   UNL     1      -0.760  10.437  23.114  0.00  0.00    +0.000 A 
ATOM     25  C   UNL     1      -1.019  10.955  21.850  0.00  0.00    +0.000 A 
ATOM     26 CL   UNL     1      -2.218  12.175  21.656  0.00  0.00    +0.000 Cl
ATOM     27  C   UNL     1      -0.315  10.494  20.737  0.00  0.00    +0.000 A 
ENDBRANCH   6  21
TORSDOF 5
ENDMDL
MODEL 8
REMARK VINA RESULT:      -6.3      5.771      8.555
REMARK  Name = 
REMARK  8 active torsions:
REMARK  status: ('A' for Active; 'I' for Inactive)
REMARK    1  A    between atoms: C_1  and  O_2
REMARK    2  A    between atoms: O_2  and  C_3
REMARK    3  A    between atoms: C_3  and  C_4
REMARK    4  A    between atoms: C_4  and  N_5
REMARK    5  A    between atoms: C_6  and  C_7
REMARK    6  A    between atoms: C_9  and  C_10
REMARK    7  A    between atoms: N_15  and  C_16
REMARK    8  A    between atoms: C_25  and  C_26
REMARK                            x       y       z     vdW  Elec       q    Type
REMARK                         _______ _______ _______ _____ _____    ______ ____
ROOT
ATOM      1  C   UNL     1       3.156   6.828  17.745  0.00  0.00    +0.000 C 
ATOM      2  C   UNL     1       2.566   7.865  18.347  0.00  0.00    +0.000 C 
ATOM      3  N   UNL     1       2.460   9.120  17.834  0.00  0.00    +0.000 N 
ATOM      4  C   UNL     1       1.724   9.931  18.689  0.00  0.00    +0.000 C 
ATOM      5  O   UNL     1       1.495  11.103  18.432  0.00  0.00    +0.000 OA
ATOM      6  N   UNL     1       1.370   9.174  19.804  0.00  0.00    +0.000 N 
ATOM      7  C   UNL     1       1.867   7.885  19.676  0.00  0.00    +0.000 C 
ATOM      8  O   UNL     1       1.745   6.934  20.427  0.00  0.00    +0.000 OA
ATOM      9  H   UNL     1       2.821   9.445  16.949  0.00  0.00    +0.000 HD
ENDROOT
BRANCH   1  14
ATOM     10  N   UNL     1       2.774   3.365  18.653  0.00  0.00    +0.000 N 
ATOM     11  C   UNL     1       3.977   3.647  19.280  0.00  0.00    +0.000 A 
ATOM     12  C   UNL     1       4.842   2.649  19.966  0.00  0.00    +0.000 C 
ATOM     13  C   UNL     1       4.220   4.997  19.113  0.00  0.00    +0.000 A 
ATOM     14  C   UNL     1       3.201   5.514  18.289  0.00  0.00    +0.000 A 
ATOM     15  C   UNL     1       2.307   4.500  18.009  0.00  0.00    +0.000 A 
ATOM     16  C   UNL     1       1.095   4.510  17.139  0.00  0.00    +0.000 C 
BRANCH  10  17
ATOM     17  C   UNL     1       2.114   2.066  18.656  0.00  0.00    +0.000 C 
BRANCH  17  18
ATOM     18  C   UNL     1       1.056   1.976  19.749  0.00  0.00    +0.000 C 
BRANCH  18  20
ATOM     19  C   UNL     1       1.526   2.811  21.891  0.00  0.00    +0.000 C 
ATOM     20  O   UNL     1       1.110   3.143  20.571  0.00  0.00    +0.000 OA
ENDBRANCH  18  20
ENDBRANCH  17  18
ENDBRANCH  10  17
ENDBRANCH   1  14
BRANCH   6  21
ATOM     21  C   UNL     1       0.560   9.613  20.886  0.00  0.00    +0.000 A 
ATOM     22  C   UNL     1       0.712   9.080  22.174  0.00  0.00    +0.000 A 
ATOM     23  C   UNL     1      -0.028   9.575  23.255  0.00  0.00    +0.000 A 
ATOM     24  C   UNL     1      -0.953  10.595  23.064  0.00  0.00    +0.000 A 
ATOM     25  C   UNL     1      -1.139  11.115  21.787  0.00  0.00    +0.000 A 
ATOM     26 CL   UNL     1      -2.299  12.360  21.533  0.00  0.00    +0.000 Cl
ATOM     27  C   UNL     1      -0.393  10.633  20.711  0.00  0.00    +0.000 A 
ENDBRANCH   6  21
TORSDOF 5
ENDMDL
MODEL 9
REMARK VINA RESULT:      -6.3      5.352      8.961
REMARK  Name = 
REMARK  8 active torsions:
REMARK  status: ('A' for Active; 'I' for Inactive)
REMARK    1  A    between atoms: C_1  and  O_2
REMARK    2  A    between atoms: O_2  and  C_3
REMARK    3  A    between atoms: C_3  and  C_4
REMARK    4  A    between atoms: C_4  and  N_5
REMARK    5  A    between atoms: C_6  and  C_7
REMARK    6  A    between atoms: C_9  and  C_10
REMARK    7  A    between atoms: N_15  and  C_16
REMARK    8  A    between atoms: C_25  and  C_26
REMARK                            x       y       z     vdW  Elec       q    Type
REMARK                         _______ _______ _______ _____ _____    ______ ____
ROOT
ATOM      1  C   UNL     1       1.987   6.777  21.067  0.00  0.00    +0.000 C 
ATOM      2  C   UNL     1       1.435   7.994  21.024  0.00  0.00    +0.000 C 
ATOM      3  N   UNL     1       0.976   8.692  22.096  0.00  0.00    +0.000 N 
ATOM      4  C   UNL     1       0.536   9.949  21.702  0.00  0.00    +0.000 C 
ATOM      5  O   UNL     1       0.083  10.756  22.501  0.00  0.00    +0.000 OA
ATOM      6  N   UNL     1       0.694  10.049  20.322  0.00  0.00    +0.000 N 
ATOM      7  C   UNL     1       1.232   8.872  19.822  0.00  0.00    +0.000 C 
ATOM      8  O   UNL     1       1.536   8.589  18.678  0.00  0.00    +0.000 OA
ATOM      9  H   UNL     1       0.969   8.388  23.059  0.00  0.00    +0.000 HD
ENDROOT
BRANCH   1  14
ATOM     10  N   UNL     1       2.738   4.664  18.251  0.00  0.00    +0.000 N 
ATOM     11  C   UNL     1       3.617   5.707  18.011  0.00  0.00    +0.000 A 
ATOM     12  C   UNL     1       4.460   5.856  16.793  0.00  0.00    +0.000 C 
ATOM     13  C   UNL     1       3.527   6.575  19.082  0.00  0.00    +0.000 A 
ATOM     14  C   UNL     1       2.507   6.099  19.930  0.00  0.00    +0.000 A 
ATOM     15  C   UNL     1       2.023   4.914  19.413  0.00  0.00    +0.000 A 
ATOM     16  C   UNL     1       0.910   4.048  19.895  0.00  0.00    +0.000 C 
BRANCH  10  17
ATOM     17  C   UNL     1       2.576   3.493  17.399  0.00  0.00    +0.000 C 
BRANCH  17  18
ATOM     18  C   UNL     1       3.658   2.453  17.665  0.00  0.00    +0.000 C 
BRANCH  18  20
ATOM     19  C   UNL     1       4.326   2.067  19.882  0.00  0.00    +0.000 C 
ATOM     20  O   UNL     1       3.370   1.753  18.876  0.00  0.00    +0.000 OA
ENDBRANCH  18  20
ENDBRANCH  17  18
ENDBRANCH  10  17
ENDBRANCH   1  14
BRANCH   6  21
ATOM     21  C   UNL     1       0.420  11.200  19.533  0.00  0.00    +0.000 A 
ATOM     22  C   UNL     1      -0.847  11.416  18.973  0.00  0.00    +0.000 A 
ATOM     23  C   UNL     1      -1.138  12.590  18.269  0.00  0.00    +0.000 A 
ATOM     24  C   UNL     1      -0.158  13.561  18.089  0.00  0.00    +0.000 A 
ATOM     25  C   UNL     1       1.114  13.349  18.611  0.00  0.00    +0.000 A 
ATOM     26 CL   UNL     1       2.342  14.532  18.373  0.00  0.00    +0.000 Cl
ATOM     27  C   UNL     1       1.402  12.186  19.325  0.00  0.00    +0.000 A 
ENDBRANCH   6  21
TORSDOF 5
ENDMDL
