MODEL 1
REMARK VINA RESULT:      -6.7      0.000      0.000
REMARK  Name = 
REMARK  10 active torsions:
REMARK  status: ('A' for Active; 'I' for Inactive)
REMARK    1  A    between atoms: C_1  and  C_2
REMARK    2  A    between atoms: C_2  and  C_3
REMARK    3  A    between atoms: C_3  and  C_4
REMARK    4  A    between atoms: C_4  and  N_5
REMARK    5  A    between atoms: N_5  and  C_6
REMARK    6  A    between atoms: N_5  and  N_10
REMARK    7  A    between atoms: C_6  and  C_7
REMARK    8  A    between atoms: C_7  and  C_8
REMARK    9  A    between atoms: C_8  and  C_9
REMARK   10  A    between atoms: C_11  and  C_13
REMARK                            x       y       z     vdW  Elec       q    Type
REMARK                         _______ _______ _______ _____ _____    ______ ____
ROOT
ATOM      1  N   UNL     1       4.566   4.214  16.895  0.00  0.00    +0.000 N 
ATOM      2  C   UNL     1       3.734   5.111  17.554  0.00  0.00    +0.000 C 
ATOM      3  O   UNL     1       3.782   6.331  17.468  0.00  0.00    +0.000 OA
ATOM      4  H   UNL     1       4.323   3.230  16.887  0.00  0.00    +0.000 HD
ENDROOT
BRANCH   2   5
ATOM      5  C   UNL     1       2.665   4.459  18.372  0.00  0.00    +0.000 A 
ATOM      6  C   UNL     1       2.223   5.015  19.582  0.00  0.00    +0.000 A 
ATOM      7  C   UNL     1       1.266   4.351  20.352  0.00  0.00    +0.000 A 
ATOM      8  C   UNL     1       0.737   3.137  19.910  0.00  0.00    +0.000 A 
ATOM      9  C   UNL     1       1.146   2.597  18.692  0.00  0.00    +0.000 A 
ATOM     10  C   UNL     1       2.107   3.258  17.920  0.00  0.00    +0.000 A 
ENDBRANCH   2   5
BRANCH   1  11
ATOM     11  N   UNL     1       5.599   4.644  16.021  0.00  0.00    +0.000 NA
BRANCH  11  12
ATOM     12  C   UNL     1       6.808   4.946  16.808  0.00  0.00    +0.000 C 
BRANCH  12  13
ATOM     13  C   UNL     1       7.236   6.415  16.911  0.00  0.00    +0.000 C 
BRANCH  13  15
ATOM     14  C   UNL     1       7.639   5.663  19.268  0.00  0.00    +0.000 C 
ATOM     15  C   UNL     1       7.758   6.822  18.288  0.00  0.00    +0.000 C 
ENDBRANCH  13  15
ENDBRANCH  12  13
ENDBRANCH  11  12
BRANCH  11  16
ATOM     16  C   UNL     1       5.795   3.676  14.924  0.00  0.00    +0.000 C 
BRANCH  16  17
ATOM     17  C   UNL     1       6.305   4.287  13.610  0.00  0.00    +0.000 C 
BRANCH  17  18
ATOM     18  C   UNL     1       6.166   3.323  12.430  0.00  0.00    +0.000 C 
ATOM     19  C   UNL     1       4.760   3.382  11.851  0.00  0.00    +0.000 C 
ENDBRANCH  17  18
ENDBRANCH  16  17
ENDBRANCH  11  16
ENDBRANCH   1  11
TORSDOF 8
ENDMDL
MODEL 2
REMARK VINA RESULT:      -6.7      1.419      4.186
REMARK  Name = 
REMARK  10 active torsions:
REMARK  status: ('A' for Active; 'I' for Inactive)
REMARK    1  A    between atoms: C_1  and  C_2
REMARK    2  A    between atoms: C_2  and  C_3
REMARK    3  A    between atoms: C_3  and  C_4
REMARK    4  A    between atoms: C_4  and  N_5
REMARK    5  A    between atoms: N_5  and  C_6
REMARK    6  A    between atoms: N_5  and  N_10
REMARK    7  A    between atoms: C_6  and  C_7
REMARK    8  A    between atoms: C_7  and  C_8
REMARK    9  A    between atoms: C_8  and  C_9
REMARK   10  A    between atoms: C_11  and  C_13
REMARK                            x       y       z     vdW  Elec       q    Type
REMARK                         _______ _______ _______ _____ _____    ______ ____
ROOT
ATOM      1  N   UNL     1       4.715   4.347  17.333  0.00  0.00    +0.000 N 
ATOM      2  C   UNL     1       4.795   4.122  18.702  0.00  0.00    +0.000 C 
ATOM      3  O   UNL     1       5.804   4.221  19.388  0.00  0.00    +0.000 OA
ATOM      4  H   UNL     1       3.802   4.422  16.899  0.00  0.00    +0.000 HD
ENDROOT
BRANCH   2   5
ATOM      5  C   UNL     1       3.483   3.799  19.344  0.00  0.00    +0.000 A 
ATOM      6  C   UNL     1       2.852   2.562  19.144  0.00  0.00    +0.000 A 
ATOM      7  C   UNL     1       1.598   2.315  19.709  0.00  0.00    +0.000 A 
ATOM      8  C   UNL     1       0.977   3.296  20.483  0.00  0.00    +0.000 A 
ATOM      9  C   UNL     1       1.615   4.514  20.713  0.00  0.00    +0.000 A 
ATOM     10  C   UNL     1       2.868   4.766  20.147  0.00  0.00    +0.000 A 
ENDBRANCH   2   5
BRANCH   1  11
ATOM     11  N   UNL     1       5.844   4.729  16.564  0.00  0.00    +0.000 NA
BRANCH  11  12
ATOM     12  C   UNL     1       6.036   3.762  15.468  0.00  0.00    +0.000 C 
BRANCH  12  13
ATOM     13  C   UNL     1       5.510   4.152  14.081  0.00  0.00    +0.000 C 
BRANCH  13  15
ATOM     14  C   UNL     1       5.787   2.896  11.930  0.00  0.00    +0.000 C 
ATOM     15  C   UNL     1       6.462   3.822  12.933  0.00  0.00    +0.000 C 
ENDBRANCH  13  15
ENDBRANCH  12  13
ENDBRANCH  11  12
BRANCH  11  16
ATOM     16  C   UNL     1       5.737   6.139  16.138  0.00  0.00    +0.000 C 
BRANCH  16  17
ATOM     17  C   UNL     1       6.066   7.167  17.230  0.00  0.00    +0.000 C 
BRANCH  17  18
ATOM     18  C   UNL     1       7.546   7.147  17.617  0.00  0.00    +0.000 C 
ATOM     19  C   UNL     1       8.075   8.564  17.787  0.00  0.00    +0.000 C 
ENDBRANCH  17  18
ENDBRANCH  16  17
ENDBRANCH  11  16
ENDBRANCH   1  11
TORSDOF 8
ENDMDL
MODEL 3
REMARK VINA RESULT:      -6.7      1.554      4.310
REMARK  Name = 
REMARK  10 active torsions:
REMARK  status: ('A' for Active; 'I' for Inactive)
REMARK    1  A    between atoms: C_1  and  C_2
REMARK    2  A    between atoms: C_2  and  C_3
REMARK    3  A    between atoms: C_3  and  C_4
REMARK    4  A    between atoms: C_4  and  N_5
REMARK    5  A    between atoms: N_5  and  C_6
REMARK    6  A    between atoms: N_5  and  N_10
REMARK    7  A    between atoms: C_6  and  C_7
REMARK    8  A    between atoms: C_7  and  C_8
REMARK    9  A    between atoms: C_8  and  C_9
REMARK   10  A    between atoms: C_11  and  C_13
REMARK                            x       y       z     vdW  Elec       q    Type
REMARK                         _______ _______ _______ _____ _____    ______ ____
ROOT
ATOM      1  N   UNL     1       5.390   4.505  17.190  0.00  0.00    +0.000 N 
ATOM      2  C   UNL     1       5.005   4.023  18.435  0.00  0.00    +0.000 C 
ATOM      3  O   UNL     1       5.692   4.023  19.448  0.00  0.00    +0.000 OA
ATOM      4  H   UNL     1       4.686   4.631  16.471  0.00  0.00    +0.000 HD
ENDROOT
BRANCH   2   5
ATOM      5  C   UNL     1       3.591   3.539  18.489  0.00  0.00    +0.000 A 
ATOM      6  C   UNL     1       2.542   4.265  17.905  0.00  0.00    +0.000 A 
ATOM      7  C   UNL     1       1.225   3.815  18.026  0.00  0.00    +0.000 A 
ATOM      8  C   UNL     1       0.953   2.634  18.718  0.00  0.00    +0.000 A 
ATOM      9  C   UNL     1       1.995   1.890  19.271  0.00  0.00    +0.000 A 
ATOM     10  C   UNL     1       3.314   2.339  19.154  0.00  0.00    +0.000 A 
ENDBRANCH   2   5
BRANCH   1  11
ATOM     11  N   UNL     1       6.673   5.066  16.961  0.00  0.00    +0.000 NA
BRANCH  11  12
ATOM     12  C   UNL     1       7.226   4.522  15.708  0.00  0.00    +0.000 C 
BRANCH  12  13
ATOM     13  C   UNL     1       6.549   4.938  14.396  0.00  0.00    +0.000 C 
BRANCH  13  15
ATOM     14  C   UNL     1       6.371   3.535  12.327  0.00  0.00    +0.000 C 
ATOM     15  C   UNL     1       5.779   3.816  13.702  0.00  0.00    +0.000 C 
ENDBRANCH  13  15
ENDBRANCH  12  13
ENDBRANCH  11  12
BRANCH  11  16
ATOM     16  C   UNL     1       6.621   6.541  17.030  0.00  0.00    +0.000 C 
BRANCH  16  17
ATOM     17  C   UNL     1       7.738   7.184  17.865  0.00  0.00    +0.000 C 
BRANCH  17  18
ATOM     18  C   UNL     1       7.866   8.686  17.601  0.00  0.00    +0.000 C 
ATOM     19  C   UNL     1       8.740   9.344  18.658  0.00  0.00    +0.000 C 
ENDBRANCH  17  18
ENDBRANCH  16  17
ENDBRANCH  11  16
ENDBRANCH   1  11
TORSDOF 8
ENDMDL
MODEL 4
REMARK VINA RESULT:      -6.6      1.114      1.634
REMARK  Name = 
REMARK  10 active torsions:
REMARK  status: ('A' for Active; 'I' for Inactive)
REMARK    1  A    between atoms: C_1  and  C_2
REMARK    2  A    between atoms: C_2  and  C_3
REMARK    3  A    between atoms: C_3  and  C_4
REMARK    4  A    between atoms: C_4  and  N_5
REMARK    5  A    between atoms: N_5  and  C_6
REMARK    6  A    between atoms: N_5  and  N_10
REMARK    7  A    between atoms: C_6  and  C_7
REMARK    8  A    between atoms: C_7  and  C_8
REMARK    9  A    between atoms: C_8  and  C_9
REMARK   10  A    between atoms: C_11  and  C_13
REMARK                            x       y       z     vdW  Elec       q    Type
REMARK                         _______ _______ _______ _____ _____    ______ ____
ROOT
ATOM      1  N   UNL     1       5.422   4.341  16.229  0.00  0.00    +0.000 N 
ATOM      2  C   UNL     1       4.376   4.976  16.888  0.00  0.00    +0.000 C 
ATOM      3  O   UNL     1       4.187   6.185  16.937  0.00  0.00    +0.000 OA
ATOM      4  H   UNL     1       5.381   3.338  16.091  0.00  0.00    +0.000 HD
ENDROOT
BRANCH   2   5
ATOM      5  C   UNL     1       3.392   4.039  17.512  0.00  0.00    +0.000 A 
ATOM      6  C   UNL     1       3.722   2.704  17.790  0.00  0.00    +0.000 A 
ATOM      7  C   UNL     1       2.762   1.838  18.317  0.00  0.00    +0.000 A 
ATOM      8  C   UNL     1       1.473   2.305  18.581  0.00  0.00    +0.000 A 
ATOM      9  C   UNL     1       1.149   3.640  18.340  0.00  0.00    +0.000 A 
ATOM     10  C   UNL     1       2.107   4.508  17.809  0.00  0.00    +0.000 A 
ENDBRANCH   2   5
BRANCH   1  11
ATOM     11  N   UNL     1       6.418   5.064  15.522  0.00  0.00    +0.000 NA
BRANCH  11  12
ATOM     12  C   UNL     1       7.651   5.109  16.328  0.00  0.00    +0.000 C 
BRANCH  12  13
ATOM     13  C   UNL     1       7.560   4.644  17.787  0.00  0.00    +0.000 C 
BRANCH  13  15
ATOM     14  C   UNL     1       7.763   7.119  18.124  0.00  0.00    +0.000 C 
ATOM     15  C   UNL     1       7.523   5.780  18.807  0.00  0.00    +0.000 C 
ENDBRANCH  13  15
ENDBRANCH  12  13
ENDBRANCH  11  12
BRANCH  11  16
ATOM     16  C   UNL     1       6.586   4.526  14.157  0.00  0.00    +0.000 C 
BRANCH  16  17
ATOM     17  C   UNL     1       5.363   3.778  13.606  0.00  0.00    +0.000 C 
BRANCH  17  18
ATOM     18  C   UNL     1       5.611   3.217  12.204  0.00  0.00    +0.000 C 
ATOM     19  C   UNL     1       4.314   3.164  11.410  0.00  0.00    +0.000 C 
ENDBRANCH  17  18
ENDBRANCH  16  17
ENDBRANCH  11  16
ENDBRANCH   1  11
TORSDOF 8
ENDMDL
MODEL 5
REMARK VINA RESULT:      -6.6      1.049      1.824
REMARK  Name = 
REMARK  10 active torsions:
REMARK  status: ('A' for Active; 'I' for Inactive)
REMARK    1  A    between atoms: C_1  and  C_2
REMARK    2  A    between atoms: C_2  and  C_3
REMARK    3  A    between atoms: C_3  and  C_4
REMARK    4  A    between atoms: C_4  and  N_5
REMARK    5  A    between atoms: N_5  and  C_6
REMARK    6  A    between atoms: N_5  and  N_10
REMARK    7  A    between atoms: C_6  and  C_7
REMARK    8  A    between atoms: C_7  and  C_8
REMARK    9  A    between atoms: C_8  and  C_9
REMARK   10  A    between atoms: C_11  and  C_13
REMARK                            x       y       z     vdW  Elec       q    Type
REMARK                         _______ _______ _______ _____ _____    ______ ____
ROOT
ATOM      1  N   UNL     1       5.042   5.001  17.354  0.00  0.00    +0.000 N 
ATOM      2  C   UNL     1       3.838   5.553  17.774  0.00  0.00    +0.000 C 
ATOM      3  O   UNL     1       3.520   6.733  17.687  0.00  0.00    +0.000 OA
ATOM      4  H   UNL     1       5.129   3.993  17.298  0.00  0.00    +0.000 HD
ENDROOT
BRANCH   2   5
ATOM      5  C   UNL     1       2.862   4.552  18.305  0.00  0.00    +0.000 A 
ATOM      6  C   UNL     1       2.687   3.300  17.696  0.00  0.00    +0.000 A 
ATOM      7  C   UNL     1       1.725   2.412  18.180  0.00  0.00    +0.000 A 
ATOM      8  C   UNL     1       0.943   2.765  19.282  0.00  0.00    +0.000 A 
ATOM      9  C   UNL     1       1.136   3.993  19.913  0.00  0.00    +0.000 A 
ATOM     10  C   UNL     1       2.097   4.886  19.428  0.00  0.00    +0.000 A 
ENDBRANCH   2   5
BRANCH   1  11
ATOM     11  N   UNL     1       6.067   5.785  16.763  0.00  0.00    +0.000 NA
BRANCH  11  12
ATOM     12  C   UNL     1       7.310   5.627  17.538  0.00  0.00    +0.000 C 
BRANCH  12  13
ATOM     13  C   UNL     1       7.834   6.856  18.291  0.00  0.00    +0.000 C 
BRANCH  13  15
ATOM     14  C   UNL     1       8.457   9.283  18.218  0.00  0.00    +0.000 C 
ATOM     15  C   UNL     1       7.663   8.174  17.539  0.00  0.00    +0.000 C 
ENDBRANCH  13  15
ENDBRANCH  12  13
ENDBRANCH  11  12
BRANCH  11  16
ATOM     16  C   UNL     1       6.189   5.486  15.321  0.00  0.00    +0.000 C 
BRANCH  16  17
ATOM     17  C   UNL     1       6.015   4.005  14.954  0.00  0.00    +0.000 C 
BRANCH  17  18
ATOM     18  C   UNL     1       5.324   3.821  13.602  0.00  0.00    +0.000 C 
ATOM     19  C   UNL     1       6.344   3.516  12.515  0.00  0.00    +0.000 C 
ENDBRANCH  17  18
ENDBRANCH  16  17
ENDBRANCH  11  16
ENDBRANCH   1  11
TORSDOF 8
ENDMDL
MODEL 6
REMARK VINA RESULT:      -6.5      0.772      1.080
REMARK  Name = 
REMARK  10 active torsions:
REMARK  status: ('A' for Active; 'I' for Inactive)
REMARK    1  A    between atoms: C_1  and  C_2
REMARK    2  A    between atoms: C_2  and  C_3
REMARK    3  A    between atoms: C_3  and  C_4
REMARK    4  A    between atoms: C_4  and  N_5
REMARK    5  A    between atoms: N_5  and  C_6
REMARK    6  A    between atoms: N_5  and  N_10
REMARK    7  A    between atoms: C_6  and  C_7
REMARK    8  A    between atoms: C_7  and  C_8
REMARK    9  A    between atoms: C_8  and  C_9
REMARK   10  A    between atoms: C_11  and  C_13
REMARK                            x       y       z     vdW  Elec       q    Type
REMARK                         _______ _______ _______ _____ _____    ______ ____
ROOT
ATOM      1  N   UNL     1       4.679   4.848  17.164  0.00  0.00    +0.000 N 
ATOM      2  C   UNL     1       3.683   5.647  17.713  0.00  0.00    +0.000 C 
ATOM      3  O   UNL     1       3.563   6.855  17.554  0.00  0.00    +0.000 OA
ATOM      4  H   UNL     1       4.579   3.840  17.203  0.00  0.00    +0.000 HD
ENDROOT
BRANCH   2   5
ATOM      5  C   UNL     1       2.662   4.891  18.502  0.00  0.00    +0.000 A 
ATOM      6  C   UNL     1       2.337   5.249  19.819  0.00  0.00    +0.000 A 
ATOM      7  C   UNL     1       1.424   4.486  20.549  0.00  0.00    +0.000 A 
ATOM      8  C   UNL     1       0.823   3.371  19.964  0.00  0.00    +0.000 A 
ATOM      9  C   UNL     1       1.116   3.029  18.644  0.00  0.00    +0.000 A 
ATOM     10  C   UNL     1       2.032   3.790  17.911  0.00  0.00    +0.000 A 
ENDBRANCH   2   5
BRANCH   1  11
ATOM     11  N   UNL     1       5.698   5.378  16.332  0.00  0.00    +0.000 NA
BRANCH  11  12
ATOM     12  C   UNL     1       7.009   4.891  16.796  0.00  0.00    +0.000 C 
BRANCH  12  13
ATOM     13  C   UNL     1       7.308   4.990  18.298  0.00  0.00    +0.000 C 
BRANCH  13  15
ATOM     14  C   UNL     1       7.717   7.363  17.603  0.00  0.00    +0.000 C 
ATOM     15  C   UNL     1       7.781   6.369  18.755  0.00  0.00    +0.000 C 
ENDBRANCH  13  15
ENDBRANCH  12  13
ENDBRANCH  11  12
BRANCH  11  16
ATOM     16  C   UNL     1       5.404   5.112  14.908  0.00  0.00    +0.000 C 
BRANCH  16  17
ATOM     17  C   UNL     1       6.527   4.396  14.143  0.00  0.00    +0.000 C 
BRANCH  17  18
ATOM     18  C   UNL     1       6.002   3.637  12.923  0.00  0.00    +0.000 C 
ATOM     19  C   UNL     1       7.031   3.647  11.801  0.00  0.00    +0.000 C 
ENDBRANCH  17  18
ENDBRANCH  16  17
ENDBRANCH  11  16
ENDBRANCH   1  11
TORSDOF 8
ENDMDL
MODEL 7
REMARK VINA RESULT:      -6.5      1.462      1.858
REMARK  Name = 
REMARK  10 active torsions:
REMARK  status: ('A' for Active; 'I' for Inactive)
REMARK    1  A    between atoms: C_1  and  C_2
REMARK    2  A    between atoms: C_2  and  C_3
REMARK    3  A    between atoms: C_3  and  C_4
REMARK    4  A    between atoms: C_4  and  N_5
REMARK    5  A    between atoms: N_5  and  C_6
REMARK    6  A    between atoms: N_5  and  N_10
REMARK    7  A    between atoms: C_6  and  C_7
REMARK    8  A    between atoms: C_7  and  C_8
REMARK    9  A    between atoms: C_8  and  C_9
REMARK   10  A    between atoms: C_11  and  C_13
REMARK                            x       y       z     vdW  Elec       q    Type
REMARK                         _______ _______ _______ _____ _____    ______ ____
ROOT
ATOM      1  N   UNL     1       5.213   4.384  18.479  0.00  0.00    +0.000 N 
ATOM      2  C   UNL     1       3.851   4.634  18.356  0.00  0.00    +0.000 C 
ATOM      3  O   UNL     1       3.314   5.254  17.446  0.00  0.00    +0.000 OA
ATOM      4  H   UNL     1       5.529   3.705  19.162  0.00  0.00    +0.000 HD
ENDROOT
BRANCH   2   5
ATOM      5  C   UNL     1       3.017   4.003  19.425  0.00  0.00    +0.000 A 
ATOM      6  C   UNL     1       1.677   4.368  19.625  0.00  0.00    +0.000 A 
ATOM      7  C   UNL     1       0.944   3.804  20.671  0.00  0.00    +0.000 A 
ATOM      8  C   UNL     1       1.542   2.865  21.512  0.00  0.00    +0.000 A 
ATOM      9  C   UNL     1       2.862   2.472  21.298  0.00  0.00    +0.000 A 
ATOM     10  C   UNL     1       3.600   3.037  20.254  0.00  0.00    +0.000 A 
ENDBRANCH   2   5
BRANCH   1  11
ATOM     11  N   UNL     1       6.154   4.846  17.524  0.00  0.00    +0.000 NA
BRANCH  11  12
ATOM     12  C   UNL     1       7.466   5.015  18.175  0.00  0.00    +0.000 C 
BRANCH  12  13
ATOM     13  C   UNL     1       7.867   6.434  18.599  0.00  0.00    +0.000 C 
BRANCH  13  15
ATOM     14  C   UNL     1       8.160   8.848  17.992  0.00  0.00    +0.000 C 
ATOM     15  C   UNL     1       7.603   7.504  17.541  0.00  0.00    +0.000 C 
ENDBRANCH  13  15
ENDBRANCH  12  13
ENDBRANCH  11  12
BRANCH  11  16
ATOM     16  C   UNL     1       6.160   3.977  16.329  0.00  0.00    +0.000 C 
BRANCH  16  17
ATOM     17  C   UNL     1       6.900   4.557  15.116  0.00  0.00    +0.000 C 
BRANCH  17  18
ATOM     18  C   UNL     1       5.990   4.696  13.894  0.00  0.00    +0.000 C 
ATOM     19  C   UNL     1       6.218   3.548  12.921  0.00  0.00    +0.000 C 
ENDBRANCH  17  18
ENDBRANCH  16  17
ENDBRANCH  11  16
ENDBRANCH   1  11
TORSDOF 8
ENDMDL
MODEL 8
REMARK VINA RESULT:      -6.5      1.721      4.123
REMARK  Name = 
REMARK  10 active torsions:
REMARK  status: ('A' for Active; 'I' for Inactive)
REMARK    1  A    between atoms: C_1  and  C_2
REMARK    2  A    between atoms: C_2  and  C_3
REMARK    3  A    between atoms: C_3  and  C_4
REMARK    4  A    between atoms: C_4  and  N_5
REMARK    5  A    between atoms: N_5  and  C_6
REMARK    6  A    between atoms: N_5  and  N_10
REMARK    7  A    between atoms: C_6  and  C_7
REMARK    8  A    between atoms: C_7  and  C_8
REMARK    9  A    between atoms: C_8  and  C_9
REMARK   10  A    between atoms: C_11  and  C_13
REMARK                            x       y       z     vdW  Elec       q    Type
REMARK                         _______ _______ _______ _____ _____    ______ ____
ROOT
ATOM      1  N   UNL     1       4.916   4.237  18.166  0.00  0.00    +0.000 N 
ATOM      2  C   UNL     1       4.006   3.188  18.113  0.00  0.00    +0.000 C 
ATOM      3  O   UNL     1       3.962   2.319  17.252  0.00  0.00    +0.000 OA
ATOM      4  H   UNL     1       4.986   4.787  19.015  0.00  0.00    +0.000 HD
ENDROOT
BRANCH   2   5
ATOM      5  C   UNL     1       3.069   3.137  19.277  0.00  0.00    +0.000 A 
ATOM      6  C   UNL     1       3.482   2.672  20.534  0.00  0.00    +0.000 A 
ATOM      7  C   UNL     1       2.567   2.580  21.585  0.00  0.00    +0.000 A 
ATOM      8  C   UNL     1       1.239   2.963  21.387  0.00  0.00    +0.000 A 
ATOM      9  C   UNL     1       0.830   3.459  20.150  0.00  0.00    +0.000 A 
ATOM     10  C   UNL     1       1.744   3.549  19.096  0.00  0.00    +0.000 A 
ENDBRANCH   2   5
BRANCH   1  11
ATOM     11  N   UNL     1       5.925   4.411  17.183  0.00  0.00    +0.000 NA
BRANCH  11  12
ATOM     12  C   UNL     1       5.357   5.116  16.021  0.00  0.00    +0.000 C 
BRANCH  12  13
ATOM     13  C   UNL     1       5.239   4.333  14.707  0.00  0.00    +0.000 C 
BRANCH  13  15
ATOM     14  C   UNL     1       6.302   3.554  12.574  0.00  0.00    +0.000 C 
ATOM     15  C   UNL     1       6.543   4.232  13.917  0.00  0.00    +0.000 C 
ENDBRANCH  13  15
ENDBRANCH  12  13
ENDBRANCH  11  12
BRANCH  11  16
ATOM     16  C   UNL     1       7.125   5.043  17.769  0.00  0.00    +0.000 C 
BRANCH  16  17
ATOM     17  C   UNL     1       7.388   6.482  17.300  0.00  0.00    +0.000 C 
BRANCH  17  18
ATOM     18  C   UNL     1       8.067   7.328  18.379  0.00  0.00    +0.000 C 
ATOM     19  C   UNL     1       8.160   8.782  17.941  0.00  0.00    +0.000 C 
ENDBRANCH  17  18
ENDBRANCH  16  17
ENDBRANCH  11  16
ENDBRANCH   1  11
TORSDOF 8
ENDMDL
MODEL 9
REMARK VINA RESULT:      -6.5      1.560      3.949
REMARK  Name = 
REMARK  10 active torsions:
REMARK  status: ('A' for Active; 'I' for Inactive)
REMARK    1  A    between atoms: C_1  and  C_2
REMARK    2  A    between atoms: C_2  and  C_3
REMARK    3  A    between atoms: C_3  and  C_4
REMARK    4  A    between atoms: C_4  and  N_5
REMARK    5  A    between atoms: N_5  and  C_6
REMARK    6  A    between atoms: N_5  and  N_10
REMARK    7  A    between atoms: C_6  and  C_7
REMARK    8  A    between atoms: C_7  and  C_8
REMARK    9  A    between atoms: C_8  and  C_9
REMARK   10  A    between atoms: C_11  and  C_13
REMARK                            x       y       z     vdW  Elec       q    Type
REMARK                         _______ _______ _______ _____ _____    ______ ____
ROOT
ATOM      1  N   UNL     1       4.902   4.291  18.130  0.00  0.00    +0.000 N 
ATOM      2  C   UNL     1       3.706   3.631  17.877  0.00  0.00    +0.000 C 
ATOM      3  O   UNL     1       3.357   3.164  16.801  0.00  0.00    +0.000 OA
ATOM      4  H   UNL     1       5.174   4.470  19.090  0.00  0.00    +0.000 HD
ENDROOT
BRANCH   2   5
ATOM      5  C   UNL     1       2.844   3.450  19.086  0.00  0.00    +0.000 A 
ATOM      6  C   UNL     1       1.544   3.973  19.148  0.00  0.00    +0.000 A 
ATOM      7  C   UNL     1       0.788   3.838  20.314  0.00  0.00    +0.000 A 
ATOM      8  C   UNL     1       1.321   3.171  21.417  0.00  0.00    +0.000 A 
ATOM      9  C   UNL     1       2.600   2.618  21.350  0.00  0.00    +0.000 A 
ATOM     10  C   UNL     1       3.361   2.754  20.185  0.00  0.00    +0.000 A 
ENDBRANCH   2   5
BRANCH   1  11
ATOM     11  N   UNL     1       5.877   4.500  17.120  0.00  0.00    +0.000 NA
BRANCH  11  12
ATOM     12  C   UNL     1       5.404   5.543  16.193  0.00  0.00    +0.000 C 
BRANCH  12  13
ATOM     13  C   UNL     1       5.634   5.314  14.694  0.00  0.00    +0.000 C 
BRANCH  13  15
ATOM     14  C   UNL     1       6.030   3.573  12.935  0.00  0.00    +0.000 C 
ATOM     15  C   UNL     1       6.347   4.005  14.361  0.00  0.00    +0.000 C 
ENDBRANCH  13  15
ENDBRANCH  12  13
ENDBRANCH  11  12
BRANCH  11  16
ATOM     16  C   UNL     1       7.205   4.752  17.716  0.00  0.00    +0.000 C 
BRANCH  16  17
ATOM     17  C   UNL     1       7.198   5.708  18.919  0.00  0.00    +0.000 C 
BRANCH  17  18
ATOM     18  C   UNL     1       8.160   6.882  18.730  0.00  0.00    +0.000 C 
ATOM     19  C   UNL     1       7.746   7.729  17.535  0.00  0.00    +0.000 C 
ENDBRANCH  17  18
ENDBRANCH  16  17
ENDBRANCH  11  16
ENDBRANCH   1  11
TORSDOF 8
ENDMDL
