MODEL 1
REMARK VINA RESULT:      -8.0      0.000      0.000
REMARK  Name = 
REMARK  6 active torsions:
REMARK  status: ('A' for Active; 'I' for Inactive)
REMARK    1  A    between atoms: C_2  and  C_26
REMARK    2  A    between atoms: N_3  and  C_4
REMARK    3  A    between atoms: N_7  and  C_8
REMARK    4  A    between atoms: C_8  and  C_9
REMARK    5  A    between atoms: C_8  and  C_15
REMARK    6  A    between atoms: C_20  and  O_21
REMARK                            x       y       z     vdW  Elec       q    Type
REMARK                         _______ _______ _______ _____ _____    ______ ____
ROOT
ATOM      1  C   UNL     1      -0.313  11.836  21.855  0.00  0.00    +0.000 C 
ENDROOT
BRANCH   1   2
ATOM      2  C   UNL     1      -1.606  12.538  22.318  0.00  0.00    +0.000 A 
ATOM      3  C   UNL     1      -2.871  12.108  21.864  0.00  0.00    +0.000 A 
ATOM      4  C   UNL     1      -4.001  12.665  22.428  0.00  0.00    +0.000 A 
ATOM      5  C   UNL     1      -3.921  13.655  23.373  0.00  0.00    +0.000 A 
ATOM      6  C   UNL     1      -2.713  14.162  23.797  0.00  0.00    +0.000 A 
ATOM      7  C   UNL     1      -1.552  13.594  23.261  0.00  0.00    +0.000 A 
ATOM      8  O   UNL     1      -5.145  14.036  23.830  0.00  0.00    +0.000 OA
ATOM      9  C   UNL     1      -6.003  13.162  23.067  0.00  0.00    +0.000 C 
ATOM     10  O   UNL     1      -5.283  12.296  22.166  0.00  0.00    +0.000 OA
BRANCH   7  11
ATOM     11  O   UNL     1      -0.331  14.049  23.678  0.00  0.00    +0.000 OA
ATOM     12  H   UNL     1       0.303  13.952  22.946  0.00  0.00    +0.000 HD
ENDBRANCH   7  11
ENDBRANCH   1   2
BRANCH   1  13
ATOM     13  C   UNL     1       0.320  12.591  20.681  0.00  0.00    +0.000 A 
ATOM     14  C   UNL     1       1.660  12.993  20.691  0.00  0.00    +0.000 A 
ATOM     15  C   UNL     1       2.162  13.681  19.596  0.00  0.00    +0.000 A 
ATOM     16  N   UNL     1       1.431  14.005  18.508  0.00  0.00    +0.000 NA
ATOM     17  C   UNL     1       0.140  13.611  18.512  0.00  0.00    +0.000 A 
ATOM     18  C   UNL     1      -0.449  12.909  19.552  0.00  0.00    +0.000 A 
ENDBRANCH   1  13
BRANCH   1  22
ATOM     19  C   UNL     1       1.507   8.962  21.319  0.00  0.00    +0.000 C 
ATOM     20  C   UNL     1       1.213   9.262  22.778  0.00  0.00    +0.000 C 
ATOM     21  C   UNL     1      -0.277   9.521  22.738  0.00  0.00    +0.000 C 
ATOM     22  N   UNL     1      -0.499  10.372  21.549  0.00  0.00    +0.000 NA
ATOM     23  C   UNL     1       0.514   9.878  20.566  0.00  0.00    +0.000 C 
BRANCH  19  26
ATOM     24  O   UNL     1       2.682   7.559  19.196  0.00  0.00    +0.000 OA
ATOM     25  C   UNL     1       1.964   6.941  19.973  0.00  0.00    +0.000 C 
ATOM     26  N   UNL     1       1.302   7.540  21.029  0.00  0.00    +0.000 N 
ATOM     27  H   UNL     1       0.959   6.955  21.781  0.00  0.00    +0.000 HD
BRANCH  25  28
ATOM     28  C   UNL     1       1.808   5.469  19.823  0.00  0.00    +0.000 A 
ATOM     29  C   UNL     1       1.872   4.917  18.532  0.00  0.00    +0.000 A 
ATOM     30  C   UNL     1       1.671   3.549  18.335  0.00  0.00    +0.000 A 
ATOM     31  C   UNL     1       1.394   2.727  19.424  0.00  0.00    +0.000 A 
ATOM     32  C   UNL     1       1.331   3.279  20.700  0.00  0.00    +0.000 A 
ATOM     33  F   UNL     1       1.050   2.486  21.743  0.00  0.00    +0.000 F 
ATOM     34  C   UNL     1       1.537   4.639  20.915  0.00  0.00    +0.000 A 
ENDBRANCH  25  28
ENDBRANCH  19  26
ENDBRANCH   1  22
TORSDOF 6
ENDMDL
MODEL 2
REMARK VINA RESULT:      -7.8      0.876      1.218
REMARK  Name = 
REMARK  6 active torsions:
REMARK  status: ('A' for Active; 'I' for Inactive)
REMARK    1  A    between atoms: C_2  and  C_26
REMARK    2  A    between atoms: N_3  and  C_4
REMARK    3  A    between atoms: N_7  and  C_8
REMARK    4  A    between atoms: C_8  and  C_9
REMARK    5  A    between atoms: C_8  and  C_15
REMARK    6  A    between atoms: C_20  and  O_21
REMARK                            x       y       z     vdW  Elec       q    Type
REMARK                         _______ _______ _______ _____ _____    ______ ____
ROOT
ATOM      1  C   UNL     1      -0.160  11.753  21.676  0.00  0.00    +0.000 C 
ENDROOT
BRANCH   1   2
ATOM      2  C   UNL     1      -1.436  12.475  22.152  0.00  0.00    +0.000 A 
ATOM      3  C   UNL     1      -2.714  12.058  21.721  0.00  0.00    +0.000 A 
ATOM      4  C   UNL     1      -3.827  12.635  22.298  0.00  0.00    +0.000 A 
ATOM      5  C   UNL     1      -3.720  13.632  23.233  0.00  0.00    +0.000 A 
ATOM      6  C   UNL     1      -2.499  14.126  23.634  0.00  0.00    +0.000 A 
ATOM      7  C   UNL     1      -1.354  13.538  23.086  0.00  0.00    +0.000 A 
ATOM      8  O   UNL     1      -4.931  14.033  23.705  0.00  0.00    +0.000 OA
ATOM      9  C   UNL     1      -5.813  13.163  22.964  0.00  0.00    +0.000 C 
ATOM     10  O   UNL     1      -5.118  12.280  22.059  0.00  0.00    +0.000 OA
BRANCH   7  11
ATOM     11  O   UNL     1      -0.120  13.981  23.479  0.00  0.00    +0.000 OA
ATOM     12  H   UNL     1      -0.236  14.775  24.031  0.00  0.00    +0.000 HD
ENDBRANCH   7  11
ENDBRANCH   1   2
BRANCH   1  13
ATOM     13  C   UNL     1       0.509  12.532  20.538  0.00  0.00    +0.000 A 
ATOM     14  C   UNL     1       1.849  12.930  20.596  0.00  0.00    +0.000 A 
ATOM     15  C   UNL     1       2.383  13.642  19.532  0.00  0.00    +0.000 A 
ATOM     16  N   UNL     1       1.685  13.992  18.431  0.00  0.00    +0.000 NA
ATOM     17  C   UNL     1       0.394  13.601  18.388  0.00  0.00    +0.000 A 
ATOM     18  C   UNL     1      -0.227  12.877  19.395  0.00  0.00    +0.000 A 
ENDBRANCH   1  13
BRANCH   1  22
ATOM     19  C   UNL     1       1.562   8.804  21.225  0.00  0.00    +0.000 C 
ATOM     20  C   UNL     1       1.149   9.083  22.659  0.00  0.00    +0.000 C 
ATOM     21  C   UNL     1      -0.316   9.417  22.491  0.00  0.00    +0.000 C 
ATOM     22  N   UNL     1      -0.386  10.308  21.311  0.00  0.00    +0.000 NA
ATOM     23  C   UNL     1       0.689   9.787  20.412  0.00  0.00    +0.000 C 
BRANCH  19  26
ATOM     24  O   UNL     1       2.794   7.423  19.119  0.00  0.00    +0.000 OA
ATOM     25  C   UNL     1       2.011   6.810  19.837  0.00  0.00    +0.000 C 
ATOM     26  N   UNL     1       1.318   7.402  20.877  0.00  0.00    +0.000 N 
ATOM     27  H   UNL     1       0.913   6.808  21.590  0.00  0.00    +0.000 HD
BRANCH  25  28
ATOM     28  C   UNL     1       1.806   5.351  19.629  0.00  0.00    +0.000 A 
ATOM     29  C   UNL     1       1.359   4.577  20.713  0.00  0.00    +0.000 A 
ATOM     30  C   UNL     1       1.210   3.194  20.583  0.00  0.00    +0.000 A 
ATOM     31  C   UNL     1       1.518   2.576  19.374  0.00  0.00    +0.000 A 
ATOM     32  C   UNL     1       1.962   3.348  18.304  0.00  0.00    +0.000 A 
ATOM     33  F   UNL     1       2.271   2.747  17.147  0.00  0.00    +0.000 F 
ATOM     34  C   UNL     1       2.108   4.729  18.414  0.00  0.00    +0.000 A 
ENDBRANCH  25  28
ENDBRANCH  19  26
ENDBRANCH   1  22
TORSDOF 6
ENDMDL
MODEL 3
REMARK VINA RESULT:      -7.7      4.257     10.474
REMARK  Name = 
REMARK  6 active torsions:
REMARK  status: ('A' for Active; 'I' for Inactive)
REMARK    1  A    between atoms: C_2  and  C_26
REMARK    2  A    between atoms: N_3  and  C_4
REMARK    3  A    between atoms: N_7  and  C_8
REMARK    4  A    between atoms: C_8  and  C_9
REMARK    5  A    between atoms: C_8  and  C_15
REMARK    6  A    between atoms: C_20  and  O_21
REMARK                            x       y       z     vdW  Elec       q    Type
REMARK                         _______ _______ _______ _____ _____    ______ ____
ROOT
ATOM      1  C   UNL     1       3.760   5.591  19.184  0.00  0.00    +0.000 C 
ENDROOT
BRANCH   1   2
ATOM      2  C   UNL     1       4.832   5.235  18.135  0.00  0.00    +0.000 A 
ATOM      3  C   UNL     1       4.471   4.816  16.836  0.00  0.00    +0.000 A 
ATOM      4  C   UNL     1       5.464   4.663  15.891  0.00  0.00    +0.000 A 
ATOM      5  C   UNL     1       6.786   4.855  16.197  0.00  0.00    +0.000 A 
ATOM      6  C   UNL     1       7.199   5.192  17.466  0.00  0.00    +0.000 A 
ATOM      7  C   UNL     1       6.209   5.382  18.436  0.00  0.00    +0.000 A 
ATOM      8  O   UNL     1       7.597   4.695  15.116  0.00  0.00    +0.000 OA
ATOM      9  C   UNL     1       6.627   4.390  14.092  0.00  0.00    +0.000 C 
ATOM     10  O   UNL     1       5.271   4.356  14.579  0.00  0.00    +0.000 OA
BRANCH   7  11
ATOM     11  O   UNL     1       6.575   5.746  19.704  0.00  0.00    +0.000 OA
ATOM     12  H   UNL     1       6.512   4.965  20.281  0.00  0.00    +0.000 HD
ENDBRANCH   7  11
ENDBRANCH   1   2
BRANCH   1  13
ATOM     13  C   UNL     1       3.467   4.387  20.086  0.00  0.00    +0.000 A 
ATOM     14  C   UNL     1       4.190   3.193  19.992  0.00  0.00    +0.000 A 
ATOM     15  C   UNL     1       3.861   2.142  20.836  0.00  0.00    +0.000 A 
ATOM     16  N   UNL     1       2.867   2.189  21.749  0.00  0.00    +0.000 NA
ATOM     17  C   UNL     1       2.178   3.346  21.829  0.00  0.00    +0.000 A 
ATOM     18  C   UNL     1       2.439   4.456  21.039  0.00  0.00    +0.000 A 
ENDBRANCH   1  13
BRANCH   1  22
ATOM     19  C   UNL     1       2.023   8.556  18.948  0.00  0.00    +0.000 C 
ATOM     20  C   UNL     1       3.098   8.365  17.891  0.00  0.00    +0.000 C 
ATOM     21  C   UNL     1       2.776   6.978  17.381  0.00  0.00    +0.000 C 
ATOM     22  N   UNL     1       2.501   6.167  18.588  0.00  0.00    +0.000 NA
ATOM     23  C   UNL     1       1.837   7.131  19.518  0.00  0.00    +0.000 C 
BRANCH  19  26
ATOM     24  O   UNL     1      -0.012   9.875  20.353  0.00  0.00    +0.000 OA
ATOM     25  C   UNL     1      -0.124   9.763  19.137  0.00  0.00    +0.000 C 
ATOM     26  N   UNL     1       0.799   9.097  18.352  0.00  0.00    +0.000 N 
ATOM     27  H   UNL     1       0.803   9.271  17.354  0.00  0.00    +0.000 HD
BRANCH  25  28
ATOM     28  C   UNL     1      -1.275  10.397  18.440  0.00  0.00    +0.000 A 
ATOM     29  C   UNL     1      -2.027  11.362  19.131  0.00  0.00    +0.000 A 
ATOM     30  C   UNL     1      -3.154  11.940  18.541  0.00  0.00    +0.000 A 
ATOM     31  C   UNL     1      -3.541  11.550  17.261  0.00  0.00    +0.000 A 
ATOM     32  C   UNL     1      -2.792  10.593  16.581  0.00  0.00    +0.000 A 
ATOM     33  F   UNL     1      -3.176  10.211  15.357  0.00  0.00    +0.000 F 
ATOM     34  C   UNL     1      -1.662  10.013  17.153  0.00  0.00    +0.000 A 
ENDBRANCH  25  28
ENDBRANCH  19  26
ENDBRANCH   1  22
TORSDOF 6
ENDMDL
MODEL 4
REMARK VINA RESULT:      -7.5      1.003      1.280
REMARK  Name = 
REMARK  6 active torsions:
REMARK  status: ('A' for Active; 'I' for Inactive)
REMARK    1  A    between atoms: C_2  and  C_26
REMARK    2  A    between atoms: N_3  and  C_4
REMARK    3  A    between atoms: N_7  and  C_8
REMARK    4  A    between atoms: C_8  and  C_9
REMARK    5  A    between atoms: C_8  and  C_15
REMARK    6  A    between atoms: C_20  and  O_21
REMARK                            x       y       z     vdW  Elec       q    Type
REMARK                         _______ _______ _______ _____ _____    ______ ____
ROOT
ATOM      1  C   UNL     1      -0.102  11.828  21.349  0.00  0.00    +0.000 C 
ENDROOT
BRANCH   1   2
ATOM      2  C   UNL     1      -1.422  12.614  21.479  0.00  0.00    +0.000 A 
ATOM      3  C   UNL     1      -2.439  12.497  20.507  0.00  0.00    +0.000 A 
ATOM      4  C   UNL     1      -3.658  13.097  20.750  0.00  0.00    +0.000 A 
ATOM      5  C   UNL     1      -3.883  13.841  21.879  0.00  0.00    +0.000 A 
ATOM      6  C   UNL     1      -2.902  14.048  22.822  0.00  0.00    +0.000 A 
ATOM      7  C   UNL     1      -1.666  13.426  22.613  0.00  0.00    +0.000 A 
ATOM      8  O   UNL     1      -5.159  14.308  21.946  0.00  0.00    +0.000 OA
ATOM      9  C   UNL     1      -5.713  13.762  20.731  0.00  0.00    +0.000 C 
ATOM     10  O   UNL     1      -4.761  13.000  19.960  0.00  0.00    +0.000 OA
BRANCH   7  11
ATOM     11  O   UNL     1      -0.673  13.583  23.542  0.00  0.00    +0.000 OA
ATOM     12  H   UNL     1      -0.079  14.295  23.245  0.00  0.00    +0.000 HD
ENDBRANCH   7  11
ENDBRANCH   1   2
BRANCH   1  13
ATOM     13  C   UNL     1       0.837  12.509  20.347  0.00  0.00    +0.000 A 
ATOM     14  C   UNL     1       0.604  12.476  18.968  0.00  0.00    +0.000 A 
ATOM     15  C   UNL     1       1.504  13.108  18.121  0.00  0.00    +0.000 A 
ATOM     16  N   UNL     1       2.612  13.754  18.543  0.00  0.00    +0.000 NA
ATOM     17  C   UNL     1       2.824  13.778  19.875  0.00  0.00    +0.000 A 
ATOM     18  C   UNL     1       1.977  13.188  20.802  0.00  0.00    +0.000 A 
ENDBRANCH   1  13
BRANCH   1  22
ATOM     19  C   UNL     1       1.612   8.841  21.310  0.00  0.00    +0.000 C 
ATOM     20  C   UNL     1       0.999   9.201  22.652  0.00  0.00    +0.000 C 
ATOM     21  C   UNL     1      -0.420   9.542  22.253  0.00  0.00    +0.000 C 
ATOM     22  N   UNL     1      -0.299  10.367  21.031  0.00  0.00    +0.000 NA
ATOM     23  C   UNL     1       0.885   9.787  20.327  0.00  0.00    +0.000 C 
BRANCH  19  26
ATOM     24  O   UNL     1       2.768   7.455  19.165  0.00  0.00    +0.000 OA
ATOM     25  C   UNL     1       2.048   6.833  19.938  0.00  0.00    +0.000 C 
ATOM     26  N   UNL     1       1.396   7.424  21.004  0.00  0.00    +0.000 N 
ATOM     27  H   UNL     1       1.050   6.833  21.750  0.00  0.00    +0.000 HD
BRANCH  25  28
ATOM     28  C   UNL     1       1.880   5.364  19.770  0.00  0.00    +0.000 A 
ATOM     29  C   UNL     1       1.940   4.828  18.473  0.00  0.00    +0.000 A 
ATOM     30  C   UNL     1       1.727   3.463  18.259  0.00  0.00    +0.000 A 
ATOM     31  C   UNL     1       1.442   2.631  19.339  0.00  0.00    +0.000 A 
ATOM     32  C   UNL     1       1.383   3.168  20.621  0.00  0.00    +0.000 A 
ATOM     33  F   UNL     1       1.095   2.366  21.654  0.00  0.00    +0.000 F 
ATOM     34  C   UNL     1       1.601   4.524  20.852  0.00  0.00    +0.000 A 
ENDBRANCH  25  28
ENDBRANCH  19  26
ENDBRANCH   1  22
TORSDOF 6
ENDMDL
MODEL 5
REMARK VINA RESULT:      -7.4      1.445      1.852
REMARK  Name = 
REMARK  6 active torsions:
REMARK  status: ('A' for Active; 'I' for Inactive)
REMARK    1  A    between atoms: C_2  and  C_26
REMARK    2  A    between atoms: N_3  and  C_4
REMARK    3  A    between atoms: N_7  and  C_8
REMARK    4  A    between atoms: C_8  and  C_9
REMARK    5  A    between atoms: C_8  and  C_15
REMARK    6  A    between atoms: C_20  and  O_21
REMARK                            x       y       z     vdW  Elec       q    Type
REMARK                         _______ _______ _______ _____ _____    ______ ____
ROOT
ATOM      1  C   UNL     1       0.108  11.596  21.194  0.00  0.00    +0.000 C 
ENDROOT
BRANCH   1   2
ATOM      2  C   UNL     1      -1.186  12.425  21.327  0.00  0.00    +0.000 A 
ATOM      3  C   UNL     1      -2.222  12.316  20.375  0.00  0.00    +0.000 A 
ATOM      4  C   UNL     1      -3.418  12.959  20.624  0.00  0.00    +0.000 A 
ATOM      5  C   UNL     1      -3.601  13.735  21.738  0.00  0.00    +0.000 A 
ATOM      6  C   UNL     1      -2.598  13.934  22.660  0.00  0.00    +0.000 A 
ATOM      7  C   UNL     1      -1.385  13.270  22.446  0.00  0.00    +0.000 A 
ATOM      8  O   UNL     1      -4.861  14.243  21.815  0.00  0.00    +0.000 OA
ATOM      9  C   UNL     1      -5.452  13.685  20.622  0.00  0.00    +0.000 C 
ATOM     10  O   UNL     1      -4.537  12.877  19.854  0.00  0.00    +0.000 OA
BRANCH   7  11
ATOM     11  O   UNL     1      -0.372  13.419  23.354  0.00  0.00    +0.000 OA
ATOM     12  H   UNL     1      -0.749  13.374  24.250  0.00  0.00    +0.000 HD
ENDBRANCH   7  11
ENDBRANCH   1   2
BRANCH   1  13
ATOM     13  C   UNL     1       1.094  12.282  20.243  0.00  0.00    +0.000 A 
ATOM     14  C   UNL     1       1.090  12.040  18.865  0.00  0.00    +0.000 A 
ATOM     15  C   UNL     1       2.020  12.690  18.067  0.00  0.00    +0.000 A 
ATOM     16  N   UNL     1       2.951  13.547  18.539  0.00  0.00    +0.000 NA
ATOM     17  C   UNL     1       2.944  13.772  19.869  0.00  0.00    +0.000 A 
ATOM     18  C   UNL     1       2.047  13.180  20.746  0.00  0.00    +0.000 A 
ENDBRANCH   1  13
BRANCH   1  22
ATOM     19  C   UNL     1       1.648   8.515  21.245  0.00  0.00    +0.000 C 
ATOM     20  C   UNL     1       0.914   8.878  22.525  0.00  0.00    +0.000 C 
ATOM     21  C   UNL     1      -0.432   9.311  21.988  0.00  0.00    +0.000 C 
ATOM     22  N   UNL     1      -0.135  10.158  20.812  0.00  0.00    +0.000 NA
ATOM     23  C   UNL     1       1.084   9.527  20.220  0.00  0.00    +0.000 C 
BRANCH  19  26
ATOM     24  O   UNL     1       2.906   7.137  19.154  0.00  0.00    +0.000 OA
ATOM     25  C   UNL     1       2.095   6.530  19.844  0.00  0.00    +0.000 C 
ATOM     26  N   UNL     1       1.387   7.122  20.874  0.00  0.00    +0.000 N 
ATOM     27  H   UNL     1       0.952   6.527  21.569  0.00  0.00    +0.000 HD
BRANCH  25  28
ATOM     28  C   UNL     1       1.868   5.078  19.613  0.00  0.00    +0.000 A 
ATOM     29  C   UNL     1       1.360   4.304  20.669  0.00  0.00    +0.000 A 
ATOM     30  C   UNL     1       1.188   2.925  20.520  0.00  0.00    +0.000 A 
ATOM     31  C   UNL     1       1.534   2.312  19.318  0.00  0.00    +0.000 A 
ATOM     32  C   UNL     1       2.038   3.084  18.275  0.00  0.00    +0.000 A 
ATOM     33  F   UNL     1       2.383   2.488  17.127  0.00  0.00    +0.000 F 
ATOM     34  C   UNL     1       2.208   4.460  18.406  0.00  0.00    +0.000 A 
ENDBRANCH  25  28
ENDBRANCH  19  26
ENDBRANCH   1  22
TORSDOF 6
ENDMDL
MODEL 6
REMARK VINA RESULT:      -7.4      1.543      1.969
REMARK  Name = 
REMARK  6 active torsions:
REMARK  status: ('A' for Active; 'I' for Inactive)
REMARK    1  A    between atoms: C_2  and  C_26
REMARK    2  A    between atoms: N_3  and  C_4
REMARK    3  A    between atoms: N_7  and  C_8
REMARK    4  A    between atoms: C_8  and  C_9
REMARK    5  A    between atoms: C_8  and  C_15
REMARK    6  A    between atoms: C_20  and  O_21
REMARK                            x       y       z     vdW  Elec       q    Type
REMARK                         _______ _______ _______ _____ _____    ______ ____
ROOT
ATOM      1  C   UNL     1      -0.109  11.325  20.881  0.00  0.00    +0.000 C 
ENDROOT
BRANCH   1   2
ATOM      2  C   UNL     1      -1.491  12.000  20.998  0.00  0.00    +0.000 A 
ATOM      3  C   UNL     1      -2.381  12.033  19.903  0.00  0.00    +0.000 A 
ATOM      4  C   UNL     1      -3.661  12.507  20.105  0.00  0.00    +0.000 A 
ATOM      5  C   UNL     1      -4.066  12.993  21.321  0.00  0.00    +0.000 A 
ATOM      6  C   UNL     1      -3.215  13.052  22.402  0.00  0.00    +0.000 A 
ATOM      7  C   UNL     1      -1.920  12.550  22.231  0.00  0.00    +0.000 A 
ATOM      8  O   UNL     1      -5.373  13.371  21.320  0.00  0.00    +0.000 OA
ATOM      9  C   UNL     1      -5.745  13.057  19.961  0.00  0.00    +0.000 C 
ATOM     10  O   UNL     1      -4.658  12.518  19.180  0.00  0.00    +0.000 OA
BRANCH   7  11
ATOM     11  O   UNL     1      -1.052  12.564  23.289  0.00  0.00    +0.000 OA
ATOM     12  H   UNL     1      -0.408  11.844  23.172  0.00  0.00    +0.000 HD
ENDBRANCH   7  11
ENDBRANCH   1   2
BRANCH   1  13
ATOM     13  C   UNL     1       0.862  12.214  20.097  0.00  0.00    +0.000 A 
ATOM     14  C   UNL     1       0.785  12.356  18.708  0.00  0.00    +0.000 A 
ATOM     15  C   UNL     1       1.705  13.171  18.065  0.00  0.00    +0.000 A 
ATOM     16  N   UNL     1       2.694  13.839  18.697  0.00  0.00    +0.000 NA
ATOM     17  C   UNL     1       2.757  13.693  20.037  0.00  0.00    +0.000 A 
ATOM     18  C   UNL     1       1.876  12.912  20.770  0.00  0.00    +0.000 A 
ENDBRANCH   1  13
BRANCH   1  22
ATOM     19  C   UNL     1       1.838   8.509  20.506  0.00  0.00    +0.000 C 
ATOM     20  C   UNL     1       1.110   8.603  21.836  0.00  0.00    +0.000 C 
ATOM     21  C   UNL     1      -0.302   8.906  21.386  0.00  0.00    +0.000 C 
ATOM     22  N   UNL     1      -0.168   9.926  20.323  0.00  0.00    +0.000 NA
ATOM     23  C   UNL     1       1.103   9.551  19.631  0.00  0.00    +0.000 C 
BRANCH  19  26
ATOM     24  O   UNL     1       3.261   7.566  18.283  0.00  0.00    +0.000 OA
ATOM     25  C   UNL     1       2.533   6.782  18.882  0.00  0.00    +0.000 C 
ATOM     26  N   UNL     1       1.756   7.150  19.964  0.00  0.00    +0.000 N 
ATOM     27  H   UNL     1       1.401   6.424  20.575  0.00  0.00    +0.000 HD
BRANCH  25  28
ATOM     28  C   UNL     1       2.493   5.352  18.472  0.00  0.00    +0.000 A 
ATOM     29  C   UNL     1       3.486   4.878  17.599  0.00  0.00    +0.000 A 
ATOM     30  C   UNL     1       3.455   3.560  17.138  0.00  0.00    +0.000 A 
ATOM     31  C   UNL     1       2.426   2.711  17.539  0.00  0.00    +0.000 A 
ATOM     32  C   UNL     1       1.445   3.187  18.405  0.00  0.00    +0.000 A 
ATOM     33  F   UNL     1       0.449   2.371  18.776  0.00  0.00    +0.000 F 
ATOM     34  C   UNL     1       1.466   4.496  18.879  0.00  0.00    +0.000 A 
ENDBRANCH  25  28
ENDBRANCH  19  26
ENDBRANCH   1  22
TORSDOF 6
ENDMDL
MODEL 7
REMARK VINA RESULT:      -7.2      1.413      2.222
REMARK  Name = 
REMARK  6 active torsions:
REMARK  status: ('A' for Active; 'I' for Inactive)
REMARK    1  A    between atoms: C_2  and  C_26
REMARK    2  A    between atoms: N_3  and  C_4
REMARK    3  A    between atoms: N_7  and  C_8
REMARK    4  A    between atoms: C_8  and  C_9
REMARK    5  A    between atoms: C_8  and  C_15
REMARK    6  A    between atoms: C_20  and  O_21
REMARK                            x       y       z     vdW  Elec       q    Type
REMARK                         _______ _______ _______ _____ _____    ______ ____
ROOT
ATOM      1  C   UNL     1       0.099  11.721  21.492  0.00  0.00    +0.000 C 
ENDROOT
BRANCH   1   2
ATOM      2  C   UNL     1      -1.176  12.497  21.881  0.00  0.00    +0.000 A 
ATOM      3  C   UNL     1      -1.226  13.271  23.060  0.00  0.00    +0.000 A 
ATOM      4  C   UNL     1      -2.330  14.069  23.280  0.00  0.00    +0.000 A 
ATOM      5  C   UNL     1      -3.391  14.086  22.414  0.00  0.00    +0.000 A 
ATOM      6  C   UNL     1      -3.425  13.295  21.287  0.00  0.00    +0.000 A 
ATOM      7  C   UNL     1      -2.305  12.498  21.026  0.00  0.00    +0.000 A 
ATOM      8  O   UNL     1      -4.356  14.969  22.791  0.00  0.00    +0.000 OA
ATOM      9  C   UNL     1      -3.770  15.513  23.993  0.00  0.00    +0.000 C 
ATOM     10  O   UNL     1      -2.487  14.937  24.316  0.00  0.00    +0.000 OA
BRANCH   7  11
ATOM     11  O   UNL     1      -2.287  11.719  19.901  0.00  0.00    +0.000 OA
ATOM     12  H   UNL     1      -2.643  12.236  19.158  0.00  0.00    +0.000 HD
ENDBRANCH   7  11
ENDBRANCH   1   2
BRANCH   1  13
ATOM     13  C   UNL     1       0.905  12.497  20.444  0.00  0.00    +0.000 A 
ATOM     14  C   UNL     1       0.620  12.416  19.077  0.00  0.00    +0.000 A 
ATOM     15  C   UNL     1       1.400  13.140  18.186  0.00  0.00    +0.000 A 
ATOM     16  N   UNL     1       2.438  13.920  18.553  0.00  0.00    +0.000 NA
ATOM     17  C   UNL     1       2.702  13.989  19.874  0.00  0.00    +0.000 A 
ATOM     18  C   UNL     1       1.973  13.314  20.842  0.00  0.00    +0.000 A 
ENDBRANCH   1  13
BRANCH   1  22
ATOM     19  C   UNL     1       1.638   8.645  21.302  0.00  0.00    +0.000 C 
ATOM     20  C   UNL     1       0.987   8.946  22.641  0.00  0.00    +0.000 C 
ATOM     21  C   UNL     1      -0.391   9.400  22.211  0.00  0.00    +0.000 C 
ATOM     22  N   UNL     1      -0.168  10.302  21.059  0.00  0.00    +0.000 NA
ATOM     23  C   UNL     1       1.011   9.702  20.363  0.00  0.00    +0.000 C 
BRANCH  19  26
ATOM     24  O   UNL     1       2.932   7.289  19.219  0.00  0.00    +0.000 OA
ATOM     25  C   UNL     1       2.081   6.687  19.863  0.00  0.00    +0.000 C 
ATOM     26  N   UNL     1       1.353   7.270  20.884  0.00  0.00    +0.000 N 
ATOM     27  H   UNL     1       0.879   6.669  21.546  0.00  0.00    +0.000 HD
BRANCH  25  28
ATOM     28  C   UNL     1       1.825   5.248  19.584  0.00  0.00    +0.000 A 
ATOM     29  C   UNL     1       1.293   4.452  20.612  0.00  0.00    +0.000 A 
ATOM     30  C   UNL     1       1.093   3.082  20.417  0.00  0.00    +0.000 A 
ATOM     31  C   UNL     1       1.433   2.501  19.198  0.00  0.00    +0.000 A 
ATOM     32  C   UNL     1       1.960   3.295  18.184  0.00  0.00    +0.000 A 
ATOM     33  F   UNL     1       2.299   2.728  17.019  0.00  0.00    +0.000 F 
ATOM     34  C   UNL     1       2.158   4.662  18.360  0.00  0.00    +0.000 A 
ENDBRANCH  25  28
ENDBRANCH  19  26
ENDBRANCH   1  22
TORSDOF 6
ENDMDL
MODEL 8
REMARK VINA RESULT:      -7.2      4.311     10.544
REMARK  Name = 
REMARK  6 active torsions:
REMARK  status: ('A' for Active; 'I' for Inactive)
REMARK    1  A    between atoms: C_2  and  C_26
REMARK    2  A    between atoms: N_3  and  C_4
REMARK    3  A    between atoms: N_7  and  C_8
REMARK    4  A    between atoms: C_8  and  C_9
REMARK    5  A    between atoms: C_8  and  C_15
REMARK    6  A    between atoms: C_20  and  O_21
REMARK                            x       y       z     vdW  Elec       q    Type
REMARK                         _______ _______ _______ _____ _____    ______ ____
ROOT
ATOM      1  C   UNL     1       3.895   5.437  19.119  0.00  0.00    +0.000 C 
ENDROOT
BRANCH   1   2
ATOM      2  C   UNL     1       4.926   5.150  18.008  0.00  0.00    +0.000 A 
ATOM      3  C   UNL     1       4.519   4.688  16.738  0.00  0.00    +0.000 A 
ATOM      4  C   UNL     1       5.462   4.598  15.735  0.00  0.00    +0.000 A 
ATOM      5  C   UNL     1       6.781   4.892  15.957  0.00  0.00    +0.000 A 
ATOM      6  C   UNL     1       7.244   5.276  17.196  0.00  0.00    +0.000 A 
ATOM      7  C   UNL     1       6.302   5.404  18.223  0.00  0.00    +0.000 A 
ATOM      8  O   UNL     1       7.535   4.780  14.829  0.00  0.00    +0.000 OA
ATOM      9  C   UNL     1       6.531   4.389  13.870  0.00  0.00    +0.000 C 
ATOM     10  O   UNL     1       5.213   4.260  14.440  0.00  0.00    +0.000 OA
BRANCH   7  11
ATOM     11  O   UNL     1       6.716   5.810  19.463  0.00  0.00    +0.000 OA
ATOM     12  H   UNL     1       7.581   5.404  19.651  0.00  0.00    +0.000 HD
ENDBRANCH   7  11
ENDBRANCH   1   2
BRANCH   1  13
ATOM     13  C   UNL     1       3.675   4.193  19.987  0.00  0.00    +0.000 A 
ATOM     14  C   UNL     1       4.503   3.069  19.900  0.00  0.00    +0.000 A 
ATOM     15  C   UNL     1       4.236   1.976  20.711  0.00  0.00    +0.000 A 
ATOM     16  N   UNL     1       3.209   1.916  21.585  0.00  0.00    +0.000 NA
ATOM     17  C   UNL     1       2.418   3.007  21.658  0.00  0.00    +0.000 A 
ATOM     18  C   UNL     1       2.610   4.152  20.899  0.00  0.00    +0.000 A 
ENDBRANCH   1  13
BRANCH   1  22
ATOM     19  C   UNL     1       2.081   8.365  19.063  0.00  0.00    +0.000 C 
ATOM     20  C   UNL     1       3.106   8.234  17.949  0.00  0.00    +0.000 C 
ATOM     21  C   UNL     1       2.792   6.855  17.411  0.00  0.00    +0.000 C 
ATOM     22  N   UNL     1       2.595   6.001  18.603  0.00  0.00    +0.000 NA
ATOM     23  C   UNL     1       1.956   6.919  19.595  0.00  0.00    +0.000 C 
BRANCH  19  26
ATOM     24  O   UNL     1       0.336  10.047  20.469  0.00  0.00    +0.000 OA
ATOM     25  C   UNL     1       0.050   9.748  19.315  0.00  0.00    +0.000 C 
ATOM     26  N   UNL     1       0.817   8.894  18.545  0.00  0.00    +0.000 N 
ATOM     27  H   UNL     1       0.691   8.902  17.540  0.00  0.00    +0.000 HD
BRANCH  25  28
ATOM     28  C   UNL     1      -1.151  10.347  18.673  0.00  0.00    +0.000 A 
ATOM     29  C   UNL     1      -1.396  10.064  17.319  0.00  0.00    +0.000 A 
ATOM     30  C   UNL     1      -2.477  10.652  16.656  0.00  0.00    +0.000 A 
ATOM     31  C   UNL     1      -3.311  11.533  17.340  0.00  0.00    +0.000 A 
ATOM     32  C   UNL     1      -3.063  11.809  18.682  0.00  0.00    +0.000 A 
ATOM     33  F   UNL     1      -3.859  12.668  19.331  0.00  0.00    +0.000 F 
ATOM     34  C   UNL     1      -1.995  11.226  19.358  0.00  0.00    +0.000 A 
ENDBRANCH  25  28
ENDBRANCH  19  26
ENDBRANCH   1  22
TORSDOF 6
ENDMDL
MODEL 9
REMARK VINA RESULT:      -7.2      1.067      1.846
REMARK  Name = 
REMARK  6 active torsions:
REMARK  status: ('A' for Active; 'I' for Inactive)
REMARK    1  A    between atoms: C_2  and  C_26
REMARK    2  A    between atoms: N_3  and  C_4
REMARK    3  A    between atoms: N_7  and  C_8
REMARK    4  A    between atoms: C_8  and  C_9
REMARK    5  A    between atoms: C_8  and  C_15
REMARK    6  A    between atoms: C_20  and  O_21
REMARK                            x       y       z     vdW  Elec       q    Type
REMARK                         _______ _______ _______ _____ _____    ______ ____
ROOT
ATOM      1  C   UNL     1      -0.014  11.905  21.557  0.00  0.00    +0.000 C 
ENDROOT
BRANCH   1   2
ATOM      2  C   UNL     1      -1.310  12.655  21.925  0.00  0.00    +0.000 A 
ATOM      3  C   UNL     1      -1.371  13.491  23.062  0.00  0.00    +0.000 A 
ATOM      4  C   UNL     1      -2.500  14.260  23.257  0.00  0.00    +0.000 A 
ATOM      5  C   UNL     1      -3.574  14.191  22.409  0.00  0.00    +0.000 A 
ATOM      6  C   UNL     1      -3.596  13.339  21.327  0.00  0.00    +0.000 A 
ATOM      7  C   UNL     1      -2.451  12.570  21.091  0.00  0.00    +0.000 A 
ATOM      8  O   UNL     1      -4.564  15.059  22.755  0.00  0.00    +0.000 OA
ATOM      9  C   UNL     1      -3.981  15.687  23.915  0.00  0.00    +0.000 C 
ATOM     10  O   UNL     1      -2.673  15.176  24.247  0.00  0.00    +0.000 OA
BRANCH   7  11
ATOM     11  O   UNL     1      -2.421  11.731  20.010  0.00  0.00    +0.000 OA
ATOM     12  H   UNL     1      -1.823  12.107  19.341  0.00  0.00    +0.000 HD
ENDBRANCH   7  11
ENDBRANCH   1   2
BRANCH   1  13
ATOM     13  C   UNL     1       0.766  12.670  20.481  0.00  0.00    +0.000 A 
ATOM     14  C   UNL     1       0.285  12.815  19.176  0.00  0.00    +0.000 A 
ATOM     15  C   UNL     1       1.052  13.512  18.253  0.00  0.00    +0.000 A 
ATOM     16  N   UNL     1       2.254  14.060  18.530  0.00  0.00    +0.000 NA
ATOM     17  C   UNL     1       2.706  13.912  19.793  0.00  0.00    +0.000 A 
ATOM     18  C   UNL     1       2.009  13.244  20.789  0.00  0.00    +0.000 A 
ENDBRANCH   1  13
BRANCH   1  22
ATOM     19  C   UNL     1       1.665   8.909  21.296  0.00  0.00    +0.000 C 
ATOM     20  C   UNL     1       1.109   9.205  22.678  0.00  0.00    +0.000 C 
ATOM     21  C   UNL     1      -0.321   9.578  22.354  0.00  0.00    +0.000 C 
ATOM     22  N   UNL     1      -0.240  10.465  21.172  0.00  0.00    +0.000 NA
ATOM     23  C   UNL     1       0.910   9.912  20.393  0.00  0.00    +0.000 C 
BRANCH  19  26
ATOM     24  O   UNL     1       2.776   7.607  19.076  0.00  0.00    +0.000 OA
ATOM     25  C   UNL     1       2.053   6.961  19.826  0.00  0.00    +0.000 C 
ATOM     26  N   UNL     1       1.421   7.513  20.925  0.00  0.00    +0.000 N 
ATOM     27  H   UNL     1       1.073   6.892  21.646  0.00  0.00    +0.000 HD
BRANCH  25  28
ATOM     28  C   UNL     1       1.858   5.505  19.591  0.00  0.00    +0.000 A 
ATOM     29  C   UNL     1       1.957   5.021  18.276  0.00  0.00    +0.000 A 
ATOM     30  C   UNL     1       1.721   3.672  17.997  0.00  0.00    +0.000 A 
ATOM     31  C   UNL     1       1.375   2.803  19.029  0.00  0.00    +0.000 A 
ATOM     32  C   UNL     1       1.277   3.289  20.330  0.00  0.00    +0.000 A 
ATOM     33  F   UNL     1       0.929   2.453  21.316  0.00  0.00    +0.000 F 
ATOM     34  C   UNL     1       1.516   4.629  20.625  0.00  0.00    +0.000 A 
ENDBRANCH  25  28
ENDBRANCH  19  26
ENDBRANCH   1  22
TORSDOF 6
ENDMDL
