MODEL 1
REMARK VINA RESULT:      -8.6      0.000      0.000
REMARK  Name = 
REMARK  5 active torsions:
REMARK  status: ('A' for Active; 'I' for Inactive)
REMARK    1  A    between atoms: C_1  and  C_2
REMARK    2  A    between atoms: C_6  and  C_7
REMARK    3  A    between atoms: N_9  and  C_10
REMARK    4  A    between atoms: C_10  and  C_11
REMARK    5  A    between atoms: C_17  and  C_18
REMARK                            x       y       z     vdW  Elec       q    Type
REMARK                         _______ _______ _______ _____ _____    ______ ____
ROOT
ATOM      1  C   UNL     1       6.404   3.415  12.174  0.00  0.00    +0.000 C 
ATOM      2  C   UNL     1       6.236   3.955  13.565  0.00  0.00    +0.000 A 
ATOM      3  C   UNL     1       5.153   3.571  14.359  0.00  0.00    +0.000 A 
ATOM      4  C   UNL     1       4.982   4.086  15.654  0.00  0.00    +0.000 A 
ATOM      5  C   UNL     1       5.924   4.997  16.182  0.00  0.00    +0.000 A 
ATOM      6  C   UNL     1       6.056   5.727  17.421  0.00  0.00    +0.000 A 
ATOM      7  C   UNL     1       7.206   6.504  17.301  0.00  0.00    +0.000 A 
ATOM      8  C   UNL     1       7.866   7.455  18.235  0.00  0.00    +0.000 C 
ATOM      9  N   UNL     1       7.746   6.274  16.063  0.00  0.00    +0.000 N 
ATOM     10  C   UNL     1       6.992   5.366  15.363  0.00  0.00    +0.000 A 
ATOM     11  C   UNL     1       7.173   4.869  14.065  0.00  0.00    +0.000 A 
ATOM     12  H   UNL     1       8.577   6.721  15.700  0.00  0.00    +0.000 HD
ENDROOT
BRANCH   6  13
ATOM     13  C   UNL     1       5.167   5.735  18.587  0.00  0.00    +0.000 C 
ATOM     14  O   UNL     1       5.508   5.291  19.681  0.00  0.00    +0.000 OA
ATOM     15  N   UNL     1       3.914   6.258  18.359  0.00  0.00    +0.000 N 
ATOM     16  H   UNL     1       3.625   6.382  17.399  0.00  0.00    +0.000 HD
BRANCH  15  17
ATOM     17  C   UNL     1       2.911   6.301  19.394  0.00  0.00    +0.000 C 
BRANCH  17  18
ATOM     18  C   UNL     1       2.170   4.995  19.511  0.00  0.00    +0.000 A 
ATOM     19  C   UNL     1       1.800   4.283  18.359  0.00  0.00    +0.000 A 
ATOM     20  C   UNL     1       1.108   3.075  18.463  0.00  0.00    +0.000 A 
ATOM     21  C   UNL     1       0.770   2.571  19.716  0.00  0.00    +0.000 A 
ATOM     22  C   UNL     1       1.123   3.272  20.868  0.00  0.00    +0.000 A 
ATOM     23  C   UNL     1       1.818   4.480  20.767  0.00  0.00    +0.000 A 
ENDBRANCH  17  18
ENDBRANCH  15  17
ENDBRANCH   6  13
TORSDOF 3
ENDMDL
MODEL 2
REMARK VINA RESULT:      -8.1      1.349      1.772
REMARK  Name = 
REMARK  5 active torsions:
REMARK  status: ('A' for Active; 'I' for Inactive)
REMARK    1  A    between atoms: C_1  and  C_2
REMARK    2  A    between atoms: C_6  and  C_7
REMARK    3  A    between atoms: N_9  and  C_10
REMARK    4  A    between atoms: C_10  and  C_11
REMARK    5  A    between atoms: C_17  and  C_18
REMARK                            x       y       z     vdW  Elec       q    Type
REMARK                         _______ _______ _______ _____ _____    ______ ____
ROOT
ATOM      1  C   UNL     1       6.547   3.858  11.961  0.00  0.00    +0.000 C 
ATOM      2  C   UNL     1       6.435   4.076  13.442  0.00  0.00    +0.000 A 
ATOM      3  C   UNL     1       5.543   3.327  14.213  0.00  0.00    +0.000 A 
ATOM      4  C   UNL     1       5.423   3.538  15.595  0.00  0.00    +0.000 A 
ATOM      5  C   UNL     1       6.223   4.511  16.234  0.00  0.00    +0.000 A 
ATOM      6  C   UNL     1       6.350   5.004  17.586  0.00  0.00    +0.000 A 
ATOM      7  C   UNL     1       7.307   6.016  17.550  0.00  0.00    +0.000 A 
ATOM      8  C   UNL     1       7.871   6.890  18.613  0.00  0.00    +0.000 C 
ATOM      9  N   UNL     1       7.739   6.145  16.256  0.00  0.00    +0.000 N 
ATOM     10  C   UNL     1       7.100   5.248  15.437  0.00  0.00    +0.000 A 
ATOM     11  C   UNL     1       7.228   5.056  14.054  0.00  0.00    +0.000 A 
ATOM     12  H   UNL     1       8.421   6.818  15.937  0.00  0.00    +0.000 HD
ENDROOT
BRANCH   6  13
ATOM     13  C   UNL     1       5.613   4.600  18.788  0.00  0.00    +0.000 C 
ATOM     14  O   UNL     1       5.272   5.403  19.654  0.00  0.00    +0.000 OA
ATOM     15  N   UNL     1       5.348   3.253  18.883  0.00  0.00    +0.000 N 
ATOM     16  H   UNL     1       5.854   2.631  18.268  0.00  0.00    +0.000 HD
BRANCH  15  17
ATOM     17  C   UNL     1       4.666   2.693  20.023  0.00  0.00    +0.000 C 
BRANCH  17  18
ATOM     18  C   UNL     1       3.170   2.813  19.894  0.00  0.00    +0.000 A 
ATOM     19  C   UNL     1       2.438   3.578  20.816  0.00  0.00    +0.000 A 
ATOM     20  C   UNL     1       1.051   3.687  20.704  0.00  0.00    +0.000 A 
ATOM     21  C   UNL     1       0.380   3.027  19.678  0.00  0.00    +0.000 A 
ATOM     22  C   UNL     1       1.094   2.256  18.762  0.00  0.00    +0.000 A 
ATOM     23  C   UNL     1       2.482   2.148  18.870  0.00  0.00    +0.000 A 
ENDBRANCH  17  18
ENDBRANCH  15  17
ENDBRANCH   6  13
TORSDOF 3
ENDMDL
MODEL 3
REMARK VINA RESULT:      -7.9      1.842      6.365
REMARK  Name = 
REMARK  5 active torsions:
REMARK  status: ('A' for Active; 'I' for Inactive)
REMARK    1  A    between atoms: C_1  and  C_2
REMARK    2  A    between atoms: C_6  and  C_7
REMARK    3  A    between atoms: N_9  and  C_10
REMARK    4  A    between atoms: C_10  and  C_11
REMARK    5  A    between atoms: C_17  and  C_18
REMARK                            x       y       z     vdW  Elec       q    Type
REMARK                         _______ _______ _______ _____ _____    ______ ____
ROOT
ATOM      1  C   UNL     1       1.281   2.517  20.075  0.00  0.00    +0.000 C 
ATOM      2  C   UNL     1       2.334   3.177  19.232  0.00  0.00    +0.000 A 
ATOM      3  C   UNL     1       2.127   3.403  17.870  0.00  0.00    +0.000 A 
ATOM      4  C   UNL     1       3.115   4.005  17.075  0.00  0.00    +0.000 A 
ATOM      5  C   UNL     1       4.339   4.408  17.654  0.00  0.00    +0.000 A 
ATOM      6  C   UNL     1       5.553   5.015  17.159  0.00  0.00    +0.000 A 
ATOM      7  C   UNL     1       6.416   5.117  18.248  0.00  0.00    +0.000 A 
ATOM      8  C   UNL     1       7.796   5.655  18.376  0.00  0.00    +0.000 C 
ATOM      9  N   UNL     1       5.777   4.600  19.345  0.00  0.00    +0.000 N 
ATOM     10  C   UNL     1       4.519   4.163  19.016  0.00  0.00    +0.000 A 
ATOM     11  C   UNL     1       3.547   3.556  19.823  0.00  0.00    +0.000 A 
ATOM     12  H   UNL     1       6.178   4.530  20.270  0.00  0.00    +0.000 HD
ENDROOT
BRANCH   6  13
ATOM     13  C   UNL     1       5.893   5.416  15.790  0.00  0.00    +0.000 C 
ATOM     14  O   UNL     1       5.466   6.448  15.280  0.00  0.00    +0.000 OA
ATOM     15  N   UNL     1       6.710   4.538  15.113  0.00  0.00    +0.000 N 
ATOM     16  H   UNL     1       6.828   3.613  15.500  0.00  0.00    +0.000 HD
BRANCH  15  17
ATOM     17  C   UNL     1       7.103   4.770  13.746  0.00  0.00    +0.000 C 
BRANCH  17  18
ATOM     18  C   UNL     1       6.384   3.851  12.792  0.00  0.00    +0.000 A 
ATOM     19  C   UNL     1       5.002   3.985  12.585  0.00  0.00    +0.000 A 
ATOM     20  C   UNL     1       4.331   3.132  11.707  0.00  0.00    +0.000 A 
ATOM     21  C   UNL     1       5.030   2.132  11.035  0.00  0.00    +0.000 A 
ATOM     22  C   UNL     1       6.401   1.983  11.240  0.00  0.00    +0.000 A 
ATOM     23  C   UNL     1       7.075   2.836  12.116  0.00  0.00    +0.000 A 
ENDBRANCH  17  18
ENDBRANCH  15  17
ENDBRANCH   6  13
TORSDOF 3
ENDMDL
MODEL 4
REMARK VINA RESULT:      -7.8      1.937      6.355
REMARK  Name = 
REMARK  5 active torsions:
REMARK  status: ('A' for Active; 'I' for Inactive)
REMARK    1  A    between atoms: C_1  and  C_2
REMARK    2  A    between atoms: C_6  and  C_7
REMARK    3  A    between atoms: N_9  and  C_10
REMARK    4  A    between atoms: C_10  and  C_11
REMARK    5  A    between atoms: C_17  and  C_18
REMARK                            x       y       z     vdW  Elec       q    Type
REMARK                         _______ _______ _______ _____ _____    ______ ____
ROOT
ATOM      1  C   UNL     1       1.368   2.260  20.117  0.00  0.00    +0.000 C 
ATOM      2  C   UNL     1       2.383   2.947  19.249  0.00  0.00    +0.000 A 
ATOM      3  C   UNL     1       2.137   3.162  17.890  0.00  0.00    +0.000 A 
ATOM      4  C   UNL     1       3.089   3.789  17.071  0.00  0.00    +0.000 A 
ATOM      5  C   UNL     1       4.314   4.230  17.620  0.00  0.00    +0.000 A 
ATOM      6  C   UNL     1       5.498   4.870  17.096  0.00  0.00    +0.000 A 
ATOM      7  C   UNL     1       6.382   5.001  18.164  0.00  0.00    +0.000 A 
ATOM      8  C   UNL     1       7.748   5.581  18.258  0.00  0.00    +0.000 C 
ATOM      9  N   UNL     1       5.784   4.470  19.277  0.00  0.00    +0.000 N 
ATOM     10  C   UNL     1       4.532   3.995  18.979  0.00  0.00    +0.000 A 
ATOM     11  C   UNL     1       3.597   3.363  19.810  0.00  0.00    +0.000 A 
ATOM     12  H   UNL     1       6.208   4.416  20.193  0.00  0.00    +0.000 HD
ENDROOT
BRANCH   6  13
ATOM     13  C   UNL     1       5.794   5.275  15.717  0.00  0.00    +0.000 C 
ATOM     14  O   UNL     1       5.351   6.308  15.224  0.00  0.00    +0.000 OA
ATOM     15  N   UNL     1       6.590   4.399  15.012  0.00  0.00    +0.000 N 
ATOM     16  H   UNL     1       6.720   3.473  15.393  0.00  0.00    +0.000 HD
BRANCH  15  17
ATOM     17  C   UNL     1       6.940   4.635  13.634  0.00  0.00    +0.000 C 
BRANCH  17  18
ATOM     18  C   UNL     1       6.171   3.739  12.700  0.00  0.00    +0.000 A 
ATOM     19  C   UNL     1       6.778   2.599  12.149  0.00  0.00    +0.000 A 
ATOM     20  C   UNL     1       6.071   1.770  11.277  0.00  0.00    +0.000 A 
ATOM     21  C   UNL     1       4.754   2.073  10.940  0.00  0.00    +0.000 A 
ATOM     22  C   UNL     1       4.142   3.207  11.473  0.00  0.00    +0.000 A 
ATOM     23  C   UNL     1       4.847   4.037  12.347  0.00  0.00    +0.000 A 
ENDBRANCH  17  18
ENDBRANCH  15  17
ENDBRANCH   6  13
TORSDOF 3
ENDMDL
MODEL 5
REMARK VINA RESULT:      -7.7      0.980      1.438
REMARK  Name = 
REMARK  5 active torsions:
REMARK  status: ('A' for Active; 'I' for Inactive)
REMARK    1  A    between atoms: C_1  and  C_2
REMARK    2  A    between atoms: C_6  and  C_7
REMARK    3  A    between atoms: N_9  and  C_10
REMARK    4  A    between atoms: C_10  and  C_11
REMARK    5  A    between atoms: C_17  and  C_18
REMARK                            x       y       z     vdW  Elec       q    Type
REMARK                         _______ _______ _______ _____ _____    ______ ____
ROOT
ATOM      1  C   UNL     1       6.765   3.094  11.903  0.00  0.00    +0.000 C 
ATOM      2  C   UNL     1       6.406   3.834  13.160  0.00  0.00    +0.000 A 
ATOM      3  C   UNL     1       5.111   3.780  13.680  0.00  0.00    +0.000 A 
ATOM      4  C   UNL     1       4.768   4.484  14.846  0.00  0.00    +0.000 A 
ATOM      5  C   UNL     1       5.743   5.250  15.522  0.00  0.00    +0.000 A 
ATOM      6  C   UNL     1       5.746   6.095  16.694  0.00  0.00    +0.000 A 
ATOM      7  C   UNL     1       7.037   6.605  16.809  0.00  0.00    +0.000 A 
ATOM      8  C   UNL     1       7.661   7.519  17.803  0.00  0.00    +0.000 C 
ATOM      9  N   UNL     1       7.782   6.112  15.769  0.00  0.00    +0.000 N 
ATOM     10  C   UNL     1       7.025   5.290  14.974  0.00  0.00    +0.000 A 
ATOM     11  C   UNL     1       7.384   4.600  13.807  0.00  0.00    +0.000 A 
ATOM     12  H   UNL     1       8.753   6.333  15.596  0.00  0.00    +0.000 HD
ENDROOT
BRANCH   6  13
ATOM     13  C   UNL     1       4.637   6.432  17.593  0.00  0.00    +0.000 C 
ATOM     14  O   UNL     1       3.950   7.439  17.443  0.00  0.00    +0.000 OA
ATOM     15  N   UNL     1       4.437   5.546  18.627  0.00  0.00    +0.000 N 
ATOM     16  H   UNL     1       5.173   4.882  18.825  0.00  0.00    +0.000 HD
BRANCH  15  17
ATOM     17  C   UNL     1       3.412   5.756  19.618  0.00  0.00    +0.000 C 
BRANCH  17  18
ATOM     18  C   UNL     1       2.447   4.601  19.680  0.00  0.00    +0.000 A 
ATOM     19  C   UNL     1       2.017   4.100  20.919  0.00  0.00    +0.000 A 
ATOM     20  C   UNL     1       1.128   3.026  20.980  0.00  0.00    +0.000 A 
ATOM     21  C   UNL     1       0.667   2.435  19.806  0.00  0.00    +0.000 A 
ATOM     22  C   UNL     1       1.093   2.916  18.570  0.00  0.00    +0.000 A 
ATOM     23  C   UNL     1       1.981   3.993  18.505  0.00  0.00    +0.000 A 
ENDBRANCH  17  18
ENDBRANCH  15  17
ENDBRANCH   6  13
TORSDOF 3
ENDMDL
MODEL 6
REMARK VINA RESULT:      -7.7      1.372      1.480
REMARK  Name = 
REMARK  5 active torsions:
REMARK  status: ('A' for Active; 'I' for Inactive)
REMARK    1  A    between atoms: C_1  and  C_2
REMARK    2  A    between atoms: C_6  and  C_7
REMARK    3  A    between atoms: N_9  and  C_10
REMARK    4  A    between atoms: C_10  and  C_11
REMARK    5  A    between atoms: C_17  and  C_18
REMARK                            x       y       z     vdW  Elec       q    Type
REMARK                         _______ _______ _______ _____ _____    ______ ____
ROOT
ATOM      1  C   UNL     1       6.429   3.624  11.911  0.00  0.00    +0.000 C 
ATOM      2  C   UNL     1       6.411   3.886  13.389  0.00  0.00    +0.000 A 
ATOM      3  C   UNL     1       5.688   3.062  14.256  0.00  0.00    +0.000 A 
ATOM      4  C   UNL     1       5.654   3.312  15.636  0.00  0.00    +0.000 A 
ATOM      5  C   UNL     1       6.372   4.403  16.175  0.00  0.00    +0.000 A 
ATOM      6  C   UNL     1       6.545   4.962  17.496  0.00  0.00    +0.000 A 
ATOM      7  C   UNL     1       7.357   6.084  17.347  0.00  0.00    +0.000 A 
ATOM      8  C   UNL     1       7.888   7.064  18.332  0.00  0.00    +0.000 C 
ATOM      9  N   UNL     1       7.662   6.213  16.018  0.00  0.00    +0.000 N 
ATOM     10  C   UNL     1       7.080   5.211  15.283  0.00  0.00    +0.000 A 
ATOM     11  C   UNL     1       7.118   4.981  13.901  0.00  0.00    +0.000 A 
ATOM     12  H   UNL     1       8.224   6.954  15.621  0.00  0.00    +0.000 HD
ENDROOT
BRANCH   6  13
ATOM     13  C   UNL     1       5.965   4.518  18.768  0.00  0.00    +0.000 C 
ATOM     14  O   UNL     1       6.045   5.184  19.797  0.00  0.00    +0.000 OA
ATOM     15  N   UNL     1       5.343   3.290  18.727  0.00  0.00    +0.000 N 
ATOM     16  H   UNL     1       5.518   2.702  17.924  0.00  0.00    +0.000 HD
BRANCH  15  17
ATOM     17  C   UNL     1       4.758   2.697  19.903  0.00  0.00    +0.000 C 
BRANCH  17  18
ATOM     18  C   UNL     1       3.258   2.838  19.914  0.00  0.00    +0.000 A 
ATOM     19  C   UNL     1       2.544   2.915  18.708  0.00  0.00    +0.000 A 
ATOM     20  C   UNL     1       1.154   3.052  18.715  0.00  0.00    +0.000 A 
ATOM     21  C   UNL     1       0.466   3.123  19.923  0.00  0.00    +0.000 A 
ATOM     22  C   UNL     1       1.164   3.057  21.128  0.00  0.00    +0.000 A 
ATOM     23  C   UNL     1       2.554   2.917  21.124  0.00  0.00    +0.000 A 
ENDBRANCH  17  18
ENDBRANCH  15  17
ENDBRANCH   6  13
TORSDOF 3
ENDMDL
MODEL 7
REMARK VINA RESULT:      -7.6      1.708      2.832
REMARK  Name = 
REMARK  5 active torsions:
REMARK  status: ('A' for Active; 'I' for Inactive)
REMARK    1  A    between atoms: C_1  and  C_2
REMARK    2  A    between atoms: C_6  and  C_7
REMARK    3  A    between atoms: N_9  and  C_10
REMARK    4  A    between atoms: C_10  and  C_11
REMARK    5  A    between atoms: C_17  and  C_18
REMARK                            x       y       z     vdW  Elec       q    Type
REMARK                         _______ _______ _______ _____ _____    ______ ____
ROOT
ATOM      1  C   UNL     1       6.555   3.463  12.065  0.00  0.00    +0.000 C 
ATOM      2  C   UNL     1       6.358   3.987  13.459  0.00  0.00    +0.000 A 
ATOM      3  C   UNL     1       5.247   3.610  14.218  0.00  0.00    +0.000 A 
ATOM      4  C   UNL     1       5.050   4.110  15.514  0.00  0.00    +0.000 A 
ATOM      5  C   UNL     1       5.992   4.998  16.080  0.00  0.00    +0.000 A 
ATOM      6  C   UNL     1       6.103   5.709  17.333  0.00  0.00    +0.000 A 
ATOM      7  C   UNL     1       7.268   6.469  17.254  0.00  0.00    +0.000 A 
ATOM      8  C   UNL     1       7.918   7.396  18.218  0.00  0.00    +0.000 C 
ATOM      9  N   UNL     1       7.837   6.246  16.027  0.00  0.00    +0.000 N 
ATOM     10  C   UNL     1       7.087   5.361  15.295  0.00  0.00    +0.000 A 
ATOM     11  C   UNL     1       7.296   4.878  13.995  0.00  0.00    +0.000 A 
ATOM     12  H   UNL     1       8.685   6.684  15.694  0.00  0.00    +0.000 HD
ENDROOT
BRANCH   6  13
ATOM     13  C   UNL     1       5.182   5.716  18.475  0.00  0.00    +0.000 C 
ATOM     14  O   UNL     1       5.510   5.315  19.588  0.00  0.00    +0.000 OA
ATOM     15  N   UNL     1       3.918   6.186  18.199  0.00  0.00    +0.000 N 
ATOM     16  H   UNL     1       3.651   6.274  17.229  0.00  0.00    +0.000 HD
BRANCH  15  17
ATOM     17  C   UNL     1       2.887   6.221  19.206  0.00  0.00    +0.000 C 
BRANCH  17  18
ATOM     18  C   UNL     1       2.141   7.530  19.199  0.00  0.00    +0.000 A 
ATOM     19  C   UNL     1       1.986   8.252  18.005  0.00  0.00    +0.000 A 
ATOM     20  C   UNL     1       1.301   9.468  17.996  0.00  0.00    +0.000 A 
ATOM     21  C   UNL     1       0.772   9.980  19.178  0.00  0.00    +0.000 A 
ATOM     22  C   UNL     1       0.927   9.277  20.372  0.00  0.00    +0.000 A 
ATOM     23  C   UNL     1       1.610   8.058  20.384  0.00  0.00    +0.000 A 
ENDBRANCH  17  18
ENDBRANCH  15  17
ENDBRANCH   6  13
TORSDOF 3
ENDMDL
MODEL 8
REMARK VINA RESULT:      -7.5      0.506      1.147
REMARK  Name = 
REMARK  5 active torsions:
REMARK  status: ('A' for Active; 'I' for Inactive)
REMARK    1  A    between atoms: C_1  and  C_2
REMARK    2  A    between atoms: C_6  and  C_7
REMARK    3  A    between atoms: N_9  and  C_10
REMARK    4  A    between atoms: C_10  and  C_11
REMARK    5  A    between atoms: C_17  and  C_18
REMARK                            x       y       z     vdW  Elec       q    Type
REMARK                         _______ _______ _______ _____ _____    ______ ____
ROOT
ATOM      1  C   UNL     1       6.671   3.626  12.024  0.00  0.00    +0.000 C 
ATOM      2  C   UNL     1       6.368   4.099  13.416  0.00  0.00    +0.000 A 
ATOM      3  C   UNL     1       5.092   3.949  13.965  0.00  0.00    +0.000 A 
ATOM      4  C   UNL     1       4.800   4.405  15.260  0.00  0.00    +0.000 A 
ATOM      5  C   UNL     1       5.808   5.014  16.039  0.00  0.00    +0.000 A 
ATOM      6  C   UNL     1       5.866   5.605  17.356  0.00  0.00    +0.000 A 
ATOM      7  C   UNL     1       7.167   6.074  17.522  0.00  0.00    +0.000 A 
ATOM      8  C   UNL     1       7.838   6.766  18.655  0.00  0.00    +0.000 C 
ATOM      9  N   UNL     1       7.867   5.796  16.377  0.00  0.00    +0.000 N 
ATOM     10  C   UNL     1       7.071   5.156  15.462  0.00  0.00    +0.000 A 
ATOM     11  C   UNL     1       7.378   4.714  14.167  0.00  0.00    +0.000 A 
ATOM     12  H   UNL     1       8.833   6.043  16.214  0.00  0.00    +0.000 HD
ENDROOT
BRANCH   6  13
ATOM     13  C   UNL     1       4.794   5.760  18.346  0.00  0.00    +0.000 C 
ATOM     14  O   UNL     1       4.927   5.423  19.520  0.00  0.00    +0.000 OA
ATOM     15  N   UNL     1       3.623   6.292  17.856  0.00  0.00    +0.000 N 
ATOM     16  H   UNL     1       3.505   6.323  16.853  0.00  0.00    +0.000 HD
BRANCH  15  17
ATOM     17  C   UNL     1       2.463   6.472  18.693  0.00  0.00    +0.000 C 
BRANCH  17  18
ATOM     18  C   UNL     1       1.958   5.162  19.239  0.00  0.00    +0.000 A 
ATOM     19  C   UNL     1       1.764   4.996  20.619  0.00  0.00    +0.000 A 
ATOM     20  C   UNL     1       1.302   3.781  21.129  0.00  0.00    +0.000 A 
ATOM     21  C   UNL     1       1.037   2.719  20.269  0.00  0.00    +0.000 A 
ATOM     22  C   UNL     1       1.234   2.868  18.897  0.00  0.00    +0.000 A 
ATOM     23  C   UNL     1       1.694   4.083  18.383  0.00  0.00    +0.000 A 
ENDBRANCH  17  18
ENDBRANCH  15  17
ENDBRANCH   6  13
TORSDOF 3
ENDMDL
MODEL 9
REMARK VINA RESULT:      -7.5      5.441      8.144
REMARK  Name = 
REMARK  5 active torsions:
REMARK  status: ('A' for Active; 'I' for Inactive)
REMARK    1  A    between atoms: C_1  and  C_2
REMARK    2  A    between atoms: C_6  and  C_7
REMARK    3  A    between atoms: N_9  and  C_10
REMARK    4  A    between atoms: C_10  and  C_11
REMARK    5  A    between atoms: C_17  and  C_18
REMARK                            x       y       z     vdW  Elec       q    Type
REMARK                         _______ _______ _______ _____ _____    ______ ____
ROOT
ATOM      1  C   UNL     1      -5.198  11.373  17.154  0.00  0.00    +0.000 C 
ATOM      2  C   UNL     1      -3.773  11.035  17.487  0.00  0.00    +0.000 A 
ATOM      3  C   UNL     1      -3.060  10.102  16.731  0.00  0.00    +0.000 A 
ATOM      4  C   UNL     1      -1.734   9.771  17.049  0.00  0.00    +0.000 A 
ATOM      5  C   UNL     1      -1.091  10.397  18.141  0.00  0.00    +0.000 A 
ATOM      6  C   UNL     1       0.211  10.293  18.757  0.00  0.00    +0.000 A 
ATOM      7  C   UNL     1       0.205  11.165  19.842  0.00  0.00    +0.000 A 
ATOM      8  C   UNL     1       1.244  11.505  20.851  0.00  0.00    +0.000 C 
ATOM      9  N   UNL     1      -1.026  11.766  19.897  0.00  0.00    +0.000 N 
ATOM     10  C   UNL     1      -1.832  11.320  18.880  0.00  0.00    +0.000 A 
ATOM     11  C   UNL     1      -3.159  11.657  18.582  0.00  0.00    +0.000 A 
ATOM     12  H   UNL     1      -1.314  12.434  20.599  0.00  0.00    +0.000 HD
ENDROOT
BRANCH   6  13
ATOM     13  C   UNL     1       1.337   9.425  18.395  0.00  0.00    +0.000 C 
ATOM     14  O   UNL     1       2.034   9.627  17.403  0.00  0.00    +0.000 OA
ATOM     15  N   UNL     1       1.541   8.356  19.238  0.00  0.00    +0.000 N 
ATOM     16  H   UNL     1       0.801   8.120  19.884  0.00  0.00    +0.000 HD
BRANCH  15  17
ATOM     17  C   UNL     1       2.583   7.389  18.997  0.00  0.00    +0.000 C 
BRANCH  17  18
ATOM     18  C   UNL     1       2.090   5.977  19.181  0.00  0.00    +0.000 A 
ATOM     19  C   UNL     1       1.749   5.505  20.458  0.00  0.00    +0.000 A 
ATOM     20  C   UNL     1       1.298   4.195  20.632  0.00  0.00    +0.000 A 
ATOM     21  C   UNL     1       1.192   3.342  19.537  0.00  0.00    +0.000 A 
ATOM     22  C   UNL     1       1.537   3.796  18.265  0.00  0.00    +0.000 A 
ATOM     23  C   UNL     1       1.986   5.107  18.087  0.00  0.00    +0.000 A 
ENDBRANCH  17  18
ENDBRANCH  15  17
ENDBRANCH   6  13
TORSDOF 3
ENDMDL
