MODEL 1
REMARK VINA RESULT:      -7.1      0.000      0.000
REMARK  Name = 
REMARK  8 active torsions:
REMARK  status: ('A' for Active; 'I' for Inactive)
REMARK    1  A    between atoms: C_1  and  O_2
REMARK    2  A    between atoms: O_2  and  C_3
REMARK    3  A    between atoms: C_9  and  S_10
REMARK    4  A    between atoms: S_10  and  N_13
REMARK    5  A    between atoms: N_13  and  C_14
REMARK    6  A    between atoms: C_14  and  C_15
REMARK    7  A    between atoms: C_15  and  C_16
REMARK    8  A    between atoms: C_16  and  N_17
REMARK                            x       y       z     vdW  Elec       q    Type
REMARK                         _______ _______ _______ _____ _____    ______ ____
ROOT
ATOM      1  S   UNL     1       1.867   2.958  18.100  0.00  0.00    +0.000 S 
ATOM      2  O   UNL     1       0.650   2.274  18.420  0.00  0.00    +0.000 OA
ATOM      3  O   UNL     1       2.220   3.255  16.718  0.00  0.00    +0.000 OA
ENDROOT
BRANCH   1  10
ATOM      4  C   UNL     1       1.487   4.620  20.331  0.00  0.00    +0.000 A 
ATOM      5  C   UNL     1       1.509   5.906  20.899  0.00  0.00    +0.000 A 
ATOM      6  C   UNL     1       1.874   7.025  20.145  0.00  0.00    +0.000 A 
ATOM      7  C   UNL     1       2.235   6.872  18.814  0.00  0.00    +0.000 A 
ATOM      8 BR   UNL     1       2.737   8.375  17.788  0.00  0.00    +0.000 Br
ATOM      9  C   UNL     1       2.242   5.613  18.237  0.00  0.00    +0.000 A 
ATOM     10  C   UNL     1       1.890   4.484  18.995  0.00  0.00    +0.000 A 
BRANCH   4  12
ATOM     11  C   UNL     1       2.145   3.083  22.023  0.00  0.00    +0.000 C 
ATOM     12  O   UNL     1       1.175   3.505  21.060  0.00  0.00    +0.000 OA
ENDBRANCH   4  12
ENDBRANCH   1  10
BRANCH   1  13
ATOM     13  N   UNL     1       3.116   1.997  18.690  0.00  0.00    +0.000 NA
ATOM     14  H   UNL     1       3.377   1.301  17.987  0.00  0.00    +0.000 HD
BRANCH  13  15
ATOM     15  C   UNL     1       4.228   2.657  19.376  0.00  0.00    +0.000 C 
BRANCH  15  16
ATOM     16  C   UNL     1       5.051   3.409  18.334  0.00  0.00    +0.000 C 
BRANCH  16  17
ATOM     17  C   UNL     1       5.706   4.698  18.869  0.00  0.00    +0.000 C 
BRANCH  17  18
ATOM     18  N   UNL     1       7.142   4.781  18.530  0.00  0.00    +0.000 NA
ATOM     19  C   UNL     1       7.733   6.126  18.719  0.00  0.00    +0.000 C 
ATOM     20  C   UNL     1       7.200   7.149  17.708  0.00  0.00    +0.000 C 
ATOM     21  O   UNL     1       7.567   6.754  16.379  0.00  0.00    +0.000 OA
ATOM     22  C   UNL     1       7.034   5.459  16.069  0.00  0.00    +0.000 C 
ATOM     23  C   UNL     1       7.403   4.391  17.122  0.00  0.00    +0.000 C 
ENDBRANCH  17  18
ENDBRANCH  16  17
ENDBRANCH  15  16
ENDBRANCH  13  15
ENDBRANCH   1  13
TORSDOF 7
ENDMDL
MODEL 2
REMARK VINA RESULT:      -6.8      4.305      6.264
REMARK  Name = 
REMARK  8 active torsions:
REMARK  status: ('A' for Active; 'I' for Inactive)
REMARK    1  A    between atoms: C_1  and  O_2
REMARK    2  A    between atoms: O_2  and  C_3
REMARK    3  A    between atoms: C_9  and  S_10
REMARK    4  A    between atoms: S_10  and  N_13
REMARK    5  A    between atoms: N_13  and  C_14
REMARK    6  A    between atoms: C_14  and  C_15
REMARK    7  A    between atoms: C_15  and  C_16
REMARK    8  A    between atoms: C_16  and  N_17
REMARK                            x       y       z     vdW  Elec       q    Type
REMARK                         _______ _______ _______ _____ _____    ______ ____
ROOT
ATOM      1  S   UNL     1       7.187   5.328  18.638  0.00  0.00    +0.000 S 
ATOM      2  O   UNL     1       7.499   5.448  20.031  0.00  0.00    +0.000 OA
ATOM      3  O   UNL     1       7.833   4.319  17.809  0.00  0.00    +0.000 OA
ENDROOT
BRANCH   1  10
ATOM      4  C   UNL     1       4.661   5.646  17.452  0.00  0.00    +0.000 A 
ATOM      5  C   UNL     1       3.273   5.428  17.487  0.00  0.00    +0.000 A 
ATOM      6  C   UNL     1       2.674   4.734  18.543  0.00  0.00    +0.000 A 
ATOM      7  C   UNL     1       3.458   4.236  19.573  0.00  0.00    +0.000 A 
ATOM      8 BR   UNL     1       2.662   3.291  21.000  0.00  0.00    +0.000 Br
ATOM      9  C   UNL     1       4.831   4.419  19.551  0.00  0.00    +0.000 A 
ATOM     10  C   UNL     1       5.439   5.102  18.485  0.00  0.00    +0.000 A 
BRANCH   4  12
ATOM     11  C   UNL     1       5.566   5.486  15.258  0.00  0.00    +0.000 C 
ATOM     12  O   UNL     1       5.275   6.284  16.408  0.00  0.00    +0.000 OA
ENDBRANCH   4  12
ENDBRANCH   1  10
BRANCH   1  13
ATOM     13  N   UNL     1       7.578   6.808  17.939  0.00  0.00    +0.000 NA
ATOM     14  H   UNL     1       6.750   7.205  17.488  0.00  0.00    +0.000 HD
BRANCH  13  15
ATOM     15  C   UNL     1       8.389   7.745  18.719  0.00  0.00    +0.000 C 
BRANCH  15  16
ATOM     16  C   UNL     1       8.261   9.127  18.085  0.00  0.00    +0.000 C 
BRANCH  16  17
ATOM     17  C   UNL     1       9.102  10.213  18.785  0.00  0.00    +0.000 C 
BRANCH  17  18
ATOM     18  N   UNL     1       9.623  11.219  17.836  0.00  0.00    +0.000 NA
ATOM     19  C   UNL     1      10.998  11.679  18.134  0.00  0.00    +0.000 C 
ATOM     20  C   UNL     1      11.071  12.517  19.417  0.00  0.00    +0.000 C 
ATOM     21  O   UNL     1      10.295  13.712  19.261  0.00  0.00    +0.000 OA
ATOM     22  C   UNL     1       8.924  13.393  18.981  0.00  0.00    +0.000 C 
ATOM     23  C   UNL     1       8.766  12.429  17.784  0.00  0.00    +0.000 C 
ENDBRANCH  17  18
ENDBRANCH  16  17
ENDBRANCH  15  16
ENDBRANCH  13  15
ENDBRANCH   1  13
TORSDOF 7
ENDMDL
MODEL 3
REMARK VINA RESULT:      -6.8      4.282      6.105
REMARK  Name = 
REMARK  8 active torsions:
REMARK  status: ('A' for Active; 'I' for Inactive)
REMARK    1  A    between atoms: C_1  and  O_2
REMARK    2  A    between atoms: O_2  and  C_3
REMARK    3  A    between atoms: C_9  and  S_10
REMARK    4  A    between atoms: S_10  and  N_13
REMARK    5  A    between atoms: N_13  and  C_14
REMARK    6  A    between atoms: C_14  and  C_15
REMARK    7  A    between atoms: C_15  and  C_16
REMARK    8  A    between atoms: C_16  and  N_17
REMARK                            x       y       z     vdW  Elec       q    Type
REMARK                         _______ _______ _______ _____ _____    ______ ____
ROOT
ATOM      1  S   UNL     1       6.459   5.895  16.703  0.00  0.00    +0.000 S 
ATOM      2  O   UNL     1       7.500   5.146  17.341  0.00  0.00    +0.000 OA
ATOM      3  O   UNL     1       6.348   5.939  15.250  0.00  0.00    +0.000 OA
ENDROOT
BRANCH   1  10
ATOM      4  C   UNL     1       3.840   6.174  17.679  0.00  0.00    +0.000 A 
ATOM      5  C   UNL     1       2.684   5.588  18.223  0.00  0.00    +0.000 A 
ATOM      6  C   UNL     1       2.613   4.213  18.465  0.00  0.00    +0.000 A 
ATOM      7  C   UNL     1       3.695   3.402  18.154  0.00  0.00    +0.000 A 
ATOM      8 BR   UNL     1       3.607   1.542  18.470  0.00  0.00    +0.000 Br
ATOM      9  C   UNL     1       4.837   3.951  17.597  0.00  0.00    +0.000 A 
ATOM     10  C   UNL     1       4.908   5.330  17.338  0.00  0.00    +0.000 A 
BRANCH   4  12
ATOM     11  C   UNL     1       2.785   8.304  17.758  0.00  0.00    +0.000 C 
ATOM     12  O   UNL     1       3.917   7.510  17.393  0.00  0.00    +0.000 OA
ENDBRANCH   4  12
ENDBRANCH   1  10
BRANCH   1  13
ATOM     13  N   UNL     1       6.662   7.493  17.190  0.00  0.00    +0.000 NA
ATOM     14  H   UNL     1       5.803   7.831  17.630  0.00  0.00    +0.000 HD
BRANCH  13  15
ATOM     15  C   UNL     1       7.909   7.852  17.870  0.00  0.00    +0.000 C 
BRANCH  15  16
ATOM     16  C   UNL     1       8.096   9.363  17.755  0.00  0.00    +0.000 C 
BRANCH  16  17
ATOM     17  C   UNL     1       9.049   9.954  18.811  0.00  0.00    +0.000 C 
BRANCH  17  18
ATOM     18  N   UNL     1       9.906  11.024  18.259  0.00  0.00    +0.000 NA
ATOM     19  C   UNL     1      11.102  11.327  19.077  0.00  0.00    +0.000 C 
ATOM     20  C   UNL     1      10.747  11.987  20.415  0.00  0.00    +0.000 C 
ATOM     21  O   UNL     1      10.117  13.253  20.179  0.00  0.00    +0.000 OA
ATOM     22  C   UNL     1       8.923  13.088  19.400  0.00  0.00    +0.000 C 
ATOM     23  C   UNL     1       9.164  12.299  18.094  0.00  0.00    +0.000 C 
ENDBRANCH  17  18
ENDBRANCH  16  17
ENDBRANCH  15  16
ENDBRANCH  13  15
ENDBRANCH   1  13
TORSDOF 7
ENDMDL
MODEL 4
REMARK VINA RESULT:      -6.8      4.034      5.561
REMARK  Name = 
REMARK  8 active torsions:
REMARK  status: ('A' for Active; 'I' for Inactive)
REMARK    1  A    between atoms: C_1  and  O_2
REMARK    2  A    between atoms: O_2  and  C_3
REMARK    3  A    between atoms: C_9  and  S_10
REMARK    4  A    between atoms: S_10  and  N_13
REMARK    5  A    between atoms: N_13  and  C_14
REMARK    6  A    between atoms: C_14  and  C_15
REMARK    7  A    between atoms: C_15  and  C_16
REMARK    8  A    between atoms: C_16  and  N_17
REMARK                            x       y       z     vdW  Elec       q    Type
REMARK                         _______ _______ _______ _____ _____    ______ ____
ROOT
ATOM      1  S   UNL     1       6.750   5.477  17.531  0.00  0.00    +0.000 S 
ATOM      2  O   UNL     1       7.602   4.970  18.566  0.00  0.00    +0.000 OA
ATOM      3  O   UNL     1       6.664   4.812  16.237  0.00  0.00    +0.000 OA
ENDROOT
BRANCH   1  10
ATOM      4  C   UNL     1       4.463   4.563  18.881  0.00  0.00    +0.000 A 
ATOM      5  C   UNL     1       3.136   4.777  19.293  0.00  0.00    +0.000 A 
ATOM      6  C   UNL     1       2.459   5.958  18.974  0.00  0.00    +0.000 A 
ATOM      7  C   UNL     1       3.105   6.948  18.249  0.00  0.00    +0.000 A 
ATOM      8 BR   UNL     1       2.204   8.551  17.820  0.00  0.00    +0.000 Br
ATOM      9  C   UNL     1       4.420   6.771  17.849  0.00  0.00    +0.000 A 
ATOM     10  C   UNL     1       5.108   5.593  18.180  0.00  0.00    +0.000 A 
BRANCH   4  12
ATOM     11  C   UNL     1       4.423   2.409  19.890  0.00  0.00    +0.000 C 
ATOM     12  O   UNL     1       5.160   3.434  19.217  0.00  0.00    +0.000 OA
ENDBRANCH   4  12
ENDBRANCH   1  10
BRANCH   1  13
ATOM     13  N   UNL     1       7.286   7.038  17.204  0.00  0.00    +0.000 NA
ATOM     14  H   UNL     1       6.509   7.602  16.851  0.00  0.00    +0.000 HD
BRANCH  13  15
ATOM     15  C   UNL     1       8.150   7.691  18.190  0.00  0.00    +0.000 C 
BRANCH  15  16
ATOM     16  C   UNL     1       8.184   9.184  17.878  0.00  0.00    +0.000 C 
BRANCH  16  17
ATOM     17  C   UNL     1       9.016  10.010  18.879  0.00  0.00    +0.000 C 
BRANCH  17  18
ATOM     18  N   UNL     1       9.829  11.049  18.211  0.00  0.00    +0.000 NA
ATOM     19  C   UNL     1      11.052  11.432  18.953  0.00  0.00    +0.000 C 
ATOM     20  C   UNL     1      10.739  12.185  20.251  0.00  0.00    +0.000 C 
ATOM     21  O   UNL     1      10.076  13.419  19.948  0.00  0.00    +0.000 OA
ATOM     22  C   UNL     1       8.855  13.177  19.236  0.00  0.00    +0.000 C 
ATOM     23  C   UNL     1       9.056  12.296  17.984  0.00  0.00    +0.000 C 
ENDBRANCH  17  18
ENDBRANCH  16  17
ENDBRANCH  15  16
ENDBRANCH  13  15
ENDBRANCH   1  13
TORSDOF 7
ENDMDL
MODEL 5
REMARK VINA RESULT:      -6.7      0.849      1.407
REMARK  Name = 
REMARK  8 active torsions:
REMARK  status: ('A' for Active; 'I' for Inactive)
REMARK    1  A    between atoms: C_1  and  O_2
REMARK    2  A    between atoms: O_2  and  C_3
REMARK    3  A    between atoms: C_9  and  S_10
REMARK    4  A    between atoms: S_10  and  N_13
REMARK    5  A    between atoms: N_13  and  C_14
REMARK    6  A    between atoms: C_14  and  C_15
REMARK    7  A    between atoms: C_15  and  C_16
REMARK    8  A    between atoms: C_16  and  N_17
REMARK                            x       y       z     vdW  Elec       q    Type
REMARK                         _______ _______ _______ _____ _____    ______ ____
ROOT
ATOM      1  S   UNL     1       1.604   2.867  18.124  0.00  0.00    +0.000 S 
ATOM      2  O   UNL     1       0.334   2.276  18.424  0.00  0.00    +0.000 OA
ATOM      3  O   UNL     1       1.990   3.157  16.749  0.00  0.00    +0.000 OA
ENDROOT
BRANCH   1  10
ATOM      4  C   UNL     1       1.434   4.495  20.406  0.00  0.00    +0.000 A 
ATOM      5  C   UNL     1       1.536   5.767  20.995  0.00  0.00    +0.000 A 
ATOM      6  C   UNL     1       1.882   6.890  20.237  0.00  0.00    +0.000 A 
ATOM      7  C   UNL     1       2.144   6.754  18.881  0.00  0.00    +0.000 A 
ATOM      8 BR   UNL     1       2.619   8.261  17.850  0.00  0.00    +0.000 Br
ATOM      9  C   UNL     1       2.070   5.507  18.282  0.00  0.00    +0.000 A 
ATOM     10  C   UNL     1       1.738   4.374  19.042  0.00  0.00    +0.000 A 
BRANCH   4  12
ATOM     11  C   UNL     1       2.125   2.955  22.083  0.00  0.00    +0.000 C 
ATOM     12  O   UNL     1       1.139   3.374  21.135  0.00  0.00    +0.000 OA
ENDBRANCH   4  12
ENDBRANCH   1  10
BRANCH   1  13
ATOM     13  N   UNL     1       2.768   1.803  18.708  0.00  0.00    +0.000 NA
ATOM     14  H   UNL     1       2.885   1.026  18.053  0.00  0.00    +0.000 HD
BRANCH  13  15
ATOM     15  C   UNL     1       4.006   2.367  19.253  0.00  0.00    +0.000 C 
BRANCH  15  16
ATOM     16  C   UNL     1       4.842   2.893  18.090  0.00  0.00    +0.000 C 
BRANCH  16  17
ATOM     17  C   UNL     1       5.444   4.290  18.338  0.00  0.00    +0.000 C 
BRANCH  17  18
ATOM     18  N   UNL     1       5.129   5.239  17.250  0.00  0.00    +0.000 NA
ATOM     19  C   UNL     1       5.463   4.743  15.896  0.00  0.00    +0.000 C 
ATOM     20  C   UNL     1       6.976   4.628  15.669  0.00  0.00    +0.000 C 
ATOM     21  O   UNL     1       7.579   5.926  15.758  0.00  0.00    +0.000 OA
ATOM     22  C   UNL     1       7.336   6.511  17.045  0.00  0.00    +0.000 C 
ATOM     23  C   UNL     1       5.838   6.532  17.420  0.00  0.00    +0.000 C 
ENDBRANCH  17  18
ENDBRANCH  16  17
ENDBRANCH  15  16
ENDBRANCH  13  15
ENDBRANCH   1  13
TORSDOF 7
ENDMDL
MODEL 6
REMARK VINA RESULT:      -6.6      4.116      6.275
REMARK  Name = 
REMARK  8 active torsions:
REMARK  status: ('A' for Active; 'I' for Inactive)
REMARK    1  A    between atoms: C_1  and  O_2
REMARK    2  A    between atoms: O_2  and  C_3
REMARK    3  A    between atoms: C_9  and  S_10
REMARK    4  A    between atoms: S_10  and  N_13
REMARK    5  A    between atoms: N_13  and  C_14
REMARK    6  A    between atoms: C_14  and  C_15
REMARK    7  A    between atoms: C_15  and  C_16
REMARK    8  A    between atoms: C_16  and  N_17
REMARK                            x       y       z     vdW  Elec       q    Type
REMARK                         _______ _______ _______ _____ _____    ______ ____
ROOT
ATOM      1  S   UNL     1       7.364   5.261  18.002  0.00  0.00    +0.000 S 
ATOM      2  O   UNL     1       7.495   5.781  19.330  0.00  0.00    +0.000 OA
ATOM      3  O   UNL     1       8.297   4.264  17.491  0.00  0.00    +0.000 OA
ENDROOT
BRANCH   1  10
ATOM      4  C   UNL     1       5.011   4.581  16.628  0.00  0.00    +0.000 A 
ATOM      5  C   UNL     1       3.701   4.071  16.651  0.00  0.00    +0.000 A 
ATOM      6  C   UNL     1       3.113   3.639  17.843  0.00  0.00    +0.000 A 
ATOM      7  C   UNL     1       3.832   3.699  19.028  0.00  0.00    +0.000 A 
ATOM      8 BR   UNL     1       3.051   3.110  20.643  0.00  0.00    +0.000 Br
ATOM      9  C   UNL     1       5.132   4.178  19.028  0.00  0.00    +0.000 A 
ATOM     10  C   UNL     1       5.732   4.599  17.831  0.00  0.00    +0.000 A 
BRANCH   4  12
ATOM     11  C   UNL     1       6.116   3.923  14.626  0.00  0.00    +0.000 C 
ATOM     12  O   UNL     1       5.623   4.970  15.467  0.00  0.00    +0.000 OA
ENDBRANCH   4  12
ENDBRANCH   1  10
BRANCH   1  13
ATOM     13  N   UNL     1       7.496   6.579  16.965  0.00  0.00    +0.000 NA
ATOM     14  H   UNL     1       7.083   6.347  16.058  0.00  0.00    +0.000 HD
BRANCH  13  15
ATOM     15  C   UNL     1       7.169   7.906  17.492  0.00  0.00    +0.000 C 
BRANCH  15  16
ATOM     16  C   UNL     1       8.474   8.615  17.840  0.00  0.00    +0.000 C 
BRANCH  16  17
ATOM     17  C   UNL     1       8.285  10.069  18.315  0.00  0.00    +0.000 C 
BRANCH  17  18
ATOM     18  N   UNL     1       9.484  10.900  18.075  0.00  0.00    +0.000 NA
ATOM     19  C   UNL     1      10.384  11.016  19.244  0.00  0.00    +0.000 C 
ATOM     20  C   UNL     1       9.764  11.834  20.384  0.00  0.00    +0.000 C 
ATOM     21  O   UNL     1       9.534  13.179  19.946  0.00  0.00    +0.000 OA
ATOM     22  C   UNL     1       8.652  13.200  18.814  0.00  0.00    +0.000 C 
ATOM     23  C   UNL     1       9.128  12.282  17.667  0.00  0.00    +0.000 C 
ENDBRANCH  17  18
ENDBRANCH  16  17
ENDBRANCH  15  16
ENDBRANCH  13  15
ENDBRANCH   1  13
TORSDOF 7
ENDMDL
MODEL 7
REMARK VINA RESULT:      -6.6      3.959      6.131
REMARK  Name = 
REMARK  8 active torsions:
REMARK  status: ('A' for Active; 'I' for Inactive)
REMARK    1  A    between atoms: C_1  and  O_2
REMARK    2  A    between atoms: O_2  and  C_3
REMARK    3  A    between atoms: C_9  and  S_10
REMARK    4  A    between atoms: S_10  and  N_13
REMARK    5  A    between atoms: N_13  and  C_14
REMARK    6  A    between atoms: C_14  and  C_15
REMARK    7  A    between atoms: C_15  and  C_16
REMARK    8  A    between atoms: C_16  and  N_17
REMARK                            x       y       z     vdW  Elec       q    Type
REMARK                         _______ _______ _______ _____ _____    ______ ____
ROOT
ATOM      1  S   UNL     1       7.458   5.161  18.230  0.00  0.00    +0.000 S 
ATOM      2  O   UNL     1       7.596   5.628  19.577  0.00  0.00    +0.000 OA
ATOM      3  O   UNL     1       8.297   4.084  17.720  0.00  0.00    +0.000 OA
ENDROOT
BRANCH   1  10
ATOM      4  C   UNL     1       5.259   4.195  16.775  0.00  0.00    +0.000 A 
ATOM      5  C   UNL     1       3.885   3.906  16.710  0.00  0.00    +0.000 A 
ATOM      6  C   UNL     1       3.042   4.141  17.800  0.00  0.00    +0.000 A 
ATOM      7  C   UNL     1       3.565   4.659  18.976  0.00  0.00    +0.000 A 
ATOM      8 BR   UNL     1       2.438   4.973  20.458  0.00  0.00    +0.000 Br
ATOM      9  C   UNL     1       4.919   4.933  19.073  0.00  0.00    +0.000 A 
ATOM     10  C   UNL     1       5.772   4.684  17.985  0.00  0.00    +0.000 A 
BRANCH   4  12
ATOM     11  C   UNL     1       6.033   4.815  14.612  0.00  0.00    +0.000 C 
ATOM     12  O   UNL     1       6.111   3.934  15.736  0.00  0.00    +0.000 OA
ENDBRANCH   4  12
ENDBRANCH   1  10
BRANCH   1  13
ATOM     13  N   UNL     1       7.768   6.485  17.239  0.00  0.00    +0.000 NA
ATOM     14  H   UNL     1       7.597   6.232  16.263  0.00  0.00    +0.000 HD
BRANCH  13  15
ATOM     15  C   UNL     1       7.256   7.792  17.657  0.00  0.00    +0.000 C 
BRANCH  15  16
ATOM     16  C   UNL     1       8.394   8.555  18.330  0.00  0.00    +0.000 C 
BRANCH  16  17
ATOM     17  C   UNL     1       8.708   9.913  17.670  0.00  0.00    +0.000 C 
BRANCH  17  18
ATOM     18  N   UNL     1       8.620  11.036  18.627  0.00  0.00    +0.000 NA
ATOM     19  C   UNL     1       8.757  12.373  18.007  0.00  0.00    +0.000 C 
ATOM     20  C   UNL     1      10.174  12.633  17.480  0.00  0.00    +0.000 C 
ATOM     21  O   UNL     1      11.107  12.620  18.568  0.00  0.00    +0.000 OA
ATOM     22  C   UNL     1      11.078  11.356  19.246  0.00  0.00    +0.000 C 
ATOM     23  C   UNL     1       9.656  10.945  19.686  0.00  0.00    +0.000 C 
ENDBRANCH  17  18
ENDBRANCH  16  17
ENDBRANCH  15  16
ENDBRANCH  13  15
ENDBRANCH   1  13
TORSDOF 7
ENDMDL
MODEL 8
REMARK VINA RESULT:      -6.6      4.231      6.284
REMARK  Name = 
REMARK  8 active torsions:
REMARK  status: ('A' for Active; 'I' for Inactive)
REMARK    1  A    between atoms: C_1  and  O_2
REMARK    2  A    between atoms: O_2  and  C_3
REMARK    3  A    between atoms: C_9  and  S_10
REMARK    4  A    between atoms: S_10  and  N_13
REMARK    5  A    between atoms: N_13  and  C_14
REMARK    6  A    between atoms: C_14  and  C_15
REMARK    7  A    between atoms: C_15  and  C_16
REMARK    8  A    between atoms: C_16  and  N_17
REMARK                            x       y       z     vdW  Elec       q    Type
REMARK                         _______ _______ _______ _____ _____    ______ ____
ROOT
ATOM      1  S   UNL     1       6.979   5.388  18.524  0.00  0.00    +0.000 S 
ATOM      2  O   UNL     1       7.108   5.509  19.946  0.00  0.00    +0.000 OA
ATOM      3  O   UNL     1       7.987   4.691  17.736  0.00  0.00    +0.000 OA
ENDROOT
BRANCH   1  10
ATOM      4  C   UNL     1       4.821   4.602  16.909  0.00  0.00    +0.000 A 
ATOM      5  C   UNL     1       3.550   4.012  16.791  0.00  0.00    +0.000 A 
ATOM      6  C   UNL     1       2.876   3.514  17.910  0.00  0.00    +0.000 A 
ATOM      7  C   UNL     1       3.470   3.587  19.162  0.00  0.00    +0.000 A 
ATOM      8 BR   UNL     1       2.572   2.910  20.678  0.00  0.00    +0.000 Br
ATOM      9  C   UNL     1       4.730   4.144  19.301  0.00  0.00    +0.000 A 
ATOM     10  C   UNL     1       5.417   4.632  18.178  0.00  0.00    +0.000 A 
BRANCH   4  12
ATOM     11  C   UNL     1       5.507   4.220  14.663  0.00  0.00    +0.000 C 
ATOM     12  O   UNL     1       5.519   5.057  15.822  0.00  0.00    +0.000 OA
ENDBRANCH   4  12
ENDBRANCH   1  10
BRANCH   1  13
ATOM     13  N   UNL     1       6.936   6.958  17.920  0.00  0.00    +0.000 NA
ATOM     14  H   UNL     1       6.210   7.493  18.402  0.00  0.00    +0.000 HD
BRANCH  13  15
ATOM     15  C   UNL     1       8.210   7.653  17.718  0.00  0.00    +0.000 C 
BRANCH  15  16
ATOM     16  C   UNL     1       7.988   9.139  17.984  0.00  0.00    +0.000 C 
BRANCH  16  17
ATOM     17  C   UNL     1       9.122   9.803  18.790  0.00  0.00    +0.000 C 
BRANCH  17  18
ATOM     18  N   UNL     1       9.045  11.279  18.757  0.00  0.00    +0.000 NA
ATOM     19  C   UNL     1      10.012  11.916  17.834  0.00  0.00    +0.000 C 
ATOM     20  C   UNL     1      11.462  11.773  18.313  0.00  0.00    +0.000 C 
ATOM     21  O   UNL     1      11.629  12.450  19.565  0.00  0.00    +0.000 OA
ATOM     22  C   UNL     1      10.747  11.906  20.557  0.00  0.00    +0.000 C 
ATOM     23  C   UNL     1       9.273  11.876  20.097  0.00  0.00    +0.000 C 
ENDBRANCH  17  18
ENDBRANCH  16  17
ENDBRANCH  15  16
ENDBRANCH  13  15
ENDBRANCH   1  13
TORSDOF 7
ENDMDL
MODEL 9
REMARK VINA RESULT:      -6.6      3.971      5.617
REMARK  Name = 
REMARK  8 active torsions:
REMARK  status: ('A' for Active; 'I' for Inactive)
REMARK    1  A    between atoms: C_1  and  O_2
REMARK    2  A    between atoms: O_2  and  C_3
REMARK    3  A    between atoms: C_9  and  S_10
REMARK    4  A    between atoms: S_10  and  N_13
REMARK    5  A    between atoms: N_13  and  C_14
REMARK    6  A    between atoms: C_14  and  C_15
REMARK    7  A    between atoms: C_15  and  C_16
REMARK    8  A    between atoms: C_16  and  N_17
REMARK                            x       y       z     vdW  Elec       q    Type
REMARK                         _______ _______ _______ _____ _____    ______ ____
ROOT
ATOM      1  S   UNL     1       6.356   5.940  16.861  0.00  0.00    +0.000 S 
ATOM      2  O   UNL     1       7.185   5.158  17.729  0.00  0.00    +0.000 OA
ATOM      3  O   UNL     1       6.207   5.594  15.454  0.00  0.00    +0.000 OA
ENDROOT
BRANCH   1  10
ATOM      4  C   UNL     1       4.043   4.893  18.060  0.00  0.00    +0.000 A 
ATOM      5  C   UNL     1       2.738   5.088  18.546  0.00  0.00    +0.000 A 
ATOM      6  C   UNL     1       2.126   6.344  18.496  0.00  0.00    +0.000 A 
ATOM      7  C   UNL     1       2.817   7.427  17.970  0.00  0.00    +0.000 A 
ATOM      8 BR   UNL     1       2.004   9.129  17.905  0.00  0.00    +0.000 Br
ATOM      9  C   UNL     1       4.111   7.265  17.505  0.00  0.00    +0.000 A 
ATOM     10  C   UNL     1       4.735   6.008  17.567  0.00  0.00    +0.000 A 
BRANCH   4  12
ATOM     11  C   UNL     1       3.962   2.555  17.626  0.00  0.00    +0.000 C 
ATOM     12  O   UNL     1       4.678   3.682  18.138  0.00  0.00    +0.000 OA
ENDBRANCH   4  12
ENDBRANCH   1  10
BRANCH   1  13
ATOM     13  N   UNL     1       6.992   7.498  16.881  0.00  0.00    +0.000 NA
ATOM     14  H   UNL     1       6.249   8.175  16.694  0.00  0.00    +0.000 HD
BRANCH  13  15
ATOM     15  C   UNL     1       7.919   7.850  17.958  0.00  0.00    +0.000 C 
BRANCH  15  16
ATOM     16  C   UNL     1       8.159   9.356  17.906  0.00  0.00    +0.000 C 
BRANCH  16  17
ATOM     17  C   UNL     1       9.106   9.874  19.007  0.00  0.00    +0.000 C 
BRANCH  17  18
ATOM     18  N   UNL     1       9.117  11.350  19.090  0.00  0.00    +0.000 NA
ATOM     19  C   UNL     1       9.647  12.021  17.881  0.00  0.00    +0.000 C 
ATOM     20  C   UNL     1      11.152  11.790  17.693  0.00  0.00    +0.000 C 
ATOM     21  O   UNL     1      11.871  12.364  18.793  0.00  0.00    +0.000 OA
ATOM     22  C   UNL     1      11.453  11.777  20.034  0.00  0.00    +0.000 C 
ATOM     23  C   UNL     1       9.923  11.834  20.238  0.00  0.00    +0.000 C 
ENDBRANCH  17  18
ENDBRANCH  16  17
ENDBRANCH  15  16
ENDBRANCH  13  15
ENDBRANCH   1  13
TORSDOF 7
ENDMDL
