MODEL 1
REMARK VINA RESULT:      -8.9      0.000      0.000
REMARK  Name = 
REMARK  5 active torsions:
REMARK  status: ('A' for Active; 'I' for Inactive)
REMARK    1  A    between atoms: C_1  and  O_2
REMARK    2  A    between atoms: O_2  and  C_3
REMARK    3  A    between atoms: C_7  and  N_8
REMARK    4  A    between atoms: N_11  and  C_12
REMARK    5  A    between atoms: N_16  and  C_17
REMARK                            x       y       z     vdW  Elec       q    Type
REMARK                         _______ _______ _______ _____ _____    ______ ____
ROOT
ATOM      1  N   UNL     1       5.846   4.915  15.972  0.00  0.00    +0.000 N 
ATOM      2  C   UNL     1       4.779   4.078  16.543  0.00  0.00    +0.000 C 
ATOM      3  C   UNL     1       4.698   4.313  18.072  0.00  0.00    +0.000 C 
ATOM      4  N   UNL     1       4.488   5.734  18.484  0.00  0.00    +0.000 NA
ATOM      5  C   UNL     1       5.609   6.504  17.875  0.00  0.00    +0.000 C 
ATOM      6  C   UNL     1       5.792   6.342  16.344  0.00  0.00    +0.000 C 
ENDROOT
BRANCH   4   7
ATOM      7  C   UNL     1       3.151   6.256  18.091  0.00  0.00    +0.000 C 
ATOM      8  C   UNL     1       3.206   7.522  17.245  0.00  0.00    +0.000 C 
ATOM      9  C   UNL     1       2.417   8.548  17.994  0.00  0.00    +0.000 C 
ATOM     10  O   UNL     1       2.241   9.669  17.536  0.00  0.00    +0.000 OA
ATOM     11  N   UNL     1       2.000   8.029  19.194  0.00  0.00    +0.000 N 
ATOM     12  C   UNL     1       2.313   6.690  19.295  0.00  0.00    +0.000 C 
ATOM     13  O   UNL     1       1.901   5.895  20.134  0.00  0.00    +0.000 OA
BRANCH  11  14
ATOM     14  C   UNL     1       1.237   8.740  20.172  0.00  0.00    +0.000 A 
ATOM     15  C   UNL     1       1.438   8.547  21.548  0.00  0.00    +0.000 A 
ATOM     16  C   UNL     1       0.699   9.263  22.501  0.00  0.00    +0.000 A 
ATOM     17  C   UNL     1      -0.264  10.176  22.091  0.00  0.00    +0.000 A 
ATOM     18 CL   UNL     1      -1.166  11.057  23.259  0.00  0.00    +0.000 Cl
ATOM     19  C   UNL     1      -0.498  10.375  20.736  0.00  0.00    +0.000 A 
ATOM     20  C   UNL     1       0.249   9.663  19.788  0.00  0.00    +0.000 A 
ENDBRANCH  11  14
ENDBRANCH   4   7
BRANCH   1  25
ATOM     21  C   UNL     1       5.929   3.459  12.564  0.00  0.00    +0.000 A 
ATOM     22  C   UNL     1       7.041   4.092  12.014  0.00  0.00    +0.000 A 
ATOM     23  C   UNL     1       7.783   4.991  12.776  0.00  0.00    +0.000 A 
ATOM     24  C   UNL     1       7.410   5.266  14.096  0.00  0.00    +0.000 A 
ATOM     25  C   UNL     1       6.297   4.646  14.678  0.00  0.00    +0.000 A 
ATOM     26  C   UNL     1       5.571   3.739  13.885  0.00  0.00    +0.000 A 
BRANCH  21  28
ATOM     27  C   UNL     1       4.068   3.087  11.138  0.00  0.00    +0.000 C 
ATOM     28  O   UNL     1       5.270   2.601  11.725  0.00  0.00    +0.000 OA
ENDBRANCH  21  28
ENDBRANCH   1  25
TORSDOF 4
ENDMDL
MODEL 2
REMARK VINA RESULT:      -7.6      3.899      9.991
REMARK  Name = 
REMARK  5 active torsions:
REMARK  status: ('A' for Active; 'I' for Inactive)
REMARK    1  A    between atoms: C_1  and  O_2
REMARK    2  A    between atoms: O_2  and  C_3
REMARK    3  A    between atoms: C_7  and  N_8
REMARK    4  A    between atoms: N_11  and  C_12
REMARK    5  A    between atoms: N_16  and  C_17
REMARK                            x       y       z     vdW  Elec       q    Type
REMARK                         _______ _______ _______ _____ _____    ______ ____
ROOT
ATOM      1  N   UNL     1      -1.015  11.668  20.174  0.00  0.00    +0.000 N 
ATOM      2  C   UNL     1      -0.465  11.386  18.838  0.00  0.00    +0.000 C 
ATOM      3  C   UNL     1       1.072  11.224  18.933  0.00  0.00    +0.000 C 
ATOM      4  N   UNL     1       1.541  10.178  19.893  0.00  0.00    +0.000 NA
ATOM      5  C   UNL     1       0.951  10.543  21.212  0.00  0.00    +0.000 C 
ATOM      6  C   UNL     1      -0.587  10.739  21.238  0.00  0.00    +0.000 C 
ENDROOT
BRANCH   4   7
ATOM      7  C   UNL     1       1.180   8.800  19.464  0.00  0.00    +0.000 C 
ATOM      8  C   UNL     1       1.370   7.746  20.547  0.00  0.00    +0.000 C 
ATOM      9  C   UNL     1       2.314   6.737  19.975  0.00  0.00    +0.000 C 
ATOM     10  O   UNL     1       2.626   5.734  20.604  0.00  0.00    +0.000 OA
ATOM     11  N   UNL     1       2.737   7.148  18.736  0.00  0.00    +0.000 N 
ATOM     12  C   UNL     1       2.073   8.286  18.333  0.00  0.00    +0.000 C 
ATOM     13  O   UNL     1       2.064   8.779  17.208  0.00  0.00    +0.000 OA
BRANCH  11  14
ATOM     14  C   UNL     1       3.660   6.434  17.909  0.00  0.00    +0.000 A 
ATOM     15  C   UNL     1       3.437   5.098  17.538  0.00  0.00    +0.000 A 
ATOM     16  C   UNL     1       4.336   4.411  16.710  0.00  0.00    +0.000 A 
ATOM     17  C   UNL     1       5.483   5.047  16.251  0.00  0.00    +0.000 A 
ATOM     18 CL   UNL     1       6.583   4.206  15.232  0.00  0.00    +0.000 Cl
ATOM     19  C   UNL     1       5.740   6.362  16.616  0.00  0.00    +0.000 A 
ATOM     20  C   UNL     1       4.834   7.047  17.437  0.00  0.00    +0.000 A 
ENDBRANCH  11  14
ENDBRANCH   4   7
BRANCH   1  25
ATOM     21  C   UNL     1      -4.530  12.381  19.240  0.00  0.00    +0.000 A 
ATOM     22  C   UNL     1      -5.016  12.974  20.402  0.00  0.00    +0.000 A 
ATOM     23  C   UNL     1      -4.176  13.160  21.497  0.00  0.00    +0.000 A 
ATOM     24  C   UNL     1      -2.841  12.746  21.435  0.00  0.00    +0.000 A 
ATOM     25  C   UNL     1      -2.322  12.147  20.280  0.00  0.00    +0.000 A 
ATOM     26  C   UNL     1      -3.194  11.977  19.190  0.00  0.00    +0.000 A 
BRANCH  21  28
ATOM     27  C   UNL     1      -4.951  11.722  16.998  0.00  0.00    +0.000 C 
ATOM     28  O   UNL     1      -5.443  12.242  18.229  0.00  0.00    +0.000 OA
ENDBRANCH  21  28
ENDBRANCH   1  25
TORSDOF 4
ENDMDL
MODEL 3
REMARK VINA RESULT:      -7.6      4.056     10.685
REMARK  Name = 
REMARK  5 active torsions:
REMARK  status: ('A' for Active; 'I' for Inactive)
REMARK    1  A    between atoms: C_1  and  O_2
REMARK    2  A    between atoms: O_2  and  C_3
REMARK    3  A    between atoms: C_7  and  N_8
REMARK    4  A    between atoms: N_11  and  C_12
REMARK    5  A    between atoms: N_16  and  C_17
REMARK                            x       y       z     vdW  Elec       q    Type
REMARK                         _______ _______ _______ _____ _____    ______ ____
ROOT
ATOM      1  N   UNL     1      -1.233  11.858  20.619  0.00  0.00    +0.000 N 
ATOM      2  C   UNL     1      -0.830  11.599  19.228  0.00  0.00    +0.000 C 
ATOM      3  C   UNL     1       0.710  11.453  19.152  0.00  0.00    +0.000 C 
ATOM      4  N   UNL     1       1.291  10.401  20.040  0.00  0.00    +0.000 NA
ATOM      5  C   UNL     1       0.845  10.743  21.420  0.00  0.00    +0.000 C 
ATOM      6  C   UNL     1      -0.682  10.921  21.617  0.00  0.00    +0.000 C 
ENDROOT
BRANCH   4   7
ATOM      7  C   UNL     1       0.899   9.024  19.634  0.00  0.00    +0.000 C 
ATOM      8  C   UNL     1       1.091   7.979  20.726  0.00  0.00    +0.000 C 
ATOM      9  C   UNL     1       2.007   6.948  20.148  0.00  0.00    +0.000 C 
ATOM     10  O   UNL     1       2.313   5.947  20.782  0.00  0.00    +0.000 OA
ATOM     11  N   UNL     1       2.414   7.337  18.897  0.00  0.00    +0.000 N 
ATOM     12  C   UNL     1       1.761   8.482  18.493  0.00  0.00    +0.000 C 
ATOM     13  O   UNL     1       1.740   8.962  17.363  0.00  0.00    +0.000 OA
BRANCH  11  14
ATOM     14  C   UNL     1       3.308   6.598  18.061  0.00  0.00    +0.000 A 
ATOM     15  C   UNL     1       4.414   7.205  17.445  0.00  0.00    +0.000 A 
ATOM     16  C   UNL     1       5.299   6.470  16.644  0.00  0.00    +0.000 A 
ATOM     17  C   UNL     1       5.082   5.113  16.434  0.00  0.00    +0.000 A 
ATOM     18 CL   UNL     1       6.168   4.210  15.454  0.00  0.00    +0.000 Cl
ATOM     19  C   UNL     1       3.986   4.489  17.014  0.00  0.00    +0.000 A 
ATOM     20  C   UNL     1       3.109   5.227  17.822  0.00  0.00    +0.000 A 
ENDBRANCH  11  14
ENDBRANCH   4   7
BRANCH   1  25
ATOM     21  C   UNL     1      -4.156  13.094  22.535  0.00  0.00    +0.000 A 
ATOM     22  C   UNL     1      -5.069  13.357  21.518  0.00  0.00    +0.000 A 
ATOM     23  C   UNL     1      -4.729  13.107  20.190  0.00  0.00    +0.000 A 
ATOM     24  C   UNL     1      -3.466  12.596  19.873  0.00  0.00    +0.000 A 
ATOM     25  C   UNL     1      -2.525  12.321  20.874  0.00  0.00    +0.000 A 
ATOM     26  C   UNL     1      -2.899  12.579  22.205  0.00  0.00    +0.000 A 
BRANCH  21  28
ATOM     27  C   UNL     1      -4.377  12.379  24.787  0.00  0.00    +0.000 C 
ATOM     28  O   UNL     1      -4.591  13.382  23.801  0.00  0.00    +0.000 OA
ENDBRANCH  21  28
ENDBRANCH   1  25
TORSDOF 4
ENDMDL
MODEL 4
REMARK VINA RESULT:      -7.5      4.590      9.841
REMARK  Name = 
REMARK  5 active torsions:
REMARK  status: ('A' for Active; 'I' for Inactive)
REMARK    1  A    between atoms: C_1  and  O_2
REMARK    2  A    between atoms: O_2  and  C_3
REMARK    3  A    between atoms: C_7  and  N_8
REMARK    4  A    between atoms: N_11  and  C_12
REMARK    5  A    between atoms: N_16  and  C_17
REMARK                            x       y       z     vdW  Elec       q    Type
REMARK                         _______ _______ _______ _____ _____    ______ ____
ROOT
ATOM      1  N   UNL     1      -0.074  12.618  19.948  0.00  0.00    +0.000 N 
ATOM      2  C   UNL     1       0.328  11.802  21.105  0.00  0.00    +0.000 C 
ATOM      3  C   UNL     1      -0.300  10.391  20.987  0.00  0.00    +0.000 C 
ATOM      4  N   UNL     1       0.023   9.657  19.726  0.00  0.00    +0.000 NA
ATOM      5  C   UNL     1      -0.423  10.543  18.614  0.00  0.00    +0.000 C 
ATOM      6  C   UNL     1       0.139  11.989  18.630  0.00  0.00    +0.000 C 
ENDROOT
BRANCH   4   7
ATOM      7  C   UNL     1       1.461   9.288  19.626  0.00  0.00    +0.000 C 
ATOM      8  C   UNL     1       2.053   9.477  18.236  0.00  0.00    +0.000 C 
ATOM      9  C   UNL     1       2.582   8.138  17.832  0.00  0.00    +0.000 C 
ATOM     10  O   UNL     1       3.165   7.984  16.766  0.00  0.00    +0.000 OA
ATOM     11  N   UNL     1       2.281   7.210  18.796  0.00  0.00    +0.000 N 
ATOM     12  C   UNL     1       1.706   7.803  19.898  0.00  0.00    +0.000 C 
ATOM     13  O   UNL     1       1.516   7.293  20.999  0.00  0.00    +0.000 OA
BRANCH  11  14
ATOM     14  C   UNL     1       2.621   5.823  18.729  0.00  0.00    +0.000 A 
ATOM     15  C   UNL     1       3.759   5.310  19.371  0.00  0.00    +0.000 A 
ATOM     16  C   UNL     1       4.075   3.945  19.318  0.00  0.00    +0.000 A 
ATOM     17  C   UNL     1       3.261   3.071  18.608  0.00  0.00    +0.000 A 
ATOM     18 CL   UNL     1       3.645   1.396  18.546  0.00  0.00    +0.000 Cl
ATOM     19  C   UNL     1       2.138   3.551  17.947  0.00  0.00    +0.000 A 
ATOM     20  C   UNL     1       1.822   4.915  18.010  0.00  0.00    +0.000 A 
ENDBRANCH  11  14
ENDBRANCH   4   7
BRANCH   1  25
ATOM     21  C   UNL     1      -0.191  16.171  18.898  0.00  0.00    +0.000 A 
ATOM     22  C   UNL     1       0.359  16.811  20.006  0.00  0.00    +0.000 A 
ATOM     23  C   UNL     1       0.791  16.067  21.101  0.00  0.00    +0.000 A 
ATOM     24  C   UNL     1       0.669  14.673  21.095  0.00  0.00    +0.000 A 
ATOM     25  C   UNL     1       0.120  14.000  19.995  0.00  0.00    +0.000 A 
ATOM     26  C   UNL     1      -0.302  14.779  18.902  0.00  0.00    +0.000 A 
BRANCH  21  28
ATOM     27  C   UNL     1      -1.383  18.119  18.252  0.00  0.00    +0.000 C 
ATOM     28  O   UNL     1      -0.587  16.999  17.882  0.00  0.00    +0.000 OA
ENDBRANCH  21  28
ENDBRANCH   1  25
TORSDOF 4
ENDMDL
MODEL 5
REMARK VINA RESULT:      -7.5      3.664      5.937
REMARK  Name = 
REMARK  5 active torsions:
REMARK  status: ('A' for Active; 'I' for Inactive)
REMARK    1  A    between atoms: C_1  and  O_2
REMARK    2  A    between atoms: O_2  and  C_3
REMARK    3  A    between atoms: C_7  and  N_8
REMARK    4  A    between atoms: N_11  and  C_12
REMARK    5  A    between atoms: N_16  and  C_17
REMARK                            x       y       z     vdW  Elec       q    Type
REMARK                         _______ _______ _______ _____ _____    ______ ____
ROOT
ATOM      1  N   UNL     1       2.416   7.663  18.750  0.00  0.00    +0.000 N 
ATOM      2  C   UNL     1       1.789   7.759  20.078  0.00  0.00    +0.000 C 
ATOM      3  C   UNL     1       1.808   9.232  20.556  0.00  0.00    +0.000 C 
ATOM      4  N   UNL     1       1.157  10.207  19.628  0.00  0.00    +0.000 NA
ATOM      5  C   UNL     1       1.853  10.051  18.320  0.00  0.00    +0.000 C 
ATOM      6  C   UNL     1       1.904   8.613  17.743  0.00  0.00    +0.000 C 
ENDROOT
BRANCH   4   7
ATOM      7  C   UNL     1      -0.314  10.008  19.524  0.00  0.00    +0.000 C 
ATOM      8  C   UNL     1      -0.878  10.284  18.136  0.00  0.00    +0.000 C 
ATOM      9  C   UNL     1      -1.916  11.345  18.321  0.00  0.00    +0.000 C 
ATOM     10  O   UNL     1      -2.584  11.749  17.378  0.00  0.00    +0.000 OA
ATOM     11  N   UNL     1      -1.937  11.750  19.632  0.00  0.00    +0.000 N 
ATOM     12  C   UNL     1      -1.101  10.976  20.408  0.00  0.00    +0.000 C 
ATOM     13  O   UNL     1      -1.051  10.941  21.634  0.00  0.00    +0.000 OA
BRANCH  11  14
ATOM     14  C   UNL     1      -2.796  12.763  20.161  0.00  0.00    +0.000 A 
ATOM     15  C   UNL     1      -2.301  14.013  20.567  0.00  0.00    +0.000 A 
ATOM     16  C   UNL     1      -3.153  15.009  21.066  0.00  0.00    +0.000 A 
ATOM     17  C   UNL     1      -4.516  14.765  21.180  0.00  0.00    +0.000 A 
ATOM     18 CL   UNL     1      -5.561  15.987  21.787  0.00  0.00    +0.000 Cl
ATOM     19  C   UNL     1      -5.033  13.532  20.804  0.00  0.00    +0.000 A 
ATOM     20  C   UNL     1      -4.178  12.543  20.297  0.00  0.00    +0.000 A 
ENDBRANCH  11  14
ENDBRANCH   4   7
BRANCH   1  25
ATOM     21  C   UNL     1       2.120   4.084  17.830  0.00  0.00    +0.000 A 
ATOM     22  C   UNL     1       3.351   3.846  17.224  0.00  0.00    +0.000 A 
ATOM     23  C   UNL     1       4.296   4.866  17.135  0.00  0.00    +0.000 A 
ATOM     24  C   UNL     1       4.010   6.135  17.648  0.00  0.00    +0.000 A 
ATOM     25  C   UNL     1       2.780   6.406  18.264  0.00  0.00    +0.000 A 
ATOM     26  C   UNL     1       1.849   5.355  18.344  0.00  0.00    +0.000 A 
BRANCH  21  28
ATOM     27  C   UNL     1       1.349   2.168  18.999  0.00  0.00    +0.000 C 
ATOM     28  O   UNL     1       1.266   3.015  17.859  0.00  0.00    +0.000 OA
ENDBRANCH  21  28
ENDBRANCH   1  25
TORSDOF 4
ENDMDL
MODEL 6
REMARK VINA RESULT:      -7.5      4.004     10.607
REMARK  Name = 
REMARK  5 active torsions:
REMARK  status: ('A' for Active; 'I' for Inactive)
REMARK    1  A    between atoms: C_1  and  O_2
REMARK    2  A    between atoms: O_2  and  C_3
REMARK    3  A    between atoms: C_7  and  N_8
REMARK    4  A    between atoms: N_11  and  C_12
REMARK    5  A    between atoms: N_16  and  C_17
REMARK                            x       y       z     vdW  Elec       q    Type
REMARK                         _______ _______ _______ _____ _____    ______ ____
ROOT
ATOM      1  N   UNL     1      -0.880  11.629  20.675  0.00  0.00    +0.000 N 
ATOM      2  C   UNL     1      -0.456  11.434  19.279  0.00  0.00    +0.000 C 
ATOM      3  C   UNL     1       1.079  11.235  19.227  0.00  0.00    +0.000 C 
ATOM      4  N   UNL     1       1.602  10.114  20.066  0.00  0.00    +0.000 NA
ATOM      5  C   UNL     1       1.138  10.395  21.454  0.00  0.00    +0.000 C 
ATOM      6  C   UNL     1      -0.386  10.618  21.629  0.00  0.00    +0.000 C 
ENDROOT
BRANCH   4   7
ATOM      7  C   UNL     1       1.171   8.777  19.575  0.00  0.00    +0.000 C 
ATOM      8  C   UNL     1       1.292   7.669  20.612  0.00  0.00    +0.000 C 
ATOM      9  C   UNL     1       2.185   6.635  20.002  0.00  0.00    +0.000 C 
ATOM     10  O   UNL     1       2.436   5.590  20.588  0.00  0.00    +0.000 OA
ATOM     11  N   UNL     1       2.641   7.075  18.785  0.00  0.00    +0.000 N 
ATOM     12  C   UNL     1       2.043   8.264  18.428  0.00  0.00    +0.000 C 
ATOM     13  O   UNL     1       2.071   8.805  17.326  0.00  0.00    +0.000 OA
BRANCH  11  14
ATOM     14  C   UNL     1       3.530   6.348  17.934  0.00  0.00    +0.000 A 
ATOM     15  C   UNL     1       3.318   4.993  17.630  0.00  0.00    +0.000 A 
ATOM     16  C   UNL     1       4.183   4.292  16.778  0.00  0.00    +0.000 A 
ATOM     17  C   UNL     1       5.285   4.933  16.225  0.00  0.00    +0.000 A 
ATOM     18 CL   UNL     1       6.343   4.075  15.177  0.00  0.00    +0.000 Cl
ATOM     19  C   UNL     1       5.531   6.267  16.522  0.00  0.00    +0.000 A 
ATOM     20  C   UNL     1       4.659   6.966  17.368  0.00  0.00    +0.000 A 
ENDBRANCH  11  14
ENDBRANCH   4   7
BRANCH   1  25
ATOM     21  C   UNL     1      -3.771  12.940  22.589  0.00  0.00    +0.000 A 
ATOM     22  C   UNL     1      -4.677  13.225  21.571  0.00  0.00    +0.000 A 
ATOM     23  C   UNL     1      -4.344  12.965  20.244  0.00  0.00    +0.000 A 
ATOM     24  C   UNL     1      -3.094  12.422  19.928  0.00  0.00    +0.000 A 
ATOM     25  C   UNL     1      -2.160  12.125  20.929  0.00  0.00    +0.000 A 
ATOM     26  C   UNL     1      -2.528  12.393  22.259  0.00  0.00    +0.000 A 
BRANCH  21  28
ATOM     27  C   UNL     1      -4.188  14.617  24.216  0.00  0.00    +0.000 C 
ATOM     28  O   UNL     1      -4.199  13.240  23.854  0.00  0.00    +0.000 OA
ENDBRANCH  21  28
ENDBRANCH   1  25
TORSDOF 4
ENDMDL
MODEL 7
REMARK VINA RESULT:      -7.5      3.797      6.030
REMARK  Name = 
REMARK  5 active torsions:
REMARK  status: ('A' for Active; 'I' for Inactive)
REMARK    1  A    between atoms: C_1  and  O_2
REMARK    2  A    between atoms: O_2  and  C_3
REMARK    3  A    between atoms: C_7  and  N_8
REMARK    4  A    between atoms: N_11  and  C_12
REMARK    5  A    between atoms: N_16  and  C_17
REMARK                            x       y       z     vdW  Elec       q    Type
REMARK                         _______ _______ _______ _____ _____    ______ ____
ROOT
ATOM      1  N   UNL     1       2.390   7.554  18.924  0.00  0.00    +0.000 N 
ATOM      2  C   UNL     1       1.757   7.778  20.233  0.00  0.00    +0.000 C 
ATOM      3  C   UNL     1       1.783   9.289  20.571  0.00  0.00    +0.000 C 
ATOM      4  N   UNL     1       1.145  10.178  19.553  0.00  0.00    +0.000 NA
ATOM      5  C   UNL     1       1.849   9.896  18.270  0.00  0.00    +0.000 C 
ATOM      6  C   UNL     1       1.892   8.410  17.829  0.00  0.00    +0.000 C 
ENDROOT
BRANCH   4   7
ATOM      7  C   UNL     1      -0.326   9.980  19.457  0.00  0.00    +0.000 C 
ATOM      8  C   UNL     1      -0.899  10.256  18.073  0.00  0.00    +0.000 C 
ATOM      9  C   UNL     1      -1.934  11.318  18.264  0.00  0.00    +0.000 C 
ATOM     10  O   UNL     1      -2.608  11.721  17.324  0.00  0.00    +0.000 OA
ATOM     11  N   UNL     1      -1.947  11.724  19.575  0.00  0.00    +0.000 N 
ATOM     12  C   UNL     1      -1.107  10.950  20.345  0.00  0.00    +0.000 C 
ATOM     13  O   UNL     1      -1.050  10.915  21.572  0.00  0.00    +0.000 OA
BRANCH  11  14
ATOM     14  C   UNL     1      -2.802  12.738  20.108  0.00  0.00    +0.000 A 
ATOM     15  C   UNL     1      -4.188  12.548  20.225  0.00  0.00    +0.000 A 
ATOM     16  C   UNL     1      -5.018  13.540  20.768  0.00  0.00    +0.000 A 
ATOM     17  C   UNL     1      -4.473  14.747  21.190  0.00  0.00    +0.000 A 
ATOM     18 CL   UNL     1      -5.490  15.961  21.860  0.00  0.00    +0.000 Cl
ATOM     19  C   UNL     1      -3.108  14.971  21.070  0.00  0.00    +0.000 A 
ATOM     20  C   UNL     1      -2.282  13.973  20.535  0.00  0.00    +0.000 A 
ENDBRANCH  11  14
ENDBRANCH   4   7
BRANCH   1  25
ATOM     21  C   UNL     1       4.486   4.526  18.504  0.00  0.00    +0.000 A 
ATOM     22  C   UNL     1       3.574   3.624  17.963  0.00  0.00    +0.000 A 
ATOM     23  C   UNL     1       2.262   4.020  17.715  0.00  0.00    +0.000 A 
ATOM     24  C   UNL     1       1.854   5.325  18.014  0.00  0.00    +0.000 A 
ATOM     25  C   UNL     1       2.748   6.255  18.558  0.00  0.00    +0.000 A 
ATOM     26  C   UNL     1       4.067   5.827  18.792  0.00  0.00    +0.000 A 
BRANCH  21  28
ATOM     27  C   UNL     1       6.807   4.693  18.035  0.00  0.00    +0.000 C 
ATOM     28  O   UNL     1       5.745   4.030  18.712  0.00  0.00    +0.000 OA
ENDBRANCH  21  28
ENDBRANCH   1  25
TORSDOF 4
ENDMDL
MODEL 8
REMARK VINA RESULT:      -7.5      4.600      9.548
REMARK  Name = 
REMARK  5 active torsions:
REMARK  status: ('A' for Active; 'I' for Inactive)
REMARK    1  A    between atoms: C_1  and  O_2
REMARK    2  A    between atoms: O_2  and  C_3
REMARK    3  A    between atoms: C_7  and  N_8
REMARK    4  A    between atoms: N_11  and  C_12
REMARK    5  A    between atoms: N_16  and  C_17
REMARK                            x       y       z     vdW  Elec       q    Type
REMARK                         _______ _______ _______ _____ _____    ______ ____
ROOT
ATOM      1  N   UNL     1      -0.193  12.664  19.755  0.00  0.00    +0.000 N 
ATOM      2  C   UNL     1       0.266  11.995  20.982  0.00  0.00    +0.000 C 
ATOM      3  C   UNL     1      -0.346  10.574  21.060  0.00  0.00    +0.000 C 
ATOM      4  N   UNL     1      -0.064   9.698  19.882  0.00  0.00    +0.000 NA
ATOM      5  C   UNL     1      -0.566  10.442  18.692  0.00  0.00    +0.000 C 
ATOM      6  C   UNL     1      -0.025  11.884  18.514  0.00  0.00    +0.000 C 
ENDROOT
BRANCH   4   7
ATOM      7  C   UNL     1       1.374   9.333  19.767  0.00  0.00    +0.000 C 
ATOM      8  C   UNL     1       1.960   9.558  18.380  0.00  0.00    +0.000 C 
ATOM      9  C   UNL     1       2.489   8.231  17.939  0.00  0.00    +0.000 C 
ATOM     10  O   UNL     1       3.067   8.104  16.867  0.00  0.00    +0.000 OA
ATOM     11  N   UNL     1       2.193   7.277  18.880  0.00  0.00    +0.000 N 
ATOM     12  C   UNL     1       1.621   7.842  20.000  0.00  0.00    +0.000 C 
ATOM     13  O   UNL     1       1.436   7.303  21.088  0.00  0.00    +0.000 OA
BRANCH  11  14
ATOM     14  C   UNL     1       2.533   5.893  18.777  0.00  0.00    +0.000 A 
ATOM     15  C   UNL     1       1.752   4.995  18.031  0.00  0.00    +0.000 A 
ATOM     16  C   UNL     1       2.104   3.642  17.918  0.00  0.00    +0.000 A 
ATOM     17  C   UNL     1       3.238   3.162  18.561  0.00  0.00    +0.000 A 
ATOM     18 CL   UNL     1       3.672   1.505  18.418  0.00  0.00    +0.000 Cl
ATOM     19  C   UNL     1       4.020   4.022  19.321  0.00  0.00    +0.000 A 
ATOM     20  C   UNL     1       3.669   5.376  19.424  0.00  0.00    +0.000 A 
ENDBRANCH  11  14
ENDBRANCH   4   7
BRANCH   1  25
ATOM     21  C   UNL     1       1.367  15.883  18.786  0.00  0.00    +0.000 A 
ATOM     22  C   UNL     1       0.414  16.801  19.219  0.00  0.00    +0.000 A 
ATOM     23  C   UNL     1      -0.745  16.359  19.855  0.00  0.00    +0.000 A 
ATOM     24  C   UNL     1      -0.957  14.990  20.054  0.00  0.00    +0.000 A 
ATOM     25  C   UNL     1      -0.017  14.043  19.630  0.00  0.00    +0.000 A 
ATOM     26  C   UNL     1       1.145  14.520  18.996  0.00  0.00    +0.000 A 
BRANCH  21  28
ATOM     27  C   UNL     1       3.386  15.507  17.597  0.00  0.00    +0.000 C 
ATOM     28  O   UNL     1       2.462  16.426  18.170  0.00  0.00    +0.000 OA
ENDBRANCH  21  28
ENDBRANCH   1  25
TORSDOF 4
ENDMDL
MODEL 9
REMARK VINA RESULT:      -7.5      4.262      6.571
REMARK  Name = 
REMARK  5 active torsions:
REMARK  status: ('A' for Active; 'I' for Inactive)
REMARK    1  A    between atoms: C_1  and  O_2
REMARK    2  A    between atoms: O_2  and  C_3
REMARK    3  A    between atoms: C_7  and  N_8
REMARK    4  A    between atoms: N_11  and  C_12
REMARK    5  A    between atoms: N_16  and  C_17
REMARK                            x       y       z     vdW  Elec       q    Type
REMARK                         _______ _______ _______ _____ _____    ______ ____
ROOT
ATOM      1  N   UNL     1       2.212   7.525  19.389  0.00  0.00    +0.000 N 
ATOM      2  C   UNL     1       1.558   7.866  20.662  0.00  0.00    +0.000 C 
ATOM      3  C   UNL     1       1.626   9.397  20.887  0.00  0.00    +0.000 C 
ATOM      4  N   UNL     1       1.038  10.225  19.790  0.00  0.00    +0.000 NA
ATOM      5  C   UNL     1       1.760   9.826  18.549  0.00  0.00    +0.000 C 
ATOM      6  C   UNL     1       1.765   8.310  18.222  0.00  0.00    +0.000 C 
ENDROOT
BRANCH   4   7
ATOM      7  C   UNL     1      -0.436  10.065  19.674  0.00  0.00    +0.000 C 
ATOM      8  C   UNL     1      -0.978  10.317  18.273  0.00  0.00    +0.000 C 
ATOM      9  C   UNL     1      -1.986  11.413  18.416  0.00  0.00    +0.000 C 
ATOM     10  O   UNL     1      -2.632  11.807  17.454  0.00  0.00    +0.000 OA
ATOM     11  N   UNL     1      -2.009  11.856  19.714  0.00  0.00    +0.000 N 
ATOM     12  C   UNL     1      -1.204  11.081  20.521  0.00  0.00    +0.000 C 
ATOM     13  O   UNL     1      -1.169  11.080  21.749  0.00  0.00    +0.000 OA
BRANCH  11  14
ATOM     14  C   UNL     1      -2.844  12.908  20.204  0.00  0.00    +0.000 A 
ATOM     15  C   UNL     1      -4.235  12.754  20.320  0.00  0.00    +0.000 A 
ATOM     16  C   UNL     1      -5.045  13.783  20.820  0.00  0.00    +0.000 A 
ATOM     17  C   UNL     1      -4.476  14.992  21.201  0.00  0.00    +0.000 A 
ATOM     18 CL   UNL     1      -5.468  16.253  21.818  0.00  0.00    +0.000 Cl
ATOM     19  C   UNL     1      -3.106  15.181  21.081  0.00  0.00    +0.000 A 
ATOM     20  C   UNL     1      -2.299  14.146  20.588  0.00  0.00    +0.000 A 
ENDBRANCH  11  14
ENDBRANCH   4   7
BRANCH   1  25
ATOM     21  C   UNL     1       2.791   3.917  20.012  0.00  0.00    +0.000 A 
ATOM     22  C   UNL     1       3.070   3.451  18.730  0.00  0.00    +0.000 A 
ATOM     23  C   UNL     1       3.089   4.334  17.653  0.00  0.00    +0.000 A 
ATOM     24  C   UNL     1       2.821   5.692  17.854  0.00  0.00    +0.000 A 
ATOM     25  C   UNL     1       2.536   6.191  19.131  0.00  0.00    +0.000 A 
ATOM     26  C   UNL     1       2.530   5.277  20.199  0.00  0.00    +0.000 A 
BRANCH  21  28
ATOM     27  C   UNL     1       1.547   2.709  21.633  0.00  0.00    +0.000 C 
ATOM     28  O   UNL     1       2.793   2.963  20.994  0.00  0.00    +0.000 OA
ENDBRANCH  21  28
ENDBRANCH   1  25
TORSDOF 4
ENDMDL
