MODEL 1
REMARK VINA RESULT:      -7.6      0.000      0.000
REMARK  Name = 
REMARK  3 active torsions:
REMARK  status: ('A' for Active; 'I' for Inactive)
REMARK    1  A    between atoms: O_1  and  C_2
REMARK    2  A    between atoms: C_5  and  N_6
REMARK    3  A    between atoms: C_10  and  C_11
REMARK                            x       y       z     vdW  Elec       q    Type
REMARK                         _______ _______ _______ _____ _____    ______ ____
ROOT
ATOM      1  N   UNL     1       2.888   4.394  17.577  0.00  0.00    +0.000 N 
ATOM      2  C   UNL     1       4.181   4.423  17.207  0.00  0.00    +0.000 A 
ATOM      3  N   UNL     1       5.285   4.367  17.924  0.00  0.00    +0.000 NA
ATOM      4  C   UNL     1       6.290   4.355  16.998  0.00  0.00    +0.000 A 
ATOM      5  C   UNL     1       5.768   4.405  15.728  0.00  0.00    +0.000 A 
ATOM      6  O   UNL     1       4.404   4.466  15.857  0.00  0.00    +0.000 OA
ATOM      7  H   UNL     1       2.213   4.359  16.824  0.00  0.00    +0.000 HD
ENDROOT
BRANCH   1  11
ATOM      8  C   UNL     1       1.595   3.001  21.338  0.00  0.00    +0.000 A 
ATOM      9  C   UNL     1       2.153   4.266  21.246  0.00  0.00    +0.000 A 
ATOM     10  C   UNL     1       2.543   4.752  19.996  0.00  0.00    +0.000 A 
ATOM     11  C   UNL     1       2.403   3.982  18.832  0.00  0.00    +0.000 A 
ATOM     12  C   UNL     1       1.793   2.723  18.952  0.00  0.00    +0.000 A 
ATOM     13  C   UNL     1       1.395   2.232  20.200  0.00  0.00    +0.000 A 
BRANCH   8  14
ATOM     14  O   UNL     1       1.234   2.475  22.542  0.00  0.00    +0.000 OA
ATOM     15  H   UNL     1       2.043   2.262  23.035  0.00  0.00    +0.000 HD
ENDBRANCH   8  14
ENDBRANCH   1  11
BRANCH   5  16
ATOM     16  C   UNL     1       6.327   4.403  14.385  0.00  0.00    +0.000 A 
ATOM     17  C   UNL     1       5.793   3.555  13.402  0.00  0.00    +0.000 A 
ATOM     18  C   UNL     1       6.322   3.534  12.108  0.00  0.00    +0.000 A 
ATOM     19  C   UNL     1       7.388   4.364  11.779  0.00  0.00    +0.000 A 
ATOM     20  C   UNL     1       7.925   5.218  12.741  0.00  0.00    +0.000 A 
ATOM     21  C   UNL     1       7.398   5.238  14.034  0.00  0.00    +0.000 A 
ENDBRANCH   5  16
TORSDOF 3
ENDMDL
MODEL 2
REMARK VINA RESULT:      -7.6      0.088      1.109
REMARK  Name = 
REMARK  3 active torsions:
REMARK  status: ('A' for Active; 'I' for Inactive)
REMARK    1  A    between atoms: O_1  and  C_2
REMARK    2  A    between atoms: C_5  and  N_6
REMARK    3  A    between atoms: C_10  and  C_11
REMARK                            x       y       z     vdW  Elec       q    Type
REMARK                         _______ _______ _______ _____ _____    ______ ____
ROOT
ATOM      1  N   UNL     1       2.956   4.495  17.613  0.00  0.00    +0.000 N 
ATOM      2  C   UNL     1       4.244   4.443  17.224  0.00  0.00    +0.000 A 
ATOM      3  N   UNL     1       5.349   4.279  17.922  0.00  0.00    +0.000 NA
ATOM      4  C   UNL     1       6.339   4.227  16.982  0.00  0.00    +0.000 A 
ATOM      5  C   UNL     1       5.807   4.363  15.723  0.00  0.00    +0.000 A 
ATOM      6  O   UNL     1       4.452   4.519  15.874  0.00  0.00    +0.000 OA
ATOM      7  H   UNL     1       2.271   4.539  16.869  0.00  0.00    +0.000 HD
ENDROOT
BRANCH   1  11
ATOM      8  C   UNL     1       1.613   3.064  21.341  0.00  0.00    +0.000 A 
ATOM      9  C   UNL     1       2.238   4.300  21.282  0.00  0.00    +0.000 A 
ATOM     10  C   UNL     1       2.646   4.800  20.044  0.00  0.00    +0.000 A 
ATOM     11  C   UNL     1       2.458   4.073  18.859  0.00  0.00    +0.000 A 
ATOM     12  C   UNL     1       1.780   2.847  18.947  0.00  0.00    +0.000 A 
ATOM     13  C   UNL     1       1.365   2.341  20.183  0.00  0.00    +0.000 A 
BRANCH   8  14
ATOM     14  O   UNL     1       1.231   2.523  22.532  0.00  0.00    +0.000 OA
ATOM     15  H   UNL     1       1.513   3.122  23.242  0.00  0.00    +0.000 HD
ENDBRANCH   8  14
ENDBRANCH   1  11
BRANCH   5  16
ATOM     16  C   UNL     1       6.347   4.370  14.372  0.00  0.00    +0.000 A 
ATOM     17  C   UNL     1       7.415   5.220  14.046  0.00  0.00    +0.000 A 
ATOM     18  C   UNL     1       7.943   5.247  12.752  0.00  0.00    +0.000 A 
ATOM     19  C   UNL     1       7.412   4.419  11.768  0.00  0.00    +0.000 A 
ATOM     20  C   UNL     1       6.356   3.563  12.077  0.00  0.00    +0.000 A 
ATOM     21  C   UNL     1       5.829   3.538  13.369  0.00  0.00    +0.000 A 
ENDBRANCH   5  16
TORSDOF 3
ENDMDL
MODEL 3
REMARK VINA RESULT:      -7.2      5.657      7.269
REMARK  Name = 
REMARK  3 active torsions:
REMARK  status: ('A' for Active; 'I' for Inactive)
REMARK    1  A    between atoms: O_1  and  C_2
REMARK    2  A    between atoms: C_5  and  N_6
REMARK    3  A    between atoms: C_10  and  C_11
REMARK                            x       y       z     vdW  Elec       q    Type
REMARK                         _______ _______ _______ _____ _____    ______ ____
ROOT
ATOM      1  N   UNL     1       7.763   6.116  18.534  0.00  0.00    +0.000 N 
ATOM      2  C   UNL     1       7.888   7.408  18.178  0.00  0.00    +0.000 A 
ATOM      3  N   UNL     1       7.255   8.115  17.265  0.00  0.00    +0.000 NA
ATOM      4  C   UNL     1       7.745   9.382  17.417  0.00  0.00    +0.000 A 
ATOM      5  C   UNL     1       8.674   9.414  18.428  0.00  0.00    +0.000 A 
ATOM      6  O   UNL     1       8.783   8.135  18.914  0.00  0.00    +0.000 OA
ATOM      7  H   UNL     1       8.306   5.824  19.337  0.00  0.00    +0.000 HD
ENDROOT
BRANCH   1  11
ATOM      8  C   UNL     1       4.394   3.777  17.569  0.00  0.00    +0.000 A 
ATOM      9  C   UNL     1       5.377   3.966  16.610  0.00  0.00    +0.000 A 
ATOM     10  C   UNL     1       6.517   4.704  16.937  0.00  0.00    +0.000 A 
ATOM     11  C   UNL     1       6.683   5.275  18.207  0.00  0.00    +0.000 A 
ATOM     12  C   UNL     1       5.692   5.026  19.170  0.00  0.00    +0.000 A 
ATOM     13  C   UNL     1       4.550   4.286  18.851  0.00  0.00    +0.000 A 
BRANCH   8  14
ATOM     14  O   UNL     1       3.250   3.095  17.281  0.00  0.00    +0.000 OA
ATOM     15  H   UNL     1       3.126   2.411  17.959  0.00  0.00    +0.000 HD
ENDBRANCH   8  14
ENDBRANCH   1  11
BRANCH   5  16
ATOM     16  C   UNL     1       9.496  10.448  19.039  0.00  0.00    +0.000 A 
ATOM     17  C   UNL     1      10.438  11.145  18.267  0.00  0.00    +0.000 A 
ATOM     18  C   UNL     1      11.241  12.136  18.838  0.00  0.00    +0.000 A 
ATOM     19  C   UNL     1      11.109  12.446  20.188  0.00  0.00    +0.000 A 
ATOM     20  C   UNL     1      10.172  11.769  20.967  0.00  0.00    +0.000 A 
ATOM     21  C   UNL     1       9.372  10.778  20.396  0.00  0.00    +0.000 A 
ENDBRANCH   5  16
TORSDOF 3
ENDMDL
MODEL 4
REMARK VINA RESULT:      -7.1      5.661      7.264
REMARK  Name = 
REMARK  3 active torsions:
REMARK  status: ('A' for Active; 'I' for Inactive)
REMARK    1  A    between atoms: O_1  and  C_2
REMARK    2  A    between atoms: C_5  and  N_6
REMARK    3  A    between atoms: C_10  and  C_11
REMARK                            x       y       z     vdW  Elec       q    Type
REMARK                         _______ _______ _______ _____ _____    ______ ____
ROOT
ATOM      1  N   UNL     1       7.751   6.124  18.525  0.00  0.00    +0.000 N 
ATOM      2  C   UNL     1       7.876   7.418  18.178  0.00  0.00    +0.000 A 
ATOM      3  N   UNL     1       7.240   8.132  17.272  0.00  0.00    +0.000 NA
ATOM      4  C   UNL     1       7.733   9.397  17.432  0.00  0.00    +0.000 A 
ATOM      5  C   UNL     1       8.666   9.421  18.439  0.00  0.00    +0.000 A 
ATOM      6  O   UNL     1       8.775   8.139  18.916  0.00  0.00    +0.000 OA
ATOM      7  H   UNL     1       8.296   5.825  19.324  0.00  0.00    +0.000 HD
ENDROOT
BRANCH   1  11
ATOM      8  C   UNL     1       4.374   3.797  17.558  0.00  0.00    +0.000 A 
ATOM      9  C   UNL     1       5.353   3.992  16.596  0.00  0.00    +0.000 A 
ATOM     10  C   UNL     1       6.496   4.725  16.923  0.00  0.00    +0.000 A 
ATOM     11  C   UNL     1       6.668   5.287  18.197  0.00  0.00    +0.000 A 
ATOM     12  C   UNL     1       5.681   5.032  19.162  0.00  0.00    +0.000 A 
ATOM     13  C   UNL     1       4.536   4.295  18.843  0.00  0.00    +0.000 A 
BRANCH   8  14
ATOM     14  O   UNL     1       3.228   3.118  17.270  0.00  0.00    +0.000 OA
ATOM     15  H   UNL     1       3.436   2.435  16.613  0.00  0.00    +0.000 HD
ENDBRANCH   8  14
ENDBRANCH   1  11
BRANCH   5  16
ATOM     16  C   UNL     1       9.491  10.449  19.054  0.00  0.00    +0.000 A 
ATOM     17  C   UNL     1       9.312  10.781  20.406  0.00  0.00    +0.000 A 
ATOM     18  C   UNL     1      10.090  11.771  21.011  0.00  0.00    +0.000 A 
ATOM     19  C   UNL     1      11.061  12.440  20.274  0.00  0.00    +0.000 A 
ATOM     20  C   UNL     1      11.258  12.117  18.932  0.00  0.00    +0.000 A 
ATOM     21  C   UNL     1      10.480  11.129  18.328  0.00  0.00    +0.000 A 
ENDBRANCH   5  16
TORSDOF 3
ENDMDL
MODEL 5
REMARK VINA RESULT:      -7.0      4.640      8.336
REMARK  Name = 
REMARK  3 active torsions:
REMARK  status: ('A' for Active; 'I' for Inactive)
REMARK    1  A    between atoms: O_1  and  C_2
REMARK    2  A    between atoms: C_5  and  N_6
REMARK    3  A    between atoms: C_10  and  C_11
REMARK                            x       y       z     vdW  Elec       q    Type
REMARK                         _______ _______ _______ _____ _____    ______ ____
ROOT
ATOM      1  N   UNL     1       2.210   5.373  20.976  0.00  0.00    +0.000 N 
ATOM      2  C   UNL     1       1.984   6.613  20.502  0.00  0.00    +0.000 A 
ATOM      3  N   UNL     1       2.285   7.161  19.343  0.00  0.00    +0.000 NA
ATOM      4  C   UNL     1       1.733   8.410  19.405  0.00  0.00    +0.000 A 
ATOM      5  C   UNL     1       1.104   8.592  20.612  0.00  0.00    +0.000 A 
ATOM      6  O   UNL     1       1.276   7.438  21.334  0.00  0.00    +0.000 OA
ATOM      7  H   UNL     1       1.797   5.161  21.874  0.00  0.00    +0.000 HD
ENDROOT
BRANCH   1  11
ATOM      8  C   UNL     1       3.391   1.941  18.836  0.00  0.00    +0.000 A 
ATOM      9  C   UNL     1       2.053   2.103  19.160  0.00  0.00    +0.000 A 
ATOM     10  C   UNL     1       1.647   3.259  19.830  0.00  0.00    +0.000 A 
ATOM     11  C   UNL     1       2.565   4.252  20.203  0.00  0.00    +0.000 A 
ATOM     12  C   UNL     1       3.905   4.080  19.820  0.00  0.00    +0.000 A 
ATOM     13  C   UNL     1       4.317   2.927  19.145  0.00  0.00    +0.000 A 
BRANCH   8  14
ATOM     14  O   UNL     1       3.834   0.812  18.215  0.00  0.00    +0.000 OA
ATOM     15  H   UNL     1       3.645   0.054  18.791  0.00  0.00    +0.000 HD
ENDBRANCH   8  14
ENDBRANCH   1  11
BRANCH   5  16
ATOM     16  C   UNL     1       0.350   9.674  21.227  0.00  0.00    +0.000 A 
ATOM     17  C   UNL     1      -0.230   9.497  22.493  0.00  0.00    +0.000 A 
ATOM     18  C   UNL     1      -0.963  10.523  23.096  0.00  0.00    +0.000 A 
ATOM     19  C   UNL     1      -1.123  11.740  22.443  0.00  0.00    +0.000 A 
ATOM     20  C   UNL     1      -0.547  11.936  21.188  0.00  0.00    +0.000 A 
ATOM     21  C   UNL     1       0.185  10.910  20.586  0.00  0.00    +0.000 A 
ENDBRANCH   5  16
TORSDOF 3
ENDMDL
MODEL 6
REMARK VINA RESULT:      -7.0      5.737      7.277
REMARK  Name = 
REMARK  3 active torsions:
REMARK  status: ('A' for Active; 'I' for Inactive)
REMARK    1  A    between atoms: O_1  and  C_2
REMARK    2  A    between atoms: C_5  and  N_6
REMARK    3  A    between atoms: C_10  and  C_11
REMARK                            x       y       z     vdW  Elec       q    Type
REMARK                         _______ _______ _______ _____ _____    ______ ____
ROOT
ATOM      1  N   UNL     1       7.732   6.251  18.556  0.00  0.00    +0.000 N 
ATOM      2  C   UNL     1       7.873   7.541  18.199  0.00  0.00    +0.000 A 
ATOM      3  N   UNL     1       7.221   8.267  17.314  0.00  0.00    +0.000 NA
ATOM      4  C   UNL     1       7.746   9.521  17.451  0.00  0.00    +0.000 A 
ATOM      5  C   UNL     1       8.714   9.527  18.426  0.00  0.00    +0.000 A 
ATOM      6  O   UNL     1       8.812   8.245  18.903  0.00  0.00    +0.000 OA
ATOM      7  H   UNL     1       8.298   5.944  19.336  0.00  0.00    +0.000 HD
ENDROOT
BRANCH   1  11
ATOM      8  C   UNL     1       4.544   3.640  17.679  0.00  0.00    +0.000 A 
ATOM      9  C   UNL     1       4.612   4.217  18.937  0.00  0.00    +0.000 A 
ATOM     10  C   UNL     1       5.641   5.118  19.220  0.00  0.00    +0.000 A 
ATOM     11  C   UNL     1       6.621   5.437  18.269  0.00  0.00    +0.000 A 
ATOM     12  C   UNL     1       6.498   4.871  16.990  0.00  0.00    +0.000 A 
ATOM     13  C   UNL     1       5.468   3.972  16.697  0.00  0.00    +0.000 A 
BRANCH   8  14
ATOM     14  O   UNL     1       3.578   2.729  17.372  0.00  0.00    +0.000 OA
ATOM     15  H   UNL     1       2.862   2.815  18.022  0.00  0.00    +0.000 HD
ENDBRANCH   8  14
ENDBRANCH   1  11
BRANCH   5  16
ATOM     16  C   UNL     1       9.582  10.540  19.007  0.00  0.00    +0.000 A 
ATOM     17  C   UNL     1      10.543  11.184  18.213  0.00  0.00    +0.000 A 
ATOM     18  C   UNL     1      11.391  12.153  18.756  0.00  0.00    +0.000 A 
ATOM     19  C   UNL     1      11.286  12.495  20.100  0.00  0.00    +0.000 A 
ATOM     20  C   UNL     1      10.331  11.870  20.902  0.00  0.00    +0.000 A 
ATOM     21  C   UNL     1       9.486  10.901  20.359  0.00  0.00    +0.000 A 
ENDBRANCH   5  16
TORSDOF 3
ENDMDL
MODEL 7
REMARK VINA RESULT:      -7.0      4.613      8.366
REMARK  Name = 
REMARK  3 active torsions:
REMARK  status: ('A' for Active; 'I' for Inactive)
REMARK    1  A    between atoms: O_1  and  C_2
REMARK    2  A    between atoms: C_5  and  N_6
REMARK    3  A    between atoms: C_10  and  C_11
REMARK                            x       y       z     vdW  Elec       q    Type
REMARK                         _______ _______ _______ _____ _____    ______ ____
ROOT
ATOM      1  N   UNL     1       2.154   5.298  20.973  0.00  0.00    +0.000 N 
ATOM      2  C   UNL     1       1.943   6.548  20.522  0.00  0.00    +0.000 A 
ATOM      3  N   UNL     1       2.291   7.126  19.391  0.00  0.00    +0.000 NA
ATOM      4  C   UNL     1       1.731   8.371  19.461  0.00  0.00    +0.000 A 
ATOM      5  C   UNL     1       1.050   8.521  20.644  0.00  0.00    +0.000 A 
ATOM      6  O   UNL     1       1.197   7.350  21.343  0.00  0.00    +0.000 OA
ATOM      7  H   UNL     1       1.704   5.062  21.848  0.00  0.00    +0.000 HD
ENDROOT
BRANCH   1  11
ATOM      8  C   UNL     1       3.450   1.930  18.799  0.00  0.00    +0.000 A 
ATOM      9  C   UNL     1       2.106   2.047  19.116  0.00  0.00    +0.000 A 
ATOM     10  C   UNL     1       1.662   3.182  19.798  0.00  0.00    +0.000 A 
ATOM     11  C   UNL     1       2.548   4.198  20.189  0.00  0.00    +0.000 A 
ATOM     12  C   UNL     1       3.894   4.071  19.812  0.00  0.00    +0.000 A 
ATOM     13  C   UNL     1       4.345   2.939  19.125  0.00  0.00    +0.000 A 
BRANCH   8  14
ATOM     14  O   UNL     1       3.931   0.823  18.166  0.00  0.00    +0.000 OA
ATOM     15  H   UNL     1       4.772   1.057  17.741  0.00  0.00    +0.000 HD
ENDBRANCH   8  14
ENDBRANCH   1  11
BRANCH   5  16
ATOM     16  C   UNL     1       0.266   9.585  21.253  0.00  0.00    +0.000 A 
ATOM     17  C   UNL     1      -0.054  10.734  20.514  0.00  0.00    +0.000 A 
ATOM     18  C   UNL     1      -0.799  11.769  21.084  0.00  0.00    +0.000 A 
ATOM     19  C   UNL     1      -1.239  11.667  22.399  0.00  0.00    +0.000 A 
ATOM     20  C   UNL     1      -0.938  10.528  23.145  0.00  0.00    +0.000 A 
ATOM     21  C   UNL     1      -0.192   9.495  22.575  0.00  0.00    +0.000 A 
ENDBRANCH   5  16
TORSDOF 3
ENDMDL
MODEL 8
REMARK VINA RESULT:      -7.0      5.742      7.267
REMARK  Name = 
REMARK  3 active torsions:
REMARK  status: ('A' for Active; 'I' for Inactive)
REMARK    1  A    between atoms: O_1  and  C_2
REMARK    2  A    between atoms: C_5  and  N_6
REMARK    3  A    between atoms: C_10  and  C_11
REMARK                            x       y       z     vdW  Elec       q    Type
REMARK                         _______ _______ _______ _____ _____    ______ ____
ROOT
ATOM      1  N   UNL     1       7.743   6.256  18.546  0.00  0.00    +0.000 N 
ATOM      2  C   UNL     1       7.875   7.548  18.193  0.00  0.00    +0.000 A 
ATOM      3  N   UNL     1       7.209   8.276  17.320  0.00  0.00    +0.000 NA
ATOM      4  C   UNL     1       7.733   9.531  17.455  0.00  0.00    +0.000 A 
ATOM      5  C   UNL     1       8.715   9.536  18.415  0.00  0.00    +0.000 A 
ATOM      6  O   UNL     1       8.823   8.251  18.885  0.00  0.00    +0.000 OA
ATOM      7  H   UNL     1       8.321   5.947  19.316  0.00  0.00    +0.000 HD
ENDROOT
BRANCH   1  11
ATOM      8  C   UNL     1       4.548   3.640  17.706  0.00  0.00    +0.000 A 
ATOM      9  C   UNL     1       4.626   4.223  18.961  0.00  0.00    +0.000 A 
ATOM     10  C   UNL     1       5.657   5.125  19.232  0.00  0.00    +0.000 A 
ATOM     11  C   UNL     1       6.629   5.441  18.271  0.00  0.00    +0.000 A 
ATOM     12  C   UNL     1       6.496   4.870  16.995  0.00  0.00    +0.000 A 
ATOM     13  C   UNL     1       5.464   3.969  16.715  0.00  0.00    +0.000 A 
BRANCH   8  14
ATOM     14  O   UNL     1       3.580   2.728  17.411  0.00  0.00    +0.000 OA
ATOM     15  H   UNL     1       3.933   1.842  17.590  0.00  0.00    +0.000 HD
ENDBRANCH   8  14
ENDBRANCH   1  11
BRANCH   5  16
ATOM     16  C   UNL     1       9.589  10.548  18.989  0.00  0.00    +0.000 A 
ATOM     17  C   UNL     1       9.476  10.888  20.346  0.00  0.00    +0.000 A 
ATOM     18  C   UNL     1      10.301  11.863  20.912  0.00  0.00    +0.000 A 
ATOM     19  C   UNL     1      11.254  12.508  20.130  0.00  0.00    +0.000 A 
ATOM     20  C   UNL     1      11.385  12.176  18.782  0.00  0.00    +0.000 A 
ATOM     21  C   UNL     1      10.559  11.203  18.217  0.00  0.00    +0.000 A 
ENDBRANCH   5  16
TORSDOF 3
ENDMDL
MODEL 9
REMARK VINA RESULT:      -6.9      4.263      8.589
REMARK  Name = 
REMARK  3 active torsions:
REMARK  status: ('A' for Active; 'I' for Inactive)
REMARK    1  A    between atoms: O_1  and  C_2
REMARK    2  A    between atoms: C_5  and  N_6
REMARK    3  A    between atoms: C_10  and  C_11
REMARK                            x       y       z     vdW  Elec       q    Type
REMARK                         _______ _______ _______ _____ _____    ______ ____
ROOT
ATOM      1  N   UNL     1       3.409   7.324  17.673  0.00  0.00    +0.000 N 
ATOM      2  C   UNL     1       2.711   7.260  18.822  0.00  0.00    +0.000 A 
ATOM      3  N   UNL     1       2.639   6.312  19.735  0.00  0.00    +0.000 NA
ATOM      4  C   UNL     1       1.841   6.842  20.710  0.00  0.00    +0.000 A 
ATOM      5  C   UNL     1       1.443   8.110  20.363  0.00  0.00    +0.000 A 
ATOM      6  O   UNL     1       1.990   8.380  19.134  0.00  0.00    +0.000 OA
ATOM      7  H   UNL     1       3.369   8.207  17.180  0.00  0.00    +0.000 HD
ENDROOT
BRANCH   1  11
ATOM      8  C   UNL     1       6.716   4.852  16.832  0.00  0.00    +0.000 A 
ATOM      9  C   UNL     1       5.442   4.309  16.782  0.00  0.00    +0.000 A 
ATOM     10  C   UNL     1       4.338   5.132  17.016  0.00  0.00    +0.000 A 
ATOM     11  C   UNL     1       4.489   6.493  17.322  0.00  0.00    +0.000 A 
ATOM     12  C   UNL     1       5.789   7.023  17.319  0.00  0.00    +0.000 A 
ATOM     13  C   UNL     1       6.898   6.205  17.081  0.00  0.00    +0.000 A 
BRANCH   8  14
ATOM     14  O   UNL     1       7.821   4.077  16.645  0.00  0.00    +0.000 OA
ATOM     15  H   UNL     1       7.802   3.736  15.736  0.00  0.00    +0.000 HD
ENDBRANCH   8  14
ENDBRANCH   1  11
BRANCH   5  16
ATOM     16  C   UNL     1       0.628   9.141  20.988  0.00  0.00    +0.000 A 
ATOM     17  C   UNL     1       0.269   9.030  22.340  0.00  0.00    +0.000 A 
ATOM     18  C   UNL     1      -0.519  10.006  22.956  0.00  0.00    +0.000 A 
ATOM     19  C   UNL     1      -0.955  11.108  22.228  0.00  0.00    +0.000 A 
ATOM     20  C   UNL     1      -0.601  11.238  20.886  0.00  0.00    +0.000 A 
ATOM     21  C   UNL     1       0.186  10.262  20.272  0.00  0.00    +0.000 A 
ENDBRANCH   5  16
TORSDOF 3
ENDMDL
