MODEL 1
REMARK VINA RESULT:      -9.0      0.000      0.000
REMARK  Name = 
REMARK  2 active torsions:
REMARK  status: ('A' for Active; 'I' for Inactive)
REMARK    1  A    between atoms: C_2  and  C_12
REMARK    2  A    between atoms: N_3  and  C_4
REMARK                            x       y       z     vdW  Elec       q    Type
REMARK                         _______ _______ _______ _____ _____    ______ ____
ROOT
ATOM      1  C   UNL     1       4.194   6.480  17.402  0.00  0.00    +0.000 A 
ATOM      2  C   UNL     1       3.532   7.724  17.422  0.00  0.00    +0.000 A 
ATOM      3  C   UNL     1       2.541   8.018  18.375  0.00  0.00    +0.000 A 
ATOM      4  C   UNL     1       2.167   7.070  19.330  0.00  0.00    +0.000 A 
ATOM      5  C   UNL     1       2.810   5.842  19.325  0.00  0.00    +0.000 A 
ATOM      6  C   UNL     1       3.824   5.569  18.378  0.00  0.00    +0.000 A 
ATOM      7  C   UNL     1       4.312   4.200  18.685  0.00  0.00    +0.000 C 
ATOM      8  O   UNL     1       5.246   3.619  18.174  0.00  0.00    +0.000 OA
ATOM      9  C   UNL     1       3.514   3.683  19.804  0.00  0.00    +0.000 A 
ATOM     10  C   UNL     1       3.602   2.454  20.428  0.00  0.00    +0.000 A 
ATOM     11  C   UNL     1       2.731   2.226  21.491  0.00  0.00    +0.000 A 
ATOM     12  C   UNL     1       1.813   3.217  21.886  0.00  0.00    +0.000 A 
ATOM     13  C   UNL     1       1.749   4.457  21.233  0.00  0.00    +0.000 A 
ATOM     14  C   UNL     1       2.617   4.691  20.182  0.00  0.00    +0.000 A 
ENDROOT
BRANCH   1  16
ATOM     15  O   UNL     1       5.988   7.144  16.092  0.00  0.00    +0.000 OA
ATOM     16  C   UNL     1       5.167   6.255  16.296  0.00  0.00    +0.000 C 
ATOM     17  N   UNL     1       5.067   5.079  15.583  0.00  0.00    +0.000 N 
ATOM     18  H   UNL     1       4.240   4.502  15.734  0.00  0.00    +0.000 HD
BRANCH  17  19
ATOM     19  C   UNL     1       5.842   4.700  14.469  0.00  0.00    +0.000 A 
ATOM     20  C   UNL     1       7.096   5.245  14.182  0.00  0.00    +0.000 A 
ATOM     21  C   UNL     1       7.780   4.868  13.026  0.00  0.00    +0.000 A 
ATOM     22  C   UNL     1       7.214   3.939  12.161  0.00  0.00    +0.000 A 
ATOM     23  F   UNL     1       7.878   3.609  11.046  0.00  0.00    +0.000 F 
ATOM     24  C   UNL     1       5.977   3.368  12.450  0.00  0.00    +0.000 A 
ATOM     25 CL   UNL     1       5.267   2.223  11.377  0.00  0.00    +0.000 Cl
ATOM     26  C   UNL     1       5.295   3.737  13.610  0.00  0.00    +0.000 A 
ENDBRANCH  17  19
ENDBRANCH   1  16
TORSDOF 2
ENDMDL
MODEL 2
REMARK VINA RESULT:      -8.8      5.130      8.029
REMARK  Name = 
REMARK  2 active torsions:
REMARK  status: ('A' for Active; 'I' for Inactive)
REMARK    1  A    between atoms: C_2  and  C_12
REMARK    2  A    between atoms: N_3  and  C_4
REMARK                            x       y       z     vdW  Elec       q    Type
REMARK                         _______ _______ _______ _____ _____    ______ ____
ROOT
ATOM      1  C   UNL     1       2.153   6.726  19.853  0.00  0.00    +0.000 A 
ATOM      2  C   UNL     1       1.689   5.726  20.730  0.00  0.00    +0.000 A 
ATOM      3  C   UNL     1       2.049   4.376  20.569  0.00  0.00    +0.000 A 
ATOM      4  C   UNL     1       2.872   3.980  19.513  0.00  0.00    +0.000 A 
ATOM      5  C   UNL     1       3.339   4.951  18.642  0.00  0.00    +0.000 A 
ATOM      6  C   UNL     1       2.991   6.308  18.831  0.00  0.00    +0.000 A 
ATOM      7  C   UNL     1       3.687   7.063  17.756  0.00  0.00    +0.000 C 
ATOM      8  O   UNL     1       3.736   8.266  17.615  0.00  0.00    +0.000 OA
ATOM      9  C   UNL     1       4.402   6.089  16.921  0.00  0.00    +0.000 A 
ATOM     10  C   UNL     1       5.180   6.322  15.803  0.00  0.00    +0.000 A 
ATOM     11  C   UNL     1       5.769   5.211  15.207  0.00  0.00    +0.000 A 
ATOM     12  C   UNL     1       5.562   3.923  15.737  0.00  0.00    +0.000 A 
ATOM     13  C   UNL     1       4.768   3.720  16.874  0.00  0.00    +0.000 A 
ATOM     14  C   UNL     1       4.187   4.821  17.475  0.00  0.00    +0.000 A 
ENDROOT
BRANCH   1  16
ATOM     15  O   UNL     1       1.538   8.478  21.241  0.00  0.00    +0.000 OA
ATOM     16  C   UNL     1       1.639   8.107  20.076  0.00  0.00    +0.000 C 
ATOM     17  N   UNL     1       1.308   8.855  18.966  0.00  0.00    +0.000 N 
ATOM     18  H   UNL     1       1.273   8.378  18.066  0.00  0.00    +0.000 HD
BRANCH  17  19
ATOM     19  C   UNL     1       0.752  10.150  18.958  0.00  0.00    +0.000 A 
ATOM     20  C   UNL     1      -0.604  10.408  19.172  0.00  0.00    +0.000 A 
ATOM     21  C   UNL     1      -1.096  11.711  19.086  0.00  0.00    +0.000 A 
ATOM     22  C   UNL     1      -0.230  12.757  18.794  0.00  0.00    +0.000 A 
ATOM     23  F   UNL     1      -0.728  13.997  18.694  0.00  0.00    +0.000 F 
ATOM     24  C   UNL     1       1.129  12.517  18.606  0.00  0.00    +0.000 A 
ATOM     25 CL   UNL     1       2.205  13.810  18.235  0.00  0.00    +0.000 Cl
ATOM     26  C   UNL     1       1.624  11.217  18.699  0.00  0.00    +0.000 A 
ENDBRANCH  17  19
ENDBRANCH   1  16
TORSDOF 2
ENDMDL
MODEL 3
REMARK VINA RESULT:      -8.8      4.873      8.156
REMARK  Name = 
REMARK  2 active torsions:
REMARK  status: ('A' for Active; 'I' for Inactive)
REMARK    1  A    between atoms: C_2  and  C_12
REMARK    2  A    between atoms: N_3  and  C_4
REMARK                            x       y       z     vdW  Elec       q    Type
REMARK                         _______ _______ _______ _____ _____    ______ ____
ROOT
ATOM      1  C   UNL     1       2.716   4.913  19.882  0.00  0.00    +0.000 A 
ATOM      2  C   UNL     1       2.768   3.714  20.621  0.00  0.00    +0.000 A 
ATOM      3  C   UNL     1       3.578   2.636  20.223  0.00  0.00    +0.000 A 
ATOM      4  C   UNL     1       4.350   2.714  19.062  0.00  0.00    +0.000 A 
ATOM      5  C   UNL     1       4.311   3.887  18.325  0.00  0.00    +0.000 A 
ATOM      6  C   UNL     1       3.514   4.974  18.751  0.00  0.00    +0.000 A 
ATOM      7  C   UNL     1       3.740   6.060  17.762  0.00  0.00    +0.000 C 
ATOM      8  O   UNL     1       3.323   7.198  17.809  0.00  0.00    +0.000 OA
ATOM      9  C   UNL     1       4.653   5.542  16.734  0.00  0.00    +0.000 A 
ATOM     10  C   UNL     1       5.143   6.188  15.615  0.00  0.00    +0.000 A 
ATOM     11  C   UNL     1       6.021   5.467  14.810  0.00  0.00    +0.000 A 
ATOM     12  C   UNL     1       6.373   4.145  15.143  0.00  0.00    +0.000 A 
ATOM     13  C   UNL     1       5.860   3.519  16.288  0.00  0.00    +0.000 A 
ATOM     14  C   UNL     1       4.993   4.232  17.095  0.00  0.00    +0.000 A 
ENDROOT
BRANCH   1  16
ATOM     15  O   UNL     1       0.637   5.571  20.669  0.00  0.00    +0.000 OA
ATOM     16  C   UNL     1       1.761   5.953  20.356  0.00  0.00    +0.000 C 
ATOM     17  N   UNL     1       2.203   7.259  20.400  0.00  0.00    +0.000 N 
ATOM     18  H   UNL     1       3.094   7.472  19.954  0.00  0.00    +0.000 HD
BRANCH  17  19
ATOM     19  C   UNL     1       1.447   8.393  20.757  0.00  0.00    +0.000 A 
ATOM     20  C   UNL     1       1.098   8.703  22.074  0.00  0.00    +0.000 A 
ATOM     21  C   UNL     1       0.294   9.810  22.347  0.00  0.00    +0.000 A 
ATOM     22  C   UNL     1      -0.156  10.610  21.304  0.00  0.00    +0.000 A 
ATOM     23  F   UNL     1      -0.946  11.655  21.588  0.00  0.00    +0.000 F 
ATOM     24  C   UNL     1       0.207  10.328  19.990  0.00  0.00    +0.000 A 
ATOM     25 CL   UNL     1      -0.355  11.312  18.693  0.00  0.00    +0.000 Cl
ATOM     26  C   UNL     1       1.019   9.227  19.715  0.00  0.00    +0.000 A 
ENDBRANCH  17  19
ENDBRANCH   1  16
TORSDOF 2
ENDMDL
MODEL 4
REMARK VINA RESULT:      -8.8      1.391      3.476
REMARK  Name = 
REMARK  2 active torsions:
REMARK  status: ('A' for Active; 'I' for Inactive)
REMARK    1  A    between atoms: C_2  and  C_12
REMARK    2  A    between atoms: N_3  and  C_4
REMARK                            x       y       z     vdW  Elec       q    Type
REMARK                         _______ _______ _______ _____ _____    ______ ____
ROOT
ATOM      1  C   UNL     1       3.965   4.439  18.894  0.00  0.00    +0.000 A 
ATOM      2  C   UNL     1       3.767   3.324  19.732  0.00  0.00    +0.000 A 
ATOM      3  C   UNL     1       2.853   3.356  20.800  0.00  0.00    +0.000 A 
ATOM      4  C   UNL     1       2.119   4.511  21.076  0.00  0.00    +0.000 A 
ATOM      5  C   UNL     1       2.301   5.616  20.260  0.00  0.00    +0.000 A 
ATOM      6  C   UNL     1       3.203   5.562  19.173  0.00  0.00    +0.000 A 
ATOM      7  C   UNL     1       3.118   6.886  18.503  0.00  0.00    +0.000 C 
ATOM      8  O   UNL     1       3.655   7.225  17.470  0.00  0.00    +0.000 OA
ATOM      9  C   UNL     1       2.176   7.712  19.270  0.00  0.00    +0.000 A 
ATOM     10  C   UNL     1       1.783   9.015  19.031  0.00  0.00    +0.000 A 
ATOM     11  C   UNL     1       0.849   9.559  19.909  0.00  0.00    +0.000 A 
ATOM     12  C   UNL     1       0.348   8.796  20.981  0.00  0.00    +0.000 A 
ATOM     13  C   UNL     1       0.766   7.474  21.195  0.00  0.00    +0.000 A 
ATOM     14  C   UNL     1       1.687   6.927  20.322  0.00  0.00    +0.000 A 
ENDROOT
BRANCH   1  16
ATOM     15  O   UNL     1       6.153   4.052  18.233  0.00  0.00    +0.000 OA
ATOM     16  C   UNL     1       5.018   4.313  17.847  0.00  0.00    +0.000 C 
ATOM     17  N   UNL     1       4.644   4.508  16.534  0.00  0.00    +0.000 N 
ATOM     18  H   UNL     1       3.714   4.887  16.357  0.00  0.00    +0.000 HD
BRANCH  17  19
ATOM     19  C   UNL     1       5.488   4.494  15.406  0.00  0.00    +0.000 A 
ATOM     20  C   UNL     1       6.680   5.219  15.327  0.00  0.00    +0.000 A 
ATOM     21  C   UNL     1       7.435   5.208  14.154  0.00  0.00    +0.000 A 
ATOM     22  C   UNL     1       7.001   4.468  13.062  0.00  0.00    +0.000 A 
ATOM     23  F   UNL     1       7.730   4.490  11.937  0.00  0.00    +0.000 F 
ATOM     24  C   UNL     1       5.829   3.720  13.136  0.00  0.00    +0.000 A 
ATOM     25 CL   UNL     1       5.282   2.807  11.781  0.00  0.00    +0.000 Cl
ATOM     26  C   UNL     1       5.077   3.721  14.311  0.00  0.00    +0.000 A 
ENDBRANCH  17  19
ENDBRANCH   1  16
TORSDOF 2
ENDMDL
MODEL 5
REMARK VINA RESULT:      -8.8      5.210      7.991
REMARK  Name = 
REMARK  2 active torsions:
REMARK  status: ('A' for Active; 'I' for Inactive)
REMARK    1  A    between atoms: C_2  and  C_12
REMARK    2  A    between atoms: N_3  and  C_4
REMARK                            x       y       z     vdW  Elec       q    Type
REMARK                         _______ _______ _______ _____ _____    ______ ____
ROOT
ATOM      1  C   UNL     1       2.167   6.780  19.763  0.00  0.00    +0.000 A 
ATOM      2  C   UNL     1       1.680   5.815  20.667  0.00  0.00    +0.000 A 
ATOM      3  C   UNL     1       2.027   4.457  20.554  0.00  0.00    +0.000 A 
ATOM      4  C   UNL     1       2.859   4.017  19.523  0.00  0.00    +0.000 A 
ATOM      5  C   UNL     1       3.349   4.954  18.628  0.00  0.00    +0.000 A 
ATOM      6  C   UNL     1       3.014   6.320  18.768  0.00  0.00    +0.000 A 
ATOM      7  C   UNL     1       3.732   7.031  17.678  0.00  0.00    +0.000 C 
ATOM      8  O   UNL     1       3.797   8.229  17.498  0.00  0.00    +0.000 OA
ATOM      9  C   UNL     1       4.447   6.023  16.885  0.00  0.00    +0.000 A 
ATOM     10  C   UNL     1       5.243   6.211  15.771  0.00  0.00    +0.000 A 
ATOM     11  C   UNL     1       5.827   5.074  15.219  0.00  0.00    +0.000 A 
ATOM     12  C   UNL     1       5.598   3.806  15.788  0.00  0.00    +0.000 A 
ATOM     13  C   UNL     1       4.787   3.649  16.921  0.00  0.00    +0.000 A 
ATOM     14  C   UNL     1       4.210   4.776  17.477  0.00  0.00    +0.000 A 
ENDROOT
BRANCH   1  16
ATOM     15  O   UNL     1       1.513   8.568  21.086  0.00  0.00    +0.000 OA
ATOM     16  C   UNL     1       1.666   8.173  19.934  0.00  0.00    +0.000 C 
ATOM     17  N   UNL     1       1.404   8.905  18.795  0.00  0.00    +0.000 N 
ATOM     18  H   UNL     1       1.406   8.411  17.903  0.00  0.00    +0.000 HD
BRANCH  17  19
ATOM     19  C   UNL     1       0.871  10.208  18.735  0.00  0.00    +0.000 A 
ATOM     20  C   UNL     1       1.659  11.362  18.700  0.00  0.00    +0.000 A 
ATOM     21  C   UNL     1       1.062  12.623  18.704  0.00  0.00    +0.000 A 
ATOM     22  C   UNL     1      -0.323  12.730  18.736  0.00  0.00    +0.000 A 
ATOM     23  F   UNL     1      -0.874  13.951  18.763  0.00  0.00    +0.000 F 
ATOM     24  C   UNL     1      -1.120  11.588  18.744  0.00  0.00    +0.000 A 
ATOM     25 CL   UNL     1      -2.837  11.716  18.793  0.00  0.00    +0.000 Cl
ATOM     26  C   UNL     1      -0.525  10.326  18.730  0.00  0.00    +0.000 A 
ENDBRANCH  17  19
ENDBRANCH   1  16
TORSDOF 2
ENDMDL
MODEL 6
REMARK VINA RESULT:      -8.4      5.064      8.243
REMARK  Name = 
REMARK  2 active torsions:
REMARK  status: ('A' for Active; 'I' for Inactive)
REMARK    1  A    between atoms: C_2  and  C_12
REMARK    2  A    between atoms: N_3  and  C_4
REMARK                            x       y       z     vdW  Elec       q    Type
REMARK                         _______ _______ _______ _____ _____    ______ ____
ROOT
ATOM      1  C   UNL     1       2.858   4.830  19.708  0.00  0.00    +0.000 A 
ATOM      2  C   UNL     1       2.923   3.650  20.475  0.00  0.00    +0.000 A 
ATOM      3  C   UNL     1       3.739   2.568  20.098  0.00  0.00    +0.000 A 
ATOM      4  C   UNL     1       4.504   2.625  18.932  0.00  0.00    +0.000 A 
ATOM      5  C   UNL     1       4.453   3.779  18.167  0.00  0.00    +0.000 A 
ATOM      6  C   UNL     1       3.649   4.870  18.571  0.00  0.00    +0.000 A 
ATOM      7  C   UNL     1       3.863   5.934  17.555  0.00  0.00    +0.000 C 
ATOM      8  O   UNL     1       3.438   7.070  17.578  0.00  0.00    +0.000 OA
ATOM      9  C   UNL     1       4.774   5.399  16.536  0.00  0.00    +0.000 A 
ATOM     10  C   UNL     1       5.253   6.021  15.399  0.00  0.00    +0.000 A 
ATOM     11  C   UNL     1       6.132   5.288  14.606  0.00  0.00    +0.000 A 
ATOM     12  C   UNL     1       6.495   3.977  14.968  0.00  0.00    +0.000 A 
ATOM     13  C   UNL     1       5.993   3.374  16.131  0.00  0.00    +0.000 A 
ATOM     14  C   UNL     1       5.126   4.100  16.925  0.00  0.00    +0.000 A 
ENDROOT
BRANCH   1  16
ATOM     15  O   UNL     1       0.811   5.484  20.577  0.00  0.00    +0.000 OA
ATOM     16  C   UNL     1       1.898   5.875  20.163  0.00  0.00    +0.000 C 
ATOM     17  N   UNL     1       2.294   7.193  20.076  0.00  0.00    +0.000 N 
ATOM     18  H   UNL     1       3.147   7.398  19.556  0.00  0.00    +0.000 HD
BRANCH  17  19
ATOM     19  C   UNL     1       1.522   8.328  20.393  0.00  0.00    +0.000 A 
ATOM     20  C   UNL     1       1.223   9.338  19.475  0.00  0.00    +0.000 A 
ATOM     21  C   UNL     1       0.506  10.465  19.876  0.00  0.00    +0.000 A 
ATOM     22  C   UNL     1       0.081  10.579  21.194  0.00  0.00    +0.000 A 
ATOM     23  F   UNL     1      -0.586  11.681  21.563  0.00  0.00    +0.000 F 
ATOM     24  C   UNL     1       0.349   9.567  22.113  0.00  0.00    +0.000 A 
ATOM     25 CL   UNL     1      -0.169   9.708  23.750  0.00  0.00    +0.000 Cl
ATOM     26  C   UNL     1       1.058   8.435  21.711  0.00  0.00    +0.000 A 
ENDBRANCH  17  19
ENDBRANCH   1  16
TORSDOF 2
ENDMDL
MODEL 7
REMARK VINA RESULT:      -8.3      1.666      3.618
REMARK  Name = 
REMARK  2 active torsions:
REMARK  status: ('A' for Active; 'I' for Inactive)
REMARK    1  A    between atoms: C_2  and  C_12
REMARK    2  A    between atoms: N_3  and  C_4
REMARK                            x       y       z     vdW  Elec       q    Type
REMARK                         _______ _______ _______ _____ _____    ______ ____
ROOT
ATOM      1  C   UNL     1       3.759   5.670  18.335  0.00  0.00    +0.000 A 
ATOM      2  C   UNL     1       3.837   4.485  19.094  0.00  0.00    +0.000 A 
ATOM      3  C   UNL     1       3.099   4.316  20.279  0.00  0.00    +0.000 A 
ATOM      4  C   UNL     1       2.272   5.336  20.754  0.00  0.00    +0.000 A 
ATOM      5  C   UNL     1       2.183   6.508  20.020  0.00  0.00    +0.000 A 
ATOM      6  C   UNL     1       2.909   6.654  18.815  0.00  0.00    +0.000 A 
ATOM      7  C   UNL     1       2.552   7.994  18.282  0.00  0.00    +0.000 C 
ATOM      8  O   UNL     1       2.878   8.473  17.217  0.00  0.00    +0.000 OA
ATOM      9  C   UNL     1       1.639   8.626  19.243  0.00  0.00    +0.000 A 
ATOM     10  C   UNL     1       1.049   9.873  19.176  0.00  0.00    +0.000 A 
ATOM     11  C   UNL     1       0.196  10.221  20.221  0.00  0.00    +0.000 A 
ATOM     12  C   UNL     1      -0.032   9.325  21.283  0.00  0.00    +0.000 A 
ATOM     13  C   UNL     1       0.580   8.064  21.320  0.00  0.00    +0.000 A 
ATOM     14  C   UNL     1       1.421   7.711  20.281  0.00  0.00    +0.000 A 
ENDROOT
BRANCH   1  16
ATOM     15  O   UNL     1       5.156   6.858  16.917  0.00  0.00    +0.000 OA
ATOM     16  C   UNL     1       4.648   5.764  17.143  0.00  0.00    +0.000 C 
ATOM     17  N   UNL     1       4.823   4.628  16.382  0.00  0.00    +0.000 N 
ATOM     18  H   UNL     1       4.215   3.832  16.572  0.00  0.00    +0.000 HD
BRANCH  17  19
ATOM     19  C   UNL     1       5.568   4.517  15.191  0.00  0.00    +0.000 A 
ATOM     20  C   UNL     1       6.853   5.043  15.034  0.00  0.00    +0.000 A 
ATOM     21  C   UNL     1       7.506   4.951  13.804  0.00  0.00    +0.000 A 
ATOM     22  C   UNL     1       6.877   4.328  12.734  0.00  0.00    +0.000 A 
ATOM     23  F   UNL     1       7.514   4.271  11.556  0.00  0.00    +0.000 F 
ATOM     24  C   UNL     1       5.608   3.775  12.885  0.00  0.00    +0.000 A 
ATOM     25 CL   UNL     1       4.820   3.009  11.559  0.00  0.00    +0.000 Cl
ATOM     26  C   UNL     1       4.956   3.858  14.116  0.00  0.00    +0.000 A 
ENDBRANCH  17  19
ENDBRANCH   1  16
TORSDOF 2
ENDMDL
MODEL 8
REMARK VINA RESULT:      -8.3      5.962      8.547
REMARK  Name = 
REMARK  2 active torsions:
REMARK  status: ('A' for Active; 'I' for Inactive)
REMARK    1  A    between atoms: C_2  and  C_12
REMARK    2  A    between atoms: N_3  and  C_4
REMARK                            x       y       z     vdW  Elec       q    Type
REMARK                         _______ _______ _______ _____ _____    ______ ____
ROOT
ATOM      1  C   UNL     1       2.355   7.761  18.779  0.00  0.00    +0.000 A 
ATOM      2  C   UNL     1       3.138   8.163  17.678  0.00  0.00    +0.000 A 
ATOM      3  C   UNL     1       4.108   7.317  17.112  0.00  0.00    +0.000 A 
ATOM      4  C   UNL     1       4.340   6.046  17.641  0.00  0.00    +0.000 A 
ATOM      5  C   UNL     1       3.579   5.634  18.723  0.00  0.00    +0.000 A 
ATOM      6  C   UNL     1       2.587   6.484  19.265  0.00  0.00    +0.000 A 
ATOM      7  C   UNL     1       1.951   5.719  20.368  0.00  0.00    +0.000 C 
ATOM      8  O   UNL     1       0.987   6.043  21.029  0.00  0.00    +0.000 OA
ATOM      9  C   UNL     1       2.641   4.426  20.469  0.00  0.00    +0.000 A 
ATOM     10  C   UNL     1       2.401   3.390  21.350  0.00  0.00    +0.000 A 
ATOM     11  C   UNL     1       3.194   2.254  21.213  0.00  0.00    +0.000 A 
ATOM     12  C   UNL     1       4.188   2.194  20.217  0.00  0.00    +0.000 A 
ATOM     13  C   UNL     1       4.405   3.263  19.336  0.00  0.00    +0.000 A 
ATOM     14  C   UNL     1       3.615   4.390  19.463  0.00  0.00    +0.000 A 
ENDROOT
BRANCH   1  16
ATOM     15  O   UNL     1       0.767   9.432  18.537  0.00  0.00    +0.000 OA
ATOM     16  C   UNL     1       1.417   8.772  19.342  0.00  0.00    +0.000 C 
ATOM     17  N   UNL     1       1.357   8.898  20.713  0.00  0.00    +0.000 N 
ATOM     18  H   UNL     1       2.067   8.418  21.265  0.00  0.00    +0.000 HD
BRANCH  17  19
ATOM     19  C   UNL     1       0.588   9.827  21.442  0.00  0.00    +0.000 A 
ATOM     20  C   UNL     1      -0.242   9.473  22.509  0.00  0.00    +0.000 A 
ATOM     21  C   UNL     1      -1.024  10.438  23.144  0.00  0.00    +0.000 A 
ATOM     22  C   UNL     1      -0.971  11.759  22.717  0.00  0.00    +0.000 A 
ATOM     23  F   UNL     1      -1.748  12.665  23.326  0.00  0.00    +0.000 F 
ATOM     24  C   UNL     1      -0.128  12.130  21.672  0.00  0.00    +0.000 A 
ATOM     25 CL   UNL     1      -0.066  13.765  21.133  0.00  0.00    +0.000 Cl
ATOM     26  C   UNL     1       0.661  11.169  21.042  0.00  0.00    +0.000 A 
ENDBRANCH  17  19
ENDBRANCH   1  16
TORSDOF 2
ENDMDL
MODEL 9
REMARK VINA RESULT:      -8.2      4.941      6.217
REMARK  Name = 
REMARK  2 active torsions:
REMARK  status: ('A' for Active; 'I' for Inactive)
REMARK    1  A    between atoms: C_2  and  C_12
REMARK    2  A    between atoms: N_3  and  C_4
REMARK                            x       y       z     vdW  Elec       q    Type
REMARK                         _______ _______ _______ _____ _____    ______ ____
ROOT
ATOM      1  C   UNL     1       6.644   5.740  17.119  0.00  0.00    +0.000 A 
ATOM      2  C   UNL     1       7.082   5.391  15.825  0.00  0.00    +0.000 A 
ATOM      3  C   UNL     1       6.433   4.398  15.070  0.00  0.00    +0.000 A 
ATOM      4  C   UNL     1       5.336   3.709  15.590  0.00  0.00    +0.000 A 
ATOM      5  C   UNL     1       4.892   4.042  16.860  0.00  0.00    +0.000 A 
ATOM      6  C   UNL     1       5.536   5.061  17.598  0.00  0.00    +0.000 A 
ATOM      7  C   UNL     1       4.785   5.177  18.876  0.00  0.00    +0.000 C 
ATOM      8  O   UNL     1       4.946   5.999  19.752  0.00  0.00    +0.000 OA
ATOM      9  C   UNL     1       3.724   4.162  18.862  0.00  0.00    +0.000 A 
ATOM     10  C   UNL     1       2.782   3.889  19.835  0.00  0.00    +0.000 A 
ATOM     11  C   UNL     1       1.866   2.878  19.555  0.00  0.00    +0.000 A 
ATOM     12  C   UNL     1       1.924   2.181  18.333  0.00  0.00    +0.000 A 
ATOM     13  C   UNL     1       2.893   2.483  17.365  0.00  0.00    +0.000 A 
ATOM     14  C   UNL     1       3.799   3.491  17.635  0.00  0.00    +0.000 A 
ENDROOT
BRANCH   1  16
ATOM     15  O   UNL     1       8.051   6.357  18.855  0.00  0.00    +0.000 OA
ATOM     16  C   UNL     1       7.459   6.748  17.854  0.00  0.00    +0.000 C 
ATOM     17  N   UNL     1       7.479   8.038  17.365  0.00  0.00    +0.000 N 
ATOM     18  H   UNL     1       6.812   8.277  16.632  0.00  0.00    +0.000 HD
BRANCH  17  19
ATOM     19  C   UNL     1       8.131   9.147  17.939  0.00  0.00    +0.000 A 
ATOM     20  C   UNL     1       8.994   9.051  19.034  0.00  0.00    +0.000 A 
ATOM     21  C   UNL     1       9.557  10.201  19.590  0.00  0.00    +0.000 A 
ATOM     22  C   UNL     1       9.261  11.445  19.047  0.00  0.00    +0.000 A 
ATOM     23  F   UNL     1       9.794  12.537  19.612  0.00  0.00    +0.000 F 
ATOM     24  C   UNL     1       8.424  11.551  17.939  0.00  0.00    +0.000 A 
ATOM     25 CL   UNL     1       8.048  13.093  17.268  0.00  0.00    +0.000 Cl
ATOM     26  C   UNL     1       7.868  10.403  17.376  0.00  0.00    +0.000 A 
ENDBRANCH  17  19
ENDBRANCH   1  16
TORSDOF 2
ENDMDL
