MODEL 1
REMARK VINA RESULT:      -7.3      0.000      0.000
REMARK  Name = 
REMARK  5 active torsions:
REMARK  status: ('A' for Active; 'I' for Inactive)
REMARK    1  A    between atoms: O_1  and  C_2
REMARK    2  A    between atoms: C_5  and  C_6
REMARK    3  A    between atoms: C_6  and  C_7
REMARK    4  A    between atoms: C_13  and  O_14
REMARK    5  A    between atoms: C_15  and  O_16
REMARK                            x       y       z     vdW  Elec       q    Type
REMARK                         _______ _______ _______ _____ _____    ______ ____
ROOT
ATOM      1  C   UNL     1       2.734   6.242  18.203  0.00  0.00    +0.000 C 
ATOM      2  N   UNL     1       1.659   5.341  17.734  0.00  0.00    +0.000 NA
ATOM      3  C   UNL     1       1.903   3.952  18.104  0.00  0.00    +0.000 C 
ATOM      4  C   UNL     1       3.302   3.400  17.804  0.00  0.00    +0.000 C 
ATOM      5  C   UNL     1       4.363   4.432  17.512  0.00  0.00    +0.000 A 
ATOM      6  C   UNL     1       5.644   3.981  17.143  0.00  0.00    +0.000 A 
ATOM      7  C   UNL     1       6.644   4.902  16.870  0.00  0.00    +0.000 A 
ATOM      8  C   UNL     1       6.370   6.260  16.936  0.00  0.00    +0.000 A 
ATOM      9  C   UNL     1       5.110   6.722  17.303  0.00  0.00    +0.000 A 
ATOM     10  C   UNL     1       4.083   5.816  17.619  0.00  0.00    +0.000 A 
ATOM     11  H   UNL     1       1.577   5.429  16.725  0.00  0.00    +0.000 HD
ENDROOT
BRANCH   7  12
ATOM     12  O   UNL     1       7.917   4.518  16.553  0.00  0.00    +0.000 OA
ATOM     13  H   UNL     1       8.285   4.034  17.312  0.00  0.00    +0.000 HD
ENDBRANCH   7  12
BRANCH   8  14
ATOM     14  O   UNL     1       7.361   7.162  16.668  0.00  0.00    +0.000 OA
ATOM     15  H   UNL     1       6.991   7.733  15.964  0.00  0.00    +0.000 HD
ENDBRANCH   8  14
BRANCH   1  16
ATOM     16  C   UNL     1       2.296   7.707  17.917  0.00  0.00    +0.000 C 
BRANCH  16  20
ATOM     17  C   UNL     1       0.771   9.803  21.368  0.00  0.00    +0.000 A 
ATOM     18  C   UNL     1       0.757  10.420  20.123  0.00  0.00    +0.000 A 
ATOM     19  C   UNL     1       1.254   9.737  19.011  0.00  0.00    +0.000 A 
ATOM     20  C   UNL     1       1.761   8.433  19.138  0.00  0.00    +0.000 A 
ATOM     21  C   UNL     1       1.768   7.829  20.402  0.00  0.00    +0.000 A 
ATOM     22  C   UNL     1       1.271   8.512  21.511  0.00  0.00    +0.000 A 
BRANCH  17  23
ATOM     23  O   UNL     1       0.299  10.431  22.480  0.00  0.00    +0.000 OA
ATOM     24  H   UNL     1       0.990  10.403  23.164  0.00  0.00    +0.000 HD
ENDBRANCH  17  23
ENDBRANCH  16  20
ENDBRANCH   1  16
TORSDOF 5
ENDMDL
MODEL 2
REMARK VINA RESULT:      -7.3      0.029      1.081
REMARK  Name = 
REMARK  5 active torsions:
REMARK  status: ('A' for Active; 'I' for Inactive)
REMARK    1  A    between atoms: O_1  and  C_2
REMARK    2  A    between atoms: C_5  and  C_6
REMARK    3  A    between atoms: C_6  and  C_7
REMARK    4  A    between atoms: C_13  and  O_14
REMARK    5  A    between atoms: C_15  and  O_16
REMARK                            x       y       z     vdW  Elec       q    Type
REMARK                         _______ _______ _______ _____ _____    ______ ____
ROOT
ATOM      1  C   UNL     1       2.733   6.255  18.203  0.00  0.00    +0.000 C 
ATOM      2  N   UNL     1       1.660   5.349  17.739  0.00  0.00    +0.000 NA
ATOM      3  C   UNL     1       1.902   3.964  18.125  0.00  0.00    +0.000 C 
ATOM      4  C   UNL     1       3.302   3.409  17.837  0.00  0.00    +0.000 C 
ATOM      5  C   UNL     1       4.365   4.438  17.540  0.00  0.00    +0.000 A 
ATOM      6  C   UNL     1       5.648   3.983  17.181  0.00  0.00    +0.000 A 
ATOM      7  C   UNL     1       6.649   4.900  16.903  0.00  0.00    +0.000 A 
ATOM      8  C   UNL     1       6.375   6.259  16.952  0.00  0.00    +0.000 A 
ATOM      9  C   UNL     1       5.113   6.725  17.309  0.00  0.00    +0.000 A 
ATOM     10  C   UNL     1       4.084   5.822  17.630  0.00  0.00    +0.000 A 
ATOM     11  H   UNL     1       1.582   5.426  16.728  0.00  0.00    +0.000 HD
ENDROOT
BRANCH   7  12
ATOM     12  O   UNL     1       7.923   4.513  16.596  0.00  0.00    +0.000 OA
ATOM     13  H   UNL     1       8.539   5.074  17.099  0.00  0.00    +0.000 HD
ENDBRANCH   7  12
BRANCH   8  14
ATOM     14  O   UNL     1       7.367   7.158  16.680  0.00  0.00    +0.000 OA
ATOM     15  H   UNL     1       6.983   7.750  16.001  0.00  0.00    +0.000 HD
ENDBRANCH   8  14
BRANCH   1  16
ATOM     16  C   UNL     1       2.297   7.717  17.899  0.00  0.00    +0.000 C 
BRANCH  16  20
ATOM     17  C   UNL     1       0.776   9.790  21.366  0.00  0.00    +0.000 A 
ATOM     18  C   UNL     1       1.285   8.504  21.498  0.00  0.00    +0.000 A 
ATOM     19  C   UNL     1       1.773   7.838  20.372  0.00  0.00    +0.000 A 
ATOM     20  C   UNL     1       1.761   8.458  19.111  0.00  0.00    +0.000 A 
ATOM     21  C   UNL     1       1.243   9.755  18.999  0.00  0.00    +0.000 A 
ATOM     22  C   UNL     1       0.756  10.418  20.124  0.00  0.00    +0.000 A 
BRANCH  17  23
ATOM     23  O   UNL     1       0.288  10.478  22.435  0.00  0.00    +0.000 OA
ATOM     24  H   UNL     1       0.843  10.277  23.207  0.00  0.00    +0.000 HD
ENDBRANCH  17  23
ENDBRANCH  16  20
ENDBRANCH   1  16
TORSDOF 5
ENDMDL
MODEL 3
REMARK VINA RESULT:      -7.2      4.395      5.114
REMARK  Name = 
REMARK  5 active torsions:
REMARK  status: ('A' for Active; 'I' for Inactive)
REMARK    1  A    between atoms: O_1  and  C_2
REMARK    2  A    between atoms: C_5  and  C_6
REMARK    3  A    between atoms: C_6  and  C_7
REMARK    4  A    between atoms: C_13  and  O_14
REMARK    5  A    between atoms: C_15  and  O_16
REMARK                            x       y       z     vdW  Elec       q    Type
REMARK                         _______ _______ _______ _____ _____    ______ ____
ROOT
ATOM      1  C   UNL     1       4.941   4.156  17.697  0.00  0.00    +0.000 C 
ATOM      2  N   UNL     1       5.817   4.113  18.887  0.00  0.00    +0.000 NA
ATOM      3  C   UNL     1       6.619   5.323  19.026  0.00  0.00    +0.000 C 
ATOM      4  C   UNL     1       7.358   5.801  17.771  0.00  0.00    +0.000 C 
ATOM      5  C   UNL     1       6.891   5.200  16.468  0.00  0.00    +0.000 A 
ATOM      6  C   UNL     1       7.592   5.534  15.294  0.00  0.00    +0.000 A 
ATOM      7  C   UNL     1       7.188   5.002  14.079  0.00  0.00    +0.000 A 
ATOM      8  C   UNL     1       6.116   4.123  14.031  0.00  0.00    +0.000 A 
ATOM      9  C   UNL     1       5.411   3.786  15.182  0.00  0.00    +0.000 A 
ATOM     10  C   UNL     1       5.772   4.334  16.425  0.00  0.00    +0.000 A 
ATOM     11  H   UNL     1       6.419   3.296  18.820  0.00  0.00    +0.000 HD
ENDROOT
BRANCH   7  12
ATOM     12  O   UNL     1       7.803   5.330  12.903  0.00  0.00    +0.000 OA
ATOM     13  H   UNL     1       7.412   4.787  12.196  0.00  0.00    +0.000 HD
ENDBRANCH   7  12
BRANCH   8  14
ATOM     14  O   UNL     1       5.722   3.604  12.829  0.00  0.00    +0.000 OA
ATOM     15  H   UNL     1       5.330   2.736  13.053  0.00  0.00    +0.000 HD
ENDBRANCH   8  14
BRANCH   1  16
ATOM     16  C   UNL     1       4.009   2.911  17.738  0.00  0.00    +0.000 C 
BRANCH  16  20
ATOM     17  C   UNL     1       1.566   2.684  21.289  0.00  0.00    +0.000 A 
ATOM     18  C   UNL     1       0.993   3.056  20.078  0.00  0.00    +0.000 A 
ATOM     19  C   UNL     1       1.790   3.130  18.934  0.00  0.00    +0.000 A 
ATOM     20  C   UNL     1       3.160   2.825  18.993  0.00  0.00    +0.000 A 
ATOM     21  C   UNL     1       3.719   2.453  20.223  0.00  0.00    +0.000 A 
ATOM     22  C   UNL     1       2.922   2.380  21.364  0.00  0.00    +0.000 A 
BRANCH  17  23
ATOM     23  O   UNL     1       0.829   2.600  22.431  0.00  0.00    +0.000 OA
ATOM     24  H   UNL     1       1.416   2.318  23.153  0.00  0.00    +0.000 HD
ENDBRANCH  17  23
ENDBRANCH  16  20
ENDBRANCH   1  16
TORSDOF 5
ENDMDL
MODEL 4
REMARK VINA RESULT:      -7.1      4.382      5.192
REMARK  Name = 
REMARK  5 active torsions:
REMARK  status: ('A' for Active; 'I' for Inactive)
REMARK    1  A    between atoms: O_1  and  C_2
REMARK    2  A    between atoms: C_5  and  C_6
REMARK    3  A    between atoms: C_6  and  C_7
REMARK    4  A    between atoms: C_13  and  O_14
REMARK    5  A    between atoms: C_15  and  O_16
REMARK                            x       y       z     vdW  Elec       q    Type
REMARK                         _______ _______ _______ _____ _____    ______ ____
ROOT
ATOM      1  C   UNL     1       4.929   4.145  17.770  0.00  0.00    +0.000 C 
ATOM      2  N   UNL     1       5.810   4.109  18.958  0.00  0.00    +0.000 NA
ATOM      3  C   UNL     1       6.602   5.326  19.094  0.00  0.00    +0.000 C 
ATOM      4  C   UNL     1       7.333   5.810  17.836  0.00  0.00    +0.000 C 
ATOM      5  C   UNL     1       6.866   5.206  16.536  0.00  0.00    +0.000 A 
ATOM      6  C   UNL     1       7.560   5.546  15.359  0.00  0.00    +0.000 A 
ATOM      7  C   UNL     1       7.157   5.011  14.145  0.00  0.00    +0.000 A 
ATOM      8  C   UNL     1       6.092   4.124  14.100  0.00  0.00    +0.000 A 
ATOM      9  C   UNL     1       5.393   3.780  15.254  0.00  0.00    +0.000 A 
ATOM     10  C   UNL     1       5.754   4.331  16.495  0.00  0.00    +0.000 A 
ATOM     11  H   UNL     1       6.418   3.297  18.888  0.00  0.00    +0.000 HD
ENDROOT
BRANCH   7  12
ATOM     12  O   UNL     1       7.766   5.344  12.968  0.00  0.00    +0.000 OA
ATOM     13  H   UNL     1       8.590   5.818  13.177  0.00  0.00    +0.000 HD
ENDBRANCH   7  12
BRANCH   8  14
ATOM     14  O   UNL     1       5.699   3.602  12.900  0.00  0.00    +0.000 OA
ATOM     15  H   UNL     1       5.675   2.635  13.047  0.00  0.00    +0.000 HD
ENDBRANCH   8  14
BRANCH   1  16
ATOM     16  C   UNL     1       4.007   2.892  17.813  0.00  0.00    +0.000 C 
BRANCH  16  20
ATOM     17  C   UNL     1       1.585   2.646  21.377  0.00  0.00    +0.000 A 
ATOM     18  C   UNL     1       2.932   2.309  21.433  0.00  0.00    +0.000 A 
ATOM     19  C   UNL     1       3.710   2.389  20.275  0.00  0.00    +0.000 A 
ATOM     20  C   UNL     1       3.145   2.812  19.060  0.00  0.00    +0.000 A 
ATOM     21  C   UNL     1       1.785   3.145  19.025  0.00  0.00    +0.000 A 
ATOM     22  C   UNL     1       1.010   3.065  20.181  0.00  0.00    +0.000 A 
BRANCH  17  23
ATOM     23  O   UNL     1       0.787   2.581  22.479  0.00  0.00    +0.000 OA
ATOM     24  H   UNL     1       1.350   2.419  23.254  0.00  0.00    +0.000 HD
ENDBRANCH  17  23
ENDBRANCH  16  20
ENDBRANCH   1  16
TORSDOF 5
ENDMDL
MODEL 5
REMARK VINA RESULT:      -7.1      2.440      5.653
REMARK  Name = 
REMARK  5 active torsions:
REMARK  status: ('A' for Active; 'I' for Inactive)
REMARK    1  A    between atoms: O_1  and  C_2
REMARK    2  A    between atoms: C_5  and  C_6
REMARK    3  A    between atoms: C_6  and  C_7
REMARK    4  A    between atoms: C_13  and  O_14
REMARK    5  A    between atoms: C_15  and  O_16
REMARK                            x       y       z     vdW  Elec       q    Type
REMARK                         _______ _______ _______ _____ _____    ______ ____
ROOT
ATOM      1  C   UNL     1       3.746   3.697  17.291  0.00  0.00    +0.000 C 
ATOM      2  N   UNL     1       4.369   2.504  17.903  0.00  0.00    +0.000 NA
ATOM      3  C   UNL     1       3.422   1.738  18.707  0.00  0.00    +0.000 C 
ATOM      4  C   UNL     1       2.572   2.534  19.705  0.00  0.00    +0.000 C 
ATOM      5  C   UNL     1       2.538   4.026  19.490  0.00  0.00    +0.000 A 
ATOM      6  C   UNL     1       1.847   4.817  20.428  0.00  0.00    +0.000 A 
ATOM      7  C   UNL     1       1.793   6.192  20.261  0.00  0.00    +0.000 A 
ATOM      8  C   UNL     1       2.443   6.784  19.188  0.00  0.00    +0.000 A 
ATOM      9  C   UNL     1       3.127   6.016  18.249  0.00  0.00    +0.000 A 
ATOM     10  C   UNL     1       3.172   4.617  18.370  0.00  0.00    +0.000 A 
ATOM     11  H   UNL     1       5.155   2.803  18.474  0.00  0.00    +0.000 HD
ENDROOT
BRANCH   7  12
ATOM     12  O   UNL     1       1.097   7.000  21.115  0.00  0.00    +0.000 OA
ATOM     13  H   UNL     1       0.154   6.949  20.879  0.00  0.00    +0.000 HD
ENDBRANCH   7  12
BRANCH   8  14
ATOM     14  O   UNL     1       2.383   8.140  19.028  0.00  0.00    +0.000 OA
ATOM     15  H   UNL     1       2.343   8.494  19.940  0.00  0.00    +0.000 HD
ENDBRANCH   8  14
BRANCH   1  16
ATOM     16  C   UNL     1       4.781   4.339  16.322  0.00  0.00    +0.000 C 
BRANCH  16  20
ATOM     17  C   UNL     1       7.725   6.812  18.282  0.00  0.00    +0.000 A 
ATOM     18  C   UNL     1       6.905   7.359  17.302  0.00  0.00    +0.000 A 
ATOM     19  C   UNL     1       5.956   6.553  16.670  0.00  0.00    +0.000 A 
ATOM     20  C   UNL     1       5.818   5.199  17.020  0.00  0.00    +0.000 A 
ATOM     21  C   UNL     1       6.655   4.666  18.010  0.00  0.00    +0.000 A 
ATOM     22  C   UNL     1       7.601   5.473  18.640  0.00  0.00    +0.000 A 
BRANCH  17  23
ATOM     23  O   UNL     1       8.665   7.559  18.924  0.00  0.00    +0.000 OA
ATOM     24  H   UNL     1       9.238   7.970  18.255  0.00  0.00    +0.000 HD
ENDBRANCH  17  23
ENDBRANCH  16  20
ENDBRANCH   1  16
TORSDOF 5
ENDMDL
MODEL 6
REMARK VINA RESULT:      -7.1      2.494      5.751
REMARK  Name = 
REMARK  5 active torsions:
REMARK  status: ('A' for Active; 'I' for Inactive)
REMARK    1  A    between atoms: O_1  and  C_2
REMARK    2  A    between atoms: C_5  and  C_6
REMARK    3  A    between atoms: C_6  and  C_7
REMARK    4  A    between atoms: C_13  and  O_14
REMARK    5  A    between atoms: C_15  and  O_16
REMARK                            x       y       z     vdW  Elec       q    Type
REMARK                         _______ _______ _______ _____ _____    ______ ____
ROOT
ATOM      1  C   UNL     1       3.765   3.662  17.217  0.00  0.00    +0.000 C 
ATOM      2  N   UNL     1       4.398   2.451  17.782  0.00  0.00    +0.000 NA
ATOM      3  C   UNL     1       3.466   1.663  18.581  0.00  0.00    +0.000 C 
ATOM      4  C   UNL     1       2.637   2.430  19.618  0.00  0.00    +0.000 C 
ATOM      5  C   UNL     1       2.602   3.928  19.449  0.00  0.00    +0.000 A 
ATOM      6  C   UNL     1       1.930   4.691  20.423  0.00  0.00    +0.000 A 
ATOM      7  C   UNL     1       1.875   6.070  20.298  0.00  0.00    +0.000 A 
ATOM      8  C   UNL     1       2.504   6.693  19.230  0.00  0.00    +0.000 A 
ATOM      9  C   UNL     1       3.169   5.953  18.256  0.00  0.00    +0.000 A 
ATOM     10  C   UNL     1       3.214   4.551  18.335  0.00  0.00    +0.000 A 
ATOM     11  H   UNL     1       5.196   2.733  18.346  0.00  0.00    +0.000 HD
ENDROOT
BRANCH   7  12
ATOM     12  O   UNL     1       1.198   6.853  21.190  0.00  0.00    +0.000 OA
ATOM     13  H   UNL     1       0.351   7.110  20.784  0.00  0.00    +0.000 HD
ENDBRANCH   7  12
BRANCH   8  14
ATOM     14  O   UNL     1       2.444   8.053  19.112  0.00  0.00    +0.000 OA
ATOM     15  H   UNL     1       3.267   8.374  19.535  0.00  0.00    +0.000 HD
ENDBRANCH   8  14
BRANCH   1  16
ATOM     16  C   UNL     1       4.781   4.332  16.248  0.00  0.00    +0.000 C 
BRANCH  16  20
ATOM     17  C   UNL     1       7.722   6.764  18.264  0.00  0.00    +0.000 A 
ATOM     18  C   UNL     1       7.619   5.411  18.567  0.00  0.00    +0.000 A 
ATOM     19  C   UNL     1       6.663   4.630  17.913  0.00  0.00    +0.000 A 
ATOM     20  C   UNL     1       5.813   5.197  16.948  0.00  0.00    +0.000 A 
ATOM     21  C   UNL     1       5.933   6.563  16.657  0.00  0.00    +0.000 A 
ATOM     22  C   UNL     1       6.887   7.340  17.311  0.00  0.00    +0.000 A 
BRANCH  17  23
ATOM     23  O   UNL     1       8.637   7.564  18.877  0.00  0.00    +0.000 OA
ATOM     24  H   UNL     1       9.096   7.040  19.556  0.00  0.00    +0.000 HD
ENDBRANCH  17  23
ENDBRANCH  16  20
ENDBRANCH   1  16
TORSDOF 5
ENDMDL
MODEL 7
REMARK VINA RESULT:      -6.8      3.527      7.149
REMARK  Name = 
REMARK  5 active torsions:
REMARK  status: ('A' for Active; 'I' for Inactive)
REMARK    1  A    between atoms: O_1  and  C_2
REMARK    2  A    between atoms: C_5  and  C_6
REMARK    3  A    between atoms: C_6  and  C_7
REMARK    4  A    between atoms: C_13  and  O_14
REMARK    5  A    between atoms: C_15  and  O_16
REMARK                            x       y       z     vdW  Elec       q    Type
REMARK                         _______ _______ _______ _____ _____    ______ ____
ROOT
ATOM      1  C   UNL     1       5.093   5.395  18.008  0.00  0.00    +0.000 C 
ATOM      2  N   UNL     1       4.864   6.566  17.134  0.00  0.00    +0.000 NA
ATOM      3  C   UNL     1       3.745   7.384  17.588  0.00  0.00    +0.000 C 
ATOM      4  C   UNL     1       2.447   6.640  17.924  0.00  0.00    +0.000 C 
ATOM      5  C   UNL     1       2.576   5.148  18.104  0.00  0.00    +0.000 A 
ATOM      6  C   UNL     1       1.403   4.402  18.324  0.00  0.00    +0.000 A 
ATOM      7  C   UNL     1       1.485   3.028  18.497  0.00  0.00    +0.000 A 
ATOM      8  C   UNL     1       2.716   2.395  18.423  0.00  0.00    +0.000 A 
ATOM      9  C   UNL     1       3.886   3.118  18.210  0.00  0.00    +0.000 A 
ATOM     10  C   UNL     1       3.842   4.516  18.065  0.00  0.00    +0.000 A 
ATOM     11  H   UNL     1       4.700   6.237  16.186  0.00  0.00    +0.000 HD
ENDROOT
BRANCH   7  12
ATOM     12  O   UNL     1       0.383   2.264  18.760  0.00  0.00    +0.000 OA
ATOM     13  H   UNL     1       0.184   1.737  17.966  0.00  0.00    +0.000 HD
ENDBRANCH   7  12
BRANCH   8  14
ATOM     14  O   UNL     1       2.790   1.041  18.597  0.00  0.00    +0.000 OA
ATOM     15  H   UNL     1       3.400   0.923  19.354  0.00  0.00    +0.000 HD
ENDBRANCH   8  14
BRANCH   1  16
ATOM     16  C   UNL     1       6.403   4.695  17.546  0.00  0.00    +0.000 C 
BRANCH  16  20
ATOM     17  C   UNL     1       6.747   4.294  13.263  0.00  0.00    +0.000 A 
ATOM     18  C   UNL     1       7.606   5.145  13.948  0.00  0.00    +0.000 A 
ATOM     19  C   UNL     1       7.488   5.272  15.334  0.00  0.00    +0.000 A 
ATOM     20  C   UNL     1       6.515   4.544  16.040  0.00  0.00    +0.000 A 
ATOM     21  C   UNL     1       5.658   3.692  15.330  0.00  0.00    +0.000 A 
ATOM     22  C   UNL     1       5.778   3.567  13.947  0.00  0.00    +0.000 A 
BRANCH  17  23
ATOM     23  O   UNL     1       6.824   4.140  11.912  0.00  0.00    +0.000 OA
ATOM     24  H   UNL     1       7.211   3.268  11.725  0.00  0.00    +0.000 HD
ENDBRANCH  17  23
ENDBRANCH  16  20
ENDBRANCH   1  16
TORSDOF 5
ENDMDL
MODEL 8
REMARK VINA RESULT:      -6.8      3.534      7.185
REMARK  Name = 
REMARK  5 active torsions:
REMARK  status: ('A' for Active; 'I' for Inactive)
REMARK    1  A    between atoms: O_1  and  C_2
REMARK    2  A    between atoms: C_5  and  C_6
REMARK    3  A    between atoms: C_6  and  C_7
REMARK    4  A    between atoms: C_13  and  O_14
REMARK    5  A    between atoms: C_15  and  O_16
REMARK                            x       y       z     vdW  Elec       q    Type
REMARK                         _______ _______ _______ _____ _____    ______ ____
ROOT
ATOM      1  C   UNL     1       5.099   5.373  18.013  0.00  0.00    +0.000 C 
ATOM      2  N   UNL     1       4.874   6.543  17.137  0.00  0.00    +0.000 NA
ATOM      3  C   UNL     1       3.753   7.361  17.586  0.00  0.00    +0.000 C 
ATOM      4  C   UNL     1       2.453   6.618  17.916  0.00  0.00    +0.000 C 
ATOM      5  C   UNL     1       2.581   5.126  18.097  0.00  0.00    +0.000 A 
ATOM      6  C   UNL     1       1.407   4.380  18.313  0.00  0.00    +0.000 A 
ATOM      7  C   UNL     1       1.488   3.007  18.486  0.00  0.00    +0.000 A 
ATOM      8  C   UNL     1       2.719   2.373  18.418  0.00  0.00    +0.000 A 
ATOM      9  C   UNL     1       3.890   3.096  18.209  0.00  0.00    +0.000 A 
ATOM     10  C   UNL     1       3.847   4.494  18.064  0.00  0.00    +0.000 A 
ATOM     11  H   UNL     1       4.714   6.215  16.188  0.00  0.00    +0.000 HD
ENDROOT
BRANCH   7  12
ATOM     12  O   UNL     1       0.385   2.242  18.744  0.00  0.00    +0.000 OA
ATOM     13  H   UNL     1      -0.151   2.702  19.414  0.00  0.00    +0.000 HD
ENDBRANCH   7  12
BRANCH   8  14
ATOM     14  O   UNL     1       2.792   1.019  18.592  0.00  0.00    +0.000 OA
ATOM     15  H   UNL     1       1.871   0.745  18.780  0.00  0.00    +0.000 HD
ENDBRANCH   8  14
BRANCH   1  16
ATOM     16  C   UNL     1       6.411   4.672  17.557  0.00  0.00    +0.000 C 
BRANCH  16  20
ATOM     17  C   UNL     1       6.759   4.277  13.273  0.00  0.00    +0.000 A 
ATOM     18  C   UNL     1       5.800   3.541  13.959  0.00  0.00    +0.000 A 
ATOM     19  C   UNL     1       5.694   3.672  15.346  0.00  0.00    +0.000 A 
ATOM     20  C   UNL     1       6.542   4.544  16.050  0.00  0.00    +0.000 A 
ATOM     21  C   UNL     1       7.503   5.276  15.340  0.00  0.00    +0.000 A 
ATOM     22  C   UNL     1       7.606   5.144  13.956  0.00  0.00    +0.000 A 
BRANCH  17  23
ATOM     23  O   UNL     1       6.900   4.180  11.922  0.00  0.00    +0.000 OA
ATOM     24  H   UNL     1       6.580   5.006  11.522  0.00  0.00    +0.000 HD
ENDBRANCH  17  23
ENDBRANCH  16  20
ENDBRANCH   1  16
TORSDOF 5
ENDMDL
MODEL 9
REMARK VINA RESULT:      -6.8      1.588      2.098
REMARK  Name = 
REMARK  5 active torsions:
REMARK  status: ('A' for Active; 'I' for Inactive)
REMARK    1  A    between atoms: O_1  and  C_2
REMARK    2  A    between atoms: C_5  and  C_6
REMARK    3  A    between atoms: C_6  and  C_7
REMARK    4  A    between atoms: C_13  and  O_14
REMARK    5  A    between atoms: C_15  and  O_16
REMARK                            x       y       z     vdW  Elec       q    Type
REMARK                         _______ _______ _______ _____ _____    ______ ____
ROOT
ATOM      1  C   UNL     1       2.918   4.791  19.444  0.00  0.00    +0.000 C 
ATOM      2  N   UNL     1       1.781   4.748  18.500  0.00  0.00    +0.000 NA
ATOM      3  C   UNL     1       1.842   3.590  17.615  0.00  0.00    +0.000 C 
ATOM      4  C   UNL     1       3.185   3.326  16.926  0.00  0.00    +0.000 C 
ATOM      5  C   UNL     1       4.373   4.050  17.510  0.00  0.00    +0.000 A 
ATOM      6  C   UNL     1       5.617   3.915  16.864  0.00  0.00    +0.000 A 
ATOM      7  C   UNL     1       6.730   4.564  17.376  0.00  0.00    +0.000 A 
ATOM      8  C   UNL     1       6.608   5.362  18.502  0.00  0.00    +0.000 A 
ATOM      9  C   UNL     1       5.386   5.503  19.156  0.00  0.00    +0.000 A 
ATOM     10  C   UNL     1       4.245   4.832  18.683  0.00  0.00    +0.000 A 
ATOM     11  H   UNL     1       1.775   5.608  17.957  0.00  0.00    +0.000 HD
ENDROOT
BRANCH   7  12
ATOM     12  O   UNL     1       7.969   4.430  16.814  0.00  0.00    +0.000 OA
ATOM     13  H   UNL     1       8.541   3.967  17.452  0.00  0.00    +0.000 HD
ENDBRANCH   7  12
BRANCH   8  14
ATOM     14  O   UNL     1       7.710   5.997  19.002  0.00  0.00    +0.000 OA
ATOM     15  H   UNL     1       7.833   6.773  18.419  0.00  0.00    +0.000 HD
ENDBRANCH   8  14
BRANCH   1  16
ATOM     16  C   UNL     1       2.669   5.951  20.450  0.00  0.00    +0.000 C 
BRANCH  16  20
ATOM     17  C   UNL     1       1.254   9.596  18.622  0.00  0.00    +0.000 A 
ATOM     18  C   UNL     1       0.941   9.321  19.948  0.00  0.00    +0.000 A 
ATOM     19  C   UNL     1       1.400   8.139  20.533  0.00  0.00    +0.000 A 
ATOM     20  C   UNL     1       2.179   7.230  19.796  0.00  0.00    +0.000 A 
ATOM     21  C   UNL     1       2.483   7.525  18.460  0.00  0.00    +0.000 A 
ATOM     22  C   UNL     1       2.024   8.706  17.879  0.00  0.00    +0.000 A 
BRANCH  17  23
ATOM     23  O   UNL     1       0.827  10.734  18.009  0.00  0.00    +0.000 OA
ATOM     24  H   UNL     1       1.428  11.458  18.255  0.00  0.00    +0.000 HD
ENDBRANCH  17  23
ENDBRANCH  16  20
ENDBRANCH   1  16
TORSDOF 5
ENDMDL
