MODEL 1
REMARK VINA RESULT:      -7.7      0.000      0.000
REMARK  Name = 
REMARK  9 active torsions:
REMARK  status: ('A' for Active; 'I' for Inactive)
REMARK    1  A    between atoms: N_1  and  C_2
REMARK    2  A    between atoms: C_3  and  N_4
REMARK    3  A    between atoms: N_4  and  C_5
REMARK    4  A    between atoms: C_5  and  C_6
REMARK    5  A    between atoms: C_6  and  O_7
REMARK    6  A    between atoms: C_8  and  C_10
REMARK    7  A    between atoms: C_11  and  C_12
REMARK    8  A    between atoms: N_22  and  C_23
REMARK    9  A    between atoms: C_23  and  C_24
REMARK                            x       y       z     vdW  Elec       q    Type
REMARK                         _______ _______ _______ _____ _____    ______ ____
ROOT
ATOM      1  C   UNL     1       4.994   4.346  17.185  0.00  0.00    +0.000 A 
ATOM      2  C   UNL     1       5.193   4.313  18.531  0.00  0.00    +0.000 A 
ATOM      3  C   UNL     1       6.446   4.961  19.044  0.00  0.00    +0.000 A 
ATOM      4  O   UNL     1       6.606   5.254  20.222  0.00  0.00    +0.000 OA
ATOM      5  N   UNL     1       7.409   5.201  18.110  0.00  0.00    +0.000 N 
ATOM      6  C   UNL     1       7.079   5.573  16.848  0.00  0.00    +0.000 A 
ATOM      7  O   UNL     1       7.828   6.307  16.215  0.00  0.00    +0.000 OA
ATOM      8  N   UNL     1       5.850   5.107  16.385  0.00  0.00    +0.000 N 
ATOM      9  H   UNL     1       8.251   5.635  18.458  0.00  0.00    +0.000 HD
ENDROOT
BRANCH   1  10
ATOM     10  N   UNL     1       3.980   3.600  16.609  0.00  0.00    +0.000 N 
ATOM     11  H   UNL     1       3.449   3.053  17.293  0.00  0.00    +0.000 HD
ATOM     12  H   UNL     1       3.364   4.099  15.977  0.00  0.00    +0.000 HD
ENDBRANCH   1  10
BRANCH   2  13
ATOM     13  N   UNL     1       4.342   3.681  19.450  0.00  0.00    +0.000 N 
ATOM     14  C   UNL     1       3.215   4.283  20.029  0.00  0.00    +0.000 C 
ATOM     15  O   UNL     1       2.432   3.649  20.743  0.00  0.00    +0.000 OA
BRANCH  14  16
ATOM     16  C   UNL     1       2.988   5.744  19.842  0.00  0.00    +0.000 C 
ATOM     17  C   UNL     1       1.943   6.317  20.460  0.00  0.00    +0.000 C 
BRANCH  17  18
ATOM     18  C   UNL     1       1.615   7.677  20.224  0.00  0.00    +0.000 A 
ATOM     19  C   UNL     1       1.055   8.597  21.104  0.00  0.00    +0.000 A 
ATOM     20  C   UNL     1       0.847   9.804  20.395  0.00  0.00    +0.000 A 
ATOM     21  C   UNL     1       1.304   9.575  19.122  0.00  0.00    +0.000 A 
ATOM     22  O   UNL     1       1.775   8.311  19.010  0.00  0.00    +0.000 OA
ENDBRANCH  17  18
ENDBRANCH  14  16
BRANCH  13  23
ATOM     23  C   UNL     1       4.441   2.244  19.771  0.00  0.00    +0.000 C 
BRANCH  23  24
ATOM     24  C   UNL     1       3.786   1.176  18.891  0.00  0.00    +0.000 C 
BRANCH  24  25
ATOM     25  O   UNL     1       2.579   1.647  18.301  0.00  0.00    +0.000 OA
ATOM     26  H   UNL     1       2.573   1.322  17.382  0.00  0.00    +0.000 HD
ENDBRANCH  24  25
ENDBRANCH  23  24
ENDBRANCH  13  23
ENDBRANCH   2  13
BRANCH   8  27
ATOM     27  C   UNL     1       5.436   5.573  15.057  0.00  0.00    +0.000 C 
BRANCH  27  28
ATOM     28  C   UNL     1       5.889   4.747  13.875  0.00  0.00    +0.000 A 
ATOM     29  C   UNL     1       5.108   3.731  13.309  0.00  0.00    +0.000 A 
ATOM     30  C   UNL     1       5.534   3.066  12.158  0.00  0.00    +0.000 A 
ATOM     31  C   UNL     1       6.753   3.394  11.569  0.00  0.00    +0.000 A 
ATOM     32  C   UNL     1       7.566   4.363  12.150  0.00  0.00    +0.000 A 
ATOM     33  C   UNL     1       7.139   5.031  13.299  0.00  0.00    +0.000 A 
ENDBRANCH  27  28
ENDBRANCH   8  27
TORSDOF 9
ENDMDL
MODEL 2
REMARK VINA RESULT:      -7.5      0.685      1.300
REMARK  Name = 
REMARK  9 active torsions:
REMARK  status: ('A' for Active; 'I' for Inactive)
REMARK    1  A    between atoms: N_1  and  C_2
REMARK    2  A    between atoms: C_3  and  N_4
REMARK    3  A    between atoms: N_4  and  C_5
REMARK    4  A    between atoms: C_5  and  C_6
REMARK    5  A    between atoms: C_6  and  O_7
REMARK    6  A    between atoms: C_8  and  C_10
REMARK    7  A    between atoms: C_11  and  C_12
REMARK    8  A    between atoms: N_22  and  C_23
REMARK    9  A    between atoms: C_23  and  C_24
REMARK                            x       y       z     vdW  Elec       q    Type
REMARK                         _______ _______ _______ _____ _____    ______ ____
ROOT
ATOM      1  C   UNL     1       4.924   4.415  17.095  0.00  0.00    +0.000 A 
ATOM      2  C   UNL     1       5.187   4.405  18.430  0.00  0.00    +0.000 A 
ATOM      3  C   UNL     1       6.512   4.961  18.860  0.00  0.00    +0.000 A 
ATOM      4  O   UNL     1       6.755   5.274  20.019  0.00  0.00    +0.000 OA
ATOM      5  N   UNL     1       7.443   5.093  17.875  0.00  0.00    +0.000 N 
ATOM      6  C   UNL     1       7.082   5.454  16.618  0.00  0.00    +0.000 A 
ATOM      7  O   UNL     1       7.856   6.105  15.926  0.00  0.00    +0.000 OA
ATOM      8  N   UNL     1       5.798   5.079  16.230  0.00  0.00    +0.000 N 
ATOM      9  H   UNL     1       8.335   5.465  18.167  0.00  0.00    +0.000 HD
ENDROOT
BRANCH   1  10
ATOM     10  N   UNL     1       3.824   3.740  16.592  0.00  0.00    +0.000 N 
ATOM     11  H   UNL     1       3.059   4.367  16.326  0.00  0.00    +0.000 HD
ATOM     12  H   UNL     1       4.013   3.060  15.866  0.00  0.00    +0.000 HD
ENDBRANCH   1  10
BRANCH   2  13
ATOM     13  N   UNL     1       4.333   3.873  19.409  0.00  0.00    +0.000 N 
ATOM     14  C   UNL     1       3.278   4.577  20.006  0.00  0.00    +0.000 C 
ATOM     15  O   UNL     1       2.483   4.030  20.778  0.00  0.00    +0.000 OA
BRANCH  14  16
ATOM     16  C   UNL     1       3.145   6.041  19.765  0.00  0.00    +0.000 C 
ATOM     17  C   UNL     1       1.983   6.512  19.285  0.00  0.00    +0.000 C 
BRANCH  17  18
ATOM     18  C   UNL     1       1.843   7.879  18.930  0.00  0.00    +0.000 A 
ATOM     19  C   UNL     1       2.323   8.534  17.801  0.00  0.00    +0.000 A 
ATOM     20  C   UNL     1       1.995   9.905  17.922  0.00  0.00    +0.000 A 
ATOM     21  C   UNL     1       1.315  10.024  19.107  0.00  0.00    +0.000 A 
ATOM     22  O   UNL     1       1.208   8.819  19.714  0.00  0.00    +0.000 OA
ENDBRANCH  17  18
ENDBRANCH  14  16
BRANCH  13  23
ATOM     23  C   UNL     1       4.346   2.447  19.788  0.00  0.00    +0.000 C 
BRANCH  23  24
ATOM     24  C   UNL     1       3.881   1.353  18.823  0.00  0.00    +0.000 C 
BRANCH  24  25
ATOM     25  O   UNL     1       2.550   1.583  18.370  0.00  0.00    +0.000 OA
ATOM     26  H   UNL     1       2.146   2.208  18.999  0.00  0.00    +0.000 HD
ENDBRANCH  24  25
ENDBRANCH  23  24
ENDBRANCH  13  23
ENDBRANCH   2  13
BRANCH   8  27
ATOM     27  C   UNL     1       5.357   5.539  14.908  0.00  0.00    +0.000 C 
BRANCH  27  28
ATOM     28  C   UNL     1       5.827   4.736  13.717  0.00  0.00    +0.000 A 
ATOM     29  C   UNL     1       7.071   4.934  13.105  0.00  0.00    +0.000 A 
ATOM     30  C   UNL     1       7.494   4.098  12.069  0.00  0.00    +0.000 A 
ATOM     31  C   UNL     1       6.671   3.067  11.620  0.00  0.00    +0.000 A 
ATOM     32  C   UNL     1       5.409   2.892  12.180  0.00  0.00    +0.000 A 
ATOM     33  C   UNL     1       4.987   3.725  13.218  0.00  0.00    +0.000 A 
ENDBRANCH  27  28
ENDBRANCH   8  27
TORSDOF 9
ENDMDL
MODEL 3
REMARK VINA RESULT:      -6.9      2.780      6.879
REMARK  Name = 
REMARK  9 active torsions:
REMARK  status: ('A' for Active; 'I' for Inactive)
REMARK    1  A    between atoms: N_1  and  C_2
REMARK    2  A    between atoms: C_3  and  N_4
REMARK    3  A    between atoms: N_4  and  C_5
REMARK    4  A    between atoms: C_5  and  C_6
REMARK    5  A    between atoms: C_6  and  O_7
REMARK    6  A    between atoms: C_8  and  C_10
REMARK    7  A    between atoms: C_11  and  C_12
REMARK    8  A    between atoms: N_22  and  C_23
REMARK    9  A    between atoms: C_23  and  C_24
REMARK                            x       y       z     vdW  Elec       q    Type
REMARK                         _______ _______ _______ _____ _____    ______ ____
ROOT
ATOM      1  C   UNL     1       3.863   6.725  17.507  0.00  0.00    +0.000 A 
ATOM      2  C   UNL     1       4.621   5.641  17.825  0.00  0.00    +0.000 A 
ATOM      3  C   UNL     1       4.390   5.029  19.176  0.00  0.00    +0.000 A 
ATOM      4  O   UNL     1       4.783   3.908  19.472  0.00  0.00    +0.000 OA
ATOM      5  N   UNL     1       3.717   5.809  20.067  0.00  0.00    +0.000 N 
ATOM      6  C   UNL     1       2.714   6.626  19.660  0.00  0.00    +0.000 A 
ATOM      7  O   UNL     1       1.779   6.865  20.414  0.00  0.00    +0.000 OA
ATOM      8  N   UNL     1       2.818   7.102  18.354  0.00  0.00    +0.000 N 
ATOM      9  H   UNL     1       3.565   5.397  20.976  0.00  0.00    +0.000 HD
ENDROOT
BRANCH   1  10
ATOM     10  N   UNL     1       4.149   7.472  16.376  0.00  0.00    +0.000 N 
ATOM     11  H   UNL     1       5.112   7.349  16.050  0.00  0.00    +0.000 HD
ATOM     12  H   UNL     1       3.488   7.394  15.612  0.00  0.00    +0.000 HD
ENDBRANCH   1  10
BRANCH   2  13
ATOM     13  N   UNL     1       5.621   5.096  17.005  0.00  0.00    +0.000 N 
ATOM     14  C   UNL     1       6.974   5.461  17.057  0.00  0.00    +0.000 C 
ATOM     15  O   UNL     1       7.835   4.871  16.396  0.00  0.00    +0.000 OA
BRANCH  14  16
ATOM     16  C   UNL     1       7.385   6.636  17.875  0.00  0.00    +0.000 C 
ATOM     17  C   UNL     1       7.707   7.777  17.246  0.00  0.00    +0.000 C 
BRANCH  17  18
ATOM     18  C   UNL     1       8.215   8.889  17.968  0.00  0.00    +0.000 A 
ATOM     19  C   UNL     1       8.164  10.236  17.630  0.00  0.00    +0.000 A 
ATOM     20  C   UNL     1       8.865  10.960  18.624  0.00  0.00    +0.000 A 
ATOM     21  C   UNL     1       9.296  10.027  19.532  0.00  0.00    +0.000 A 
ATOM     22  O   UNL     1       8.905   8.786  19.157  0.00  0.00    +0.000 OA
ENDBRANCH  17  18
ENDBRANCH  14  16
BRANCH  13  23
ATOM     23  C   UNL     1       5.382   3.943  16.115  0.00  0.00    +0.000 C 
BRANCH  23  24
ATOM     24  C   UNL     1       5.328   4.099  14.593  0.00  0.00    +0.000 C 
BRANCH  24  25
ATOM     25  O   UNL     1       6.401   3.414  13.956  0.00  0.00    +0.000 OA
ATOM     26  H   UNL     1       6.010   2.642  13.505  0.00  0.00    +0.000 HD
ENDBRANCH  24  25
ENDBRANCH  23  24
ENDBRANCH  13  23
ENDBRANCH   2  13
BRANCH   8  27
ATOM     27  C   UNL     1       1.698   7.914  17.866  0.00  0.00    +0.000 C 
BRANCH  27  28
ATOM     28  C   UNL     1       1.670   9.363  18.296  0.00  0.00    +0.000 A 
ATOM     29  C   UNL     1       2.517  10.338  17.755  0.00  0.00    +0.000 A 
ATOM     30  C   UNL     1       2.382  11.679  18.119  0.00  0.00    +0.000 A 
ATOM     31  C   UNL     1       1.412  12.059  19.043  0.00  0.00    +0.000 A 
ATOM     32  C   UNL     1       0.598  11.096  19.633  0.00  0.00    +0.000 A 
ATOM     33  C   UNL     1       0.731   9.755  19.266  0.00  0.00    +0.000 A 
ENDBRANCH  27  28
ENDBRANCH   8  27
TORSDOF 9
ENDMDL
MODEL 4
REMARK VINA RESULT:      -6.9      1.475      1.939
REMARK  Name = 
REMARK  9 active torsions:
REMARK  status: ('A' for Active; 'I' for Inactive)
REMARK    1  A    between atoms: N_1  and  C_2
REMARK    2  A    between atoms: C_3  and  N_4
REMARK    3  A    between atoms: N_4  and  C_5
REMARK    4  A    between atoms: C_5  and  C_6
REMARK    5  A    between atoms: C_6  and  O_7
REMARK    6  A    between atoms: C_8  and  C_10
REMARK    7  A    between atoms: C_11  and  C_12
REMARK    8  A    between atoms: N_22  and  C_23
REMARK    9  A    between atoms: C_23  and  C_24
REMARK                            x       y       z     vdW  Elec       q    Type
REMARK                         _______ _______ _______ _____ _____    ______ ____
ROOT
ATOM      1  C   UNL     1       5.397   4.849  18.076  0.00  0.00    +0.000 A 
ATOM      2  C   UNL     1       4.083   4.833  18.430  0.00  0.00    +0.000 A 
ATOM      3  C   UNL     1       3.168   5.748  17.670  0.00  0.00    +0.000 A 
ATOM      4  O   UNL     1       1.950   5.628  17.684  0.00  0.00    +0.000 OA
ATOM      5  N   UNL     1       3.781   6.737  16.962  0.00  0.00    +0.000 N 
ATOM      6  C   UNL     1       4.970   6.519  16.345  0.00  0.00    +0.000 A 
ATOM      7  O   UNL     1       5.238   7.116  15.310  0.00  0.00    +0.000 OA
ATOM      8  N   UNL     1       5.792   5.566  16.944  0.00  0.00    +0.000 N 
ATOM      9  H   UNL     1       3.164   7.353  16.453  0.00  0.00    +0.000 HD
ENDROOT
BRANCH   1  10
ATOM     10  N   UNL     1       6.340   4.196  18.853  0.00  0.00    +0.000 N 
ATOM     11  H   UNL     1       5.934   3.459  19.437  0.00  0.00    +0.000 HD
ATOM     12  H   UNL     1       7.167   3.870  18.368  0.00  0.00    +0.000 HD
ENDBRANCH   1  10
BRANCH   2  13
ATOM     13  N   UNL     1       3.546   4.064  19.474  0.00  0.00    +0.000 N 
ATOM     14  C   UNL     1       2.762   4.581  20.516  0.00  0.00    +0.000 C 
ATOM     15  O   UNL     1       2.216   3.848  21.347  0.00  0.00    +0.000 OA
BRANCH  14  16
ATOM     16  C   UNL     1       2.636   6.057  20.675  0.00  0.00    +0.000 C 
ATOM     17  C   UNL     1       1.417   6.582  20.871  0.00  0.00    +0.000 C 
BRANCH  17  18
ATOM     18  C   UNL     1       1.228   7.988  20.914  0.00  0.00    +0.000 A 
ATOM     19  C   UNL     1       0.919   8.787  22.009  0.00  0.00    +0.000 A 
ATOM     20  C   UNL     1       0.760  10.115  21.547  0.00  0.00    +0.000 A 
ATOM     21  C   UNL     1       0.996  10.072  20.197  0.00  0.00    +0.000 A 
ATOM     22  O   UNL     1       1.287   8.809  19.807  0.00  0.00    +0.000 OA
ENDBRANCH  17  18
ENDBRANCH  14  16
BRANCH  13  23
ATOM     23  C   UNL     1       3.602   2.590  19.488  0.00  0.00    +0.000 C 
BRANCH  23  24
ATOM     24  C   UNL     1       3.114   1.754  18.301  0.00  0.00    +0.000 C 
BRANCH  24  25
ATOM     25  O   UNL     1       1.707   1.542  18.350  0.00  0.00    +0.000 OA
ATOM     26  H   UNL     1       1.562   0.767  18.924  0.00  0.00    +0.000 HD
ENDBRANCH  24  25
ENDBRANCH  23  24
ENDBRANCH  13  23
ENDBRANCH   2  13
BRANCH   8  27
ATOM     27  C   UNL     1       7.042   5.252  16.242  0.00  0.00    +0.000 C 
BRANCH  27  28
ATOM     28  C   UNL     1       6.916   4.744  14.824  0.00  0.00    +0.000 A 
ATOM     29  C   UNL     1       5.991   3.765  14.442  0.00  0.00    +0.000 A 
ATOM     30  C   UNL     1       5.852   3.403  13.101  0.00  0.00    +0.000 A 
ATOM     31  C   UNL     1       6.650   4.001  12.128  0.00  0.00    +0.000 A 
ATOM     32  C   UNL     1       7.613   4.935  12.497  0.00  0.00    +0.000 A 
ATOM     33  C   UNL     1       7.750   5.299  13.838  0.00  0.00    +0.000 A 
ENDBRANCH  27  28
ENDBRANCH   8  27
TORSDOF 9
ENDMDL
MODEL 5
REMARK VINA RESULT:      -6.9      1.522      2.167
REMARK  Name = 
REMARK  9 active torsions:
REMARK  status: ('A' for Active; 'I' for Inactive)
REMARK    1  A    between atoms: N_1  and  C_2
REMARK    2  A    between atoms: C_3  and  N_4
REMARK    3  A    between atoms: N_4  and  C_5
REMARK    4  A    between atoms: C_5  and  C_6
REMARK    5  A    between atoms: C_6  and  O_7
REMARK    6  A    between atoms: C_8  and  C_10
REMARK    7  A    between atoms: C_11  and  C_12
REMARK    8  A    between atoms: N_22  and  C_23
REMARK    9  A    between atoms: C_23  and  C_24
REMARK                            x       y       z     vdW  Elec       q    Type
REMARK                         _______ _______ _______ _____ _____    ______ ____
ROOT
ATOM      1  C   UNL     1       5.319   4.812  18.118  0.00  0.00    +0.000 A 
ATOM      2  C   UNL     1       4.003   4.821  18.462  0.00  0.00    +0.000 A 
ATOM      3  C   UNL     1       3.108   5.738  17.681  0.00  0.00    +0.000 A 
ATOM      4  O   UNL     1       1.887   5.636  17.687  0.00  0.00    +0.000 OA
ATOM      5  N   UNL     1       3.741   6.707  16.963  0.00  0.00    +0.000 N 
ATOM      6  C   UNL     1       4.931   6.462  16.360  0.00  0.00    +0.000 A 
ATOM      7  O   UNL     1       5.215   7.039  15.317  0.00  0.00    +0.000 OA
ATOM      8  N   UNL     1       5.734   5.506  16.978  0.00  0.00    +0.000 N 
ATOM      9  H   UNL     1       3.137   7.324  16.441  0.00  0.00    +0.000 HD
ENDROOT
BRANCH   1  10
ATOM     10  N   UNL     1       6.246   4.158  18.912  0.00  0.00    +0.000 N 
ATOM     11  H   UNL     1       5.874   3.902  19.831  0.00  0.00    +0.000 HD
ATOM     12  H   UNL     1       6.731   3.380  18.481  0.00  0.00    +0.000 HD
ENDBRANCH   1  10
BRANCH   2  13
ATOM     13  N   UNL     1       3.446   4.076  19.513  0.00  0.00    +0.000 N 
ATOM     14  C   UNL     1       2.655   4.619  20.536  0.00  0.00    +0.000 C 
ATOM     15  O   UNL     1       2.093   3.906  21.374  0.00  0.00    +0.000 OA
BRANCH  14  16
ATOM     16  C   UNL     1       2.542   6.099  20.668  0.00  0.00    +0.000 C 
ATOM     17  C   UNL     1       1.339   6.632  20.933  0.00  0.00    +0.000 C 
BRANCH  17  18
ATOM     18  C   UNL     1       1.155   8.039  20.954  0.00  0.00    +0.000 A 
ATOM     19  C   UNL     1       0.758   8.843  22.016  0.00  0.00    +0.000 A 
ATOM     20  C   UNL     1       0.646  10.170  21.537  0.00  0.00    +0.000 A 
ATOM     21  C   UNL     1       0.996  10.121  20.212  0.00  0.00    +0.000 A 
ATOM     22  O   UNL     1       1.312   8.854  19.853  0.00  0.00    +0.000 OA
ENDBRANCH  17  18
ENDBRANCH  14  16
BRANCH  13  23
ATOM     23  C   UNL     1       3.487   2.602  19.554  0.00  0.00    +0.000 C 
BRANCH  23  24
ATOM     24  C   UNL     1       3.246   1.755  18.302  0.00  0.00    +0.000 C 
BRANCH  24  25
ATOM     25  O   UNL     1       4.125   0.636  18.246  0.00  0.00    +0.000 OA
ATOM     26  H   UNL     1       4.671   0.670  19.053  0.00  0.00    +0.000 HD
ENDBRANCH  24  25
ENDBRANCH  23  24
ENDBRANCH  13  23
ENDBRANCH   2  13
BRANCH   8  27
ATOM     27  C   UNL     1       6.984   5.163  16.292  0.00  0.00    +0.000 C 
BRANCH  27  28
ATOM     28  C   UNL     1       6.877   4.791  14.831  0.00  0.00    +0.000 A 
ATOM     29  C   UNL     1       7.704   5.337  13.841  0.00  0.00    +0.000 A 
ATOM     30  C   UNL     1       7.627   4.885  12.522  0.00  0.00    +0.000 A 
ATOM     31  C   UNL     1       6.709   3.897  12.172  0.00  0.00    +0.000 A 
ATOM     32  C   UNL     1       5.842   3.384  13.132  0.00  0.00    +0.000 A 
ATOM     33  C   UNL     1       5.921   3.833  14.452  0.00  0.00    +0.000 A 
ENDBRANCH  27  28
ENDBRANCH   8  27
TORSDOF 9
ENDMDL
MODEL 6
REMARK VINA RESULT:      -6.9      1.227      1.742
REMARK  Name = 
REMARK  9 active torsions:
REMARK  status: ('A' for Active; 'I' for Inactive)
REMARK    1  A    between atoms: N_1  and  C_2
REMARK    2  A    between atoms: C_3  and  N_4
REMARK    3  A    between atoms: N_4  and  C_5
REMARK    4  A    between atoms: C_5  and  C_6
REMARK    5  A    between atoms: C_6  and  O_7
REMARK    6  A    between atoms: C_8  and  C_10
REMARK    7  A    between atoms: C_11  and  C_12
REMARK    8  A    between atoms: N_22  and  C_23
REMARK    9  A    between atoms: C_23  and  C_24
REMARK                            x       y       z     vdW  Elec       q    Type
REMARK                         _______ _______ _______ _____ _____    ______ ____
ROOT
ATOM      1  C   UNL     1       4.797   4.054  16.480  0.00  0.00    +0.000 A 
ATOM      2  C   UNL     1       5.010   4.109  17.823  0.00  0.00    +0.000 A 
ATOM      3  C   UNL     1       6.320   4.683  18.276  0.00  0.00    +0.000 A 
ATOM      4  O   UNL     1       6.519   5.052  19.426  0.00  0.00    +0.000 OA
ATOM      5  N   UNL     1       7.288   4.764  17.321  0.00  0.00    +0.000 N 
ATOM      6  C   UNL     1       6.977   5.063  16.035  0.00  0.00    +0.000 A 
ATOM      7  O   UNL     1       7.779   5.677  15.342  0.00  0.00    +0.000 OA
ATOM      8  N   UNL     1       5.707   4.672  15.617  0.00  0.00    +0.000 N 
ATOM      9  H   UNL     1       8.170   5.148  17.629  0.00  0.00    +0.000 HD
ENDROOT
BRANCH   1  10
ATOM     10  N   UNL     1       3.715   3.357  15.970  0.00  0.00    +0.000 N 
ATOM     11  H   UNL     1       3.539   2.477  16.464  0.00  0.00    +0.000 HD
ATOM     12  H   UNL     1       2.862   3.888  15.847  0.00  0.00    +0.000 HD
ENDBRANCH   1  10
BRANCH   2  13
ATOM     13  N   UNL     1       4.117   3.628  18.793  0.00  0.00    +0.000 N 
ATOM     14  C   UNL     1       2.922   4.266  19.154  0.00  0.00    +0.000 C 
ATOM     15  O   UNL     1       2.114   3.745  19.931  0.00  0.00    +0.000 OA
BRANCH  14  16
ATOM     16  C   UNL     1       2.642   5.639  18.650  0.00  0.00    +0.000 C 
ATOM     17  C   UNL     1       2.402   6.616  19.539  0.00  0.00    +0.000 C 
BRANCH  17  18
ATOM     18  C   UNL     1       2.017   7.913  19.110  0.00  0.00    +0.000 A 
ATOM     19  C   UNL     1       2.314   8.551  17.911  0.00  0.00    +0.000 A 
ATOM     20  C   UNL     1       1.773   9.857  17.969  0.00  0.00    +0.000 A 
ATOM     21  C   UNL     1       1.155   9.953  19.190  0.00  0.00    +0.000 A 
ATOM     22  O   UNL     1       1.285   8.794  19.877  0.00  0.00    +0.000 OA
ENDBRANCH  17  18
ENDBRANCH  14  16
BRANCH  13  23
ATOM     23  C   UNL     1       4.258   2.298  19.416  0.00  0.00    +0.000 C 
BRANCH  23  24
ATOM     24  C   UNL     1       4.389   2.128  20.932  0.00  0.00    +0.000 C 
BRANCH  24  25
ATOM     25  O   UNL     1       5.514   1.326  21.276  0.00  0.00    +0.000 OA
ATOM     26  H   UNL     1       6.200   1.936  21.606  0.00  0.00    +0.000 HD
ENDBRANCH  24  25
ENDBRANCH  23  24
ENDBRANCH  13  23
ENDBRANCH   2  13
BRANCH   8  27
ATOM     27  C   UNL     1       5.318   5.067  14.258  0.00  0.00    +0.000 C 
BRANCH  27  28
ATOM     28  C   UNL     1       5.632   4.088  13.150  0.00  0.00    +0.000 A 
ATOM     29  C   UNL     1       6.937   3.721  12.801  0.00  0.00    +0.000 A 
ATOM     30  C   UNL     1       7.165   2.740  11.835  0.00  0.00    +0.000 A 
ATOM     31  C   UNL     1       6.092   2.126  11.192  0.00  0.00    +0.000 A 
ATOM     32  C   UNL     1       4.789   2.519  11.488  0.00  0.00    +0.000 A 
ATOM     33  C   UNL     1       4.561   3.498  12.456  0.00  0.00    +0.000 A 
ENDBRANCH  27  28
ENDBRANCH   8  27
TORSDOF 9
ENDMDL
MODEL 7
REMARK VINA RESULT:      -6.8      9.068     12.529
REMARK  Name = 
REMARK  9 active torsions:
REMARK  status: ('A' for Active; 'I' for Inactive)
REMARK    1  A    between atoms: N_1  and  C_2
REMARK    2  A    between atoms: C_3  and  N_4
REMARK    3  A    between atoms: N_4  and  C_5
REMARK    4  A    between atoms: C_5  and  C_6
REMARK    5  A    between atoms: C_6  and  O_7
REMARK    6  A    between atoms: C_8  and  C_10
REMARK    7  A    between atoms: C_11  and  C_12
REMARK    8  A    between atoms: N_22  and  C_23
REMARK    9  A    between atoms: C_23  and  C_24
REMARK                            x       y       z     vdW  Elec       q    Type
REMARK                         _______ _______ _______ _____ _____    ______ ____
ROOT
ATOM      1  C   UNL     1      -4.058  13.818  21.359  0.00  0.00    +0.000 A 
ATOM      2  C   UNL     1      -3.818  13.608  22.682  0.00  0.00    +0.000 A 
ATOM      3  C   UNL     1      -4.689  12.600  23.373  0.00  0.00    +0.000 A 
ATOM      4  O   UNL     1      -4.404  12.112  24.459  0.00  0.00    +0.000 OA
ATOM      5  N   UNL     1      -5.835  12.264  22.717  0.00  0.00    +0.000 N 
ATOM      6  C   UNL     1      -5.861  12.170  21.363  0.00  0.00    +0.000 A 
ATOM      7  O   UNL     1      -6.615  11.370  20.823  0.00  0.00    +0.000 OA
ATOM      8  N   UNL     1      -4.960  12.989  20.686  0.00  0.00    +0.000 N 
ATOM      9  H   UNL     1      -6.420  11.588  23.185  0.00  0.00    +0.000 HD
ENDROOT
BRANCH   1  10
ATOM     10  N   UNL     1      -3.447  14.868  20.694  0.00  0.00    +0.000 N 
ATOM     11  H   UNL     1      -2.465  14.680  20.470  0.00  0.00    +0.000 HD
ATOM     12  H   UNL     1      -3.945  15.238  19.894  0.00  0.00    +0.000 HD
ENDBRANCH   1  10
BRANCH   2  13
ATOM     13  N   UNL     1      -2.857  14.294  23.439  0.00  0.00    +0.000 N 
ATOM     14  C   UNL     1      -1.473  14.109  23.316  0.00  0.00    +0.000 C 
ATOM     15  O   UNL     1      -0.663  14.819  23.923  0.00  0.00    +0.000 OA
BRANCH  14  16
ATOM     16  C   UNL     1      -0.954  12.983  22.491  0.00  0.00    +0.000 C 
ATOM     17  C   UNL     1      -1.032  11.736  22.981  0.00  0.00    +0.000 C 
BRANCH  17  18
ATOM     18  C   UNL     1      -0.450  10.643  22.288  0.00  0.00    +0.000 A 
ATOM     19  C   UNL     1      -0.520   9.288  22.593  0.00  0.00    +0.000 A 
ATOM     20  C   UNL     1       0.276   8.590  21.654  0.00  0.00    +0.000 A 
ATOM     21  C   UNL     1       0.782   9.544  20.809  0.00  0.00    +0.000 A 
ATOM     22  O   UNL     1       0.347  10.774  21.170  0.00  0.00    +0.000 OA
ENDBRANCH  17  18
ENDBRANCH  14  16
BRANCH  13  23
ATOM     23  C   UNL     1      -3.199  15.422  24.328  0.00  0.00    +0.000 C 
BRANCH  23  24
ATOM     24  C   UNL     1      -4.378  16.352  24.030  0.00  0.00    +0.000 C 
BRANCH  24  25
ATOM     25  O   UNL     1      -5.594  15.854  24.580  0.00  0.00    +0.000 OA
ATOM     26  H   UNL     1      -5.639  16.181  25.497  0.00  0.00    +0.000 HD
ENDBRANCH  24  25
ENDBRANCH  23  24
ENDBRANCH  13  23
ENDBRANCH   2  13
BRANCH   8  27
ATOM     27  C   UNL     1      -4.911  12.836  19.228  0.00  0.00    +0.000 C 
BRANCH  27  28
ATOM     28  C   UNL     1      -3.961  11.793  18.685  0.00  0.00    +0.000 A 
ATOM     29  C   UNL     1      -4.378  10.725  17.881  0.00  0.00    +0.000 A 
ATOM     30  C   UNL     1      -3.444   9.847  17.327  0.00  0.00    +0.000 A 
ATOM     31  C   UNL     1      -2.086  10.013  17.587  0.00  0.00    +0.000 A 
ATOM     32  C   UNL     1      -1.659  11.036  18.429  0.00  0.00    +0.000 A 
ATOM     33  C   UNL     1      -2.592  11.917  18.980  0.00  0.00    +0.000 A 
ENDBRANCH  27  28
ENDBRANCH   8  27
TORSDOF 9
ENDMDL
MODEL 8
REMARK VINA RESULT:      -6.8      0.912      1.112
REMARK  Name = 
REMARK  9 active torsions:
REMARK  status: ('A' for Active; 'I' for Inactive)
REMARK    1  A    between atoms: N_1  and  C_2
REMARK    2  A    between atoms: C_3  and  N_4
REMARK    3  A    between atoms: N_4  and  C_5
REMARK    4  A    between atoms: C_5  and  C_6
REMARK    5  A    between atoms: C_6  and  O_7
REMARK    6  A    between atoms: C_8  and  C_10
REMARK    7  A    between atoms: C_11  and  C_12
REMARK    8  A    between atoms: N_22  and  C_23
REMARK    9  A    between atoms: C_23  and  C_24
REMARK                            x       y       z     vdW  Elec       q    Type
REMARK                         _______ _______ _______ _____ _____    ______ ____
ROOT
ATOM      1  C   UNL     1       4.703   4.222  16.764  0.00  0.00    +0.000 A 
ATOM      2  C   UNL     1       4.776   4.222  18.123  0.00  0.00    +0.000 A 
ATOM      3  C   UNL     1       6.013   4.813  18.732  0.00  0.00    +0.000 A 
ATOM      4  O   UNL     1       6.082   5.135  19.912  0.00  0.00    +0.000 OA
ATOM      5  N   UNL     1       7.070   4.965  17.887  0.00  0.00    +0.000 N 
ATOM      6  C   UNL     1       6.881   5.314  16.589  0.00  0.00    +0.000 A 
ATOM      7  O   UNL     1       7.728   5.982  16.009  0.00  0.00    +0.000 OA
ATOM      8  N   UNL     1       5.674   4.905  16.027  0.00  0.00    +0.000 N 
ATOM      9  H   UNL     1       7.902   5.361  18.299  0.00  0.00    +0.000 HD
ENDROOT
BRANCH   1  10
ATOM     10  N   UNL     1       3.702   3.518  16.116  0.00  0.00    +0.000 N 
ATOM     11  H   UNL     1       2.763   3.784  16.426  0.00  0.00    +0.000 HD
ATOM     12  H   UNL     1       3.762   3.487  15.106  0.00  0.00    +0.000 HD
ENDBRANCH   1  10
BRANCH   2  13
ATOM     13  N   UNL     1       3.806   3.671  18.976  0.00  0.00    +0.000 N 
ATOM     14  C   UNL     1       2.563   4.262  19.246  0.00  0.00    +0.000 C 
ATOM     15  O   UNL     1       1.698   3.684  19.912  0.00  0.00    +0.000 OA
BRANCH  14  16
ATOM     16  C   UNL     1       2.296   5.652  18.784  0.00  0.00    +0.000 C 
ATOM     17  C   UNL     1       2.327   6.648  19.684  0.00  0.00    +0.000 C 
BRANCH  17  18
ATOM     18  C   UNL     1       1.967   7.971  19.319  0.00  0.00    +0.000 A 
ATOM     19  C   UNL     1       1.251   8.907  20.056  0.00  0.00    +0.000 A 
ATOM     20  C   UNL     1       1.081  10.057  19.249  0.00  0.00    +0.000 A 
ATOM     21  C   UNL     1       1.714   9.780  18.064  0.00  0.00    +0.000 A 
ATOM     22  O   UNL     1       2.257   8.540  18.097  0.00  0.00    +0.000 OA
ENDBRANCH  17  18
ENDBRANCH  14  16
BRANCH  13  23
ATOM     23  C   UNL     1       3.922   2.314  19.543  0.00  0.00    +0.000 C 
BRANCH  23  24
ATOM     24  C   UNL     1       4.329   2.084  21.001  0.00  0.00    +0.000 C 
BRANCH  24  25
ATOM     25  O   UNL     1       3.231   2.269  21.889  0.00  0.00    +0.000 OA
ATOM     26  H   UNL     1       3.600   2.263  22.792  0.00  0.00    +0.000 HD
ENDBRANCH  24  25
ENDBRANCH  23  24
ENDBRANCH  13  23
ENDBRANCH   2  13
BRANCH   8  27
ATOM     27  C   UNL     1       5.412   5.350  14.653  0.00  0.00    +0.000 C 
BRANCH  27  28
ATOM     28  C   UNL     1       5.787   4.393  13.545  0.00  0.00    +0.000 A 
ATOM     29  C   UNL     1       4.874   3.509  12.957  0.00  0.00    +0.000 A 
ATOM     30  C   UNL     1       5.251   2.716  11.872  0.00  0.00    +0.000 A 
ATOM     31  C   UNL     1       6.550   2.782  11.373  0.00  0.00    +0.000 A 
ATOM     32  C   UNL     1       7.486   3.614  11.981  0.00  0.00    +0.000 A 
ATOM     33  C   UNL     1       7.108   4.410  13.065  0.00  0.00    +0.000 A 
ENDBRANCH  27  28
ENDBRANCH   8  27
TORSDOF 9
ENDMDL
MODEL 9
REMARK VINA RESULT:      -6.7      9.079     12.522
REMARK  Name = 
REMARK  9 active torsions:
REMARK  status: ('A' for Active; 'I' for Inactive)
REMARK    1  A    between atoms: N_1  and  C_2
REMARK    2  A    between atoms: C_3  and  N_4
REMARK    3  A    between atoms: N_4  and  C_5
REMARK    4  A    between atoms: C_5  and  C_6
REMARK    5  A    between atoms: C_6  and  O_7
REMARK    6  A    between atoms: C_8  and  C_10
REMARK    7  A    between atoms: C_11  and  C_12
REMARK    8  A    between atoms: N_22  and  C_23
REMARK    9  A    between atoms: C_23  and  C_24
REMARK                            x       y       z     vdW  Elec       q    Type
REMARK                         _______ _______ _______ _____ _____    ______ ____
ROOT
ATOM      1  C   UNL     1      -4.045  13.814  21.271  0.00  0.00    +0.000 A 
ATOM      2  C   UNL     1      -3.779  13.632  22.593  0.00  0.00    +0.000 A 
ATOM      3  C   UNL     1      -4.643  12.649  23.326  0.00  0.00    +0.000 A 
ATOM      4  O   UNL     1      -4.339  12.183  24.417  0.00  0.00    +0.000 OA
ATOM      5  N   UNL     1      -5.805  12.308  22.703  0.00  0.00    +0.000 N 
ATOM      6  C   UNL     1      -5.862  12.183  21.353  0.00  0.00    +0.000 A 
ATOM      7  O   UNL     1      -6.634  11.378  20.848  0.00  0.00    +0.000 OA
ATOM      8  N   UNL     1      -4.969  12.978  20.637  0.00  0.00    +0.000 N 
ATOM      9  H   UNL     1      -6.387  11.649  23.199  0.00  0.00    +0.000 HD
ENDROOT
BRANCH   1  10
ATOM     10  N   UNL     1      -3.439  14.843  20.569  0.00  0.00    +0.000 N 
ATOM     11  H   UNL     1      -3.189  15.638  21.164  0.00  0.00    +0.000 HD
ATOM     12  H   UNL     1      -2.670  14.577  19.965  0.00  0.00    +0.000 HD
ENDBRANCH   1  10
BRANCH   2  13
ATOM     13  N   UNL     1      -2.795  14.327  23.313  0.00  0.00    +0.000 N 
ATOM     14  C   UNL     1      -1.416  14.110  23.182  0.00  0.00    +0.000 C 
ATOM     15  O   UNL     1      -0.586  14.825  23.752  0.00  0.00    +0.000 OA
BRANCH  14  16
ATOM     16  C   UNL     1      -0.930  12.942  22.395  0.00  0.00    +0.000 C 
ATOM     17  C   UNL     1      -0.971  11.724  22.957  0.00  0.00    +0.000 C 
BRANCH  17  18
ATOM     18  C   UNL     1      -0.414  10.598  22.296  0.00  0.00    +0.000 A 
ATOM     19  C   UNL     1       0.542  10.572  21.287  0.00  0.00    +0.000 A 
ATOM     20  C   UNL     1       0.726   9.224  20.898  0.00  0.00    +0.000 A 
ATOM     21  C   UNL     1      -0.111   8.486  21.696  0.00  0.00    +0.000 A 
ATOM     22  O   UNL     1      -0.791   9.295  22.543  0.00  0.00    +0.000 OA
ENDBRANCH  17  18
ENDBRANCH  14  16
BRANCH  13  23
ATOM     23  C   UNL     1      -3.104  15.494  24.162  0.00  0.00    +0.000 C 
BRANCH  23  24
ATOM     24  C   UNL     1      -3.678  16.787  23.574  0.00  0.00    +0.000 C 
BRANCH  24  25
ATOM     25  O   UNL     1      -2.970  17.194  22.408  0.00  0.00    +0.000 OA
ATOM     26  H   UNL     1      -2.332  16.484  22.207  0.00  0.00    +0.000 HD
ENDBRANCH  24  25
ENDBRANCH  23  24
ENDBRANCH  13  23
ENDBRANCH   2  13
BRANCH   8  27
ATOM     27  C   UNL     1      -4.953  12.791  19.182  0.00  0.00    +0.000 C 
BRANCH  27  28
ATOM     28  C   UNL     1      -3.924  11.830  18.632  0.00  0.00    +0.000 A 
ATOM     29  C   UNL     1      -2.569  11.878  18.981  0.00  0.00    +0.000 A 
ATOM     30  C   UNL     1      -1.681  10.905  18.518  0.00  0.00    +0.000 A 
ATOM     31  C   UNL     1      -2.132   9.883  17.685  0.00  0.00    +0.000 A 
ATOM     32  C   UNL     1      -3.465   9.852  17.284  0.00  0.00    +0.000 A 
ATOM     33  C   UNL     1      -4.354  10.823  17.749  0.00  0.00    +0.000 A 
ENDBRANCH  27  28
ENDBRANCH   8  27
TORSDOF 9
ENDMDL
