MODEL 1
REMARK VINA RESULT:      -9.9      0.000      0.000
REMARK  Name = 
REMARK  5 active torsions:
REMARK  status: ('A' for Active; 'I' for Inactive)
REMARK    1  A    between atoms: C_10  and  C_11
REMARK    2  A    between atoms: C_11  and  C_12
REMARK    3  A    between atoms: C_12  and  N_13
REMARK    4  A    between atoms: C_16  and  C_17
REMARK    5  A    between atoms: C_21  and  C_22
REMARK                            x       y       z     vdW  Elec       q    Type
REMARK                         _______ _______ _______ _____ _____    ______ ____
ROOT
ATOM      1  C   UNL     1       2.563   6.344  20.169  0.00  0.00    +0.000 C 
ENDROOT
BRANCH   1  11
ATOM      2  O   UNL     1      -2.690  14.425  21.174  0.00  0.00    +0.000 OA
ATOM      3  C   UNL     1      -1.987  13.606  20.596  0.00  0.00    +0.000 A 
ATOM      4  N   UNL     1      -1.634  13.753  19.280  0.00  0.00    +0.000 N 
ATOM      5  C   UNL     1      -0.841  12.859  18.635  0.00  0.00    +0.000 A 
ATOM      6  N   UNL     1      -0.374  11.806  19.187  0.00  0.00    +0.000 NA
ATOM      7  C   UNL     1      -0.674  11.530  20.533  0.00  0.00    +0.000 A 
ATOM      8  C   UNL     1      -0.220  10.389  21.211  0.00  0.00    +0.000 A 
ATOM      9  N   UNL     1       0.630   9.450  20.546  0.00  0.00    +0.000 N 
ATOM     10  C   UNL     1       1.088   8.256  21.077  0.00  0.00    +0.000 A 
ATOM     11  C   UNL     1       1.878   7.657  20.119  0.00  0.00    +0.000 A 
ATOM     12  C   UNL     1       1.865   8.563  19.046  0.00  0.00    +0.000 A 
ATOM     13  N   UNL     1       1.122   9.630  19.295  0.00  0.00    +0.000 NA
ATOM     14  N   UNL     1      -0.543  10.113  22.518  0.00  0.00    +0.000 NA
ATOM     15  C   UNL     1      -1.310  10.998  23.183  0.00  0.00    +0.000 A 
ATOM     16  C   UNL     1      -1.796  12.158  22.613  0.00  0.00    +0.000 A 
ATOM     17  C   UNL     1      -1.475  12.400  21.278  0.00  0.00    +0.000 A 
ATOM     18  H   UNL     1      -1.987  14.569  18.800  0.00  0.00    +0.000 HD
ENDBRANCH   1  11
BRANCH   1  19
ATOM     19  C   UNL     1       1.592   5.172  20.366  0.00  0.00    +0.000 C 
BRANCH  19  20
ATOM     20  N   UNL     1       1.935   3.995  19.531  0.00  0.00    +0.000 NA
ATOM     21  C   UNL     1       1.801   4.313  18.103  0.00  0.00    +0.000 C 
ATOM     22  C   UNL     1       2.341   3.229  17.165  0.00  0.00    +0.000 C 
ATOM     23  C   UNL     1       3.782   2.815  17.499  0.00  0.00    +0.000 C 
ATOM     24  C   UNL     1       3.797   2.407  18.984  0.00  0.00    +0.000 C 
ATOM     25  C   UNL     1       3.278   3.520  19.897  0.00  0.00    +0.000 C 
BRANCH  23  26
ATOM     26  C   UNL     1       4.872   3.832  17.154  0.00  0.00    +0.000 A 
ATOM     27  C   UNL     1       5.039   4.245  15.822  0.00  0.00    +0.000 A 
ATOM     28  C   UNL     1       6.070   5.117  15.459  0.00  0.00    +0.000 A 
ATOM     29  C   UNL     1       6.959   5.593  16.420  0.00  0.00    +0.000 A 
ATOM     30  C   UNL     1       6.799   5.231  17.761  0.00  0.00    +0.000 A 
ATOM     31  C   UNL     1       5.732   4.389  18.112  0.00  0.00    +0.000 A 
BRANCH  30  32
ATOM     32  C   UNL     1       7.756   5.689  18.833  0.00  0.00    +0.000 C 
ATOM     33  F   UNL     1       8.813   4.854  19.021  0.00  0.00    +0.000 F 
ATOM     34  F   UNL     1       8.287   6.915  18.567  0.00  0.00    +0.000 F 
ATOM     35  F   UNL     1       7.150   5.806  20.048  0.00  0.00    +0.000 F 
ENDBRANCH  30  32
ENDBRANCH  23  26
ENDBRANCH  19  20
ENDBRANCH   1  19
TORSDOF 5
ENDMDL
MODEL 2
REMARK VINA RESULT:      -9.6      1.427      1.685
REMARK  Name = 
REMARK  5 active torsions:
REMARK  status: ('A' for Active; 'I' for Inactive)
REMARK    1  A    between atoms: C_10  and  C_11
REMARK    2  A    between atoms: C_11  and  C_12
REMARK    3  A    between atoms: C_12  and  N_13
REMARK    4  A    between atoms: C_16  and  C_17
REMARK    5  A    between atoms: C_21  and  C_22
REMARK                            x       y       z     vdW  Elec       q    Type
REMARK                         _______ _______ _______ _____ _____    ______ ____
ROOT
ATOM      1  C   UNL     1       1.872   4.867  21.126  0.00  0.00    +0.000 C 
ENDROOT
BRANCH   1  11
ATOM      2  O   UNL     1       0.197  14.241  19.324  0.00  0.00    +0.000 OA
ATOM      3  C   UNL     1       0.655  13.122  19.127  0.00  0.00    +0.000 A 
ATOM      4  N   UNL     1       1.406  12.831  18.018  0.00  0.00    +0.000 N 
ATOM      5  C   UNL     1       1.933  11.599  17.800  0.00  0.00    +0.000 A 
ATOM      6  N   UNL     1       1.762  10.609  18.589  0.00  0.00    +0.000 NA
ATOM      7  C   UNL     1       0.996  10.772  19.758  0.00  0.00    +0.000 A 
ATOM      8  C   UNL     1       0.742   9.736  20.668  0.00  0.00    +0.000 A 
ATOM      9  N   UNL     1       1.306   8.439  20.456  0.00  0.00    +0.000 N 
ATOM     10  C   UNL     1       1.077   7.319  21.237  0.00  0.00    +0.000 A 
ATOM     11  C   UNL     1       1.810   6.284  20.696  0.00  0.00    +0.000 A 
ATOM     12  C   UNL     1       2.470   6.865  19.602  0.00  0.00    +0.000 A 
ATOM     13  N   UNL     1       2.173   8.146  19.454  0.00  0.00    +0.000 NA
ATOM     14  N   UNL     1      -0.032   9.897  21.793  0.00  0.00    +0.000 NA
ATOM     15  C   UNL     1      -0.545  11.118  22.041  0.00  0.00    +0.000 A 
ATOM     16  C   UNL     1      -0.343  12.206  21.216  0.00  0.00    +0.000 A 
ATOM     17  C   UNL     1       0.424  12.009  20.069  0.00  0.00    +0.000 A 
ATOM     18  H   UNL     1       1.563  13.582  17.361  0.00  0.00    +0.000 HD
ENDBRANCH   1  11
BRANCH   1  19
ATOM     19  C   UNL     1       0.945   3.955  20.311  0.00  0.00    +0.000 C 
BRANCH  19  20
ATOM     20  N   UNL     1       1.676   3.149  19.302  0.00  0.00    +0.000 NA
ATOM     21  C   UNL     1       1.589   3.772  17.975  0.00  0.00    +0.000 C 
ATOM     22  C   UNL     1       2.491   3.127  16.918  0.00  0.00    +0.000 C 
ATOM     23  C   UNL     1       3.954   3.013  17.373  0.00  0.00    +0.000 C 
ATOM     24  C   UNL     1       3.947   2.261  18.717  0.00  0.00    +0.000 C 
ATOM     25  C   UNL     1       3.059   2.945  19.759  0.00  0.00    +0.000 C 
BRANCH  23  26
ATOM     26  C   UNL     1       4.746   4.320  17.431  0.00  0.00    +0.000 A 
ATOM     27  C   UNL     1       4.369   5.397  16.613  0.00  0.00    +0.000 A 
ATOM     28  C   UNL     1       5.113   6.581  16.586  0.00  0.00    +0.000 A 
ATOM     29  C   UNL     1       6.252   6.713  17.376  0.00  0.00    +0.000 A 
ATOM     30  C   UNL     1       6.635   5.675  18.230  0.00  0.00    +0.000 A 
ATOM     31  C   UNL     1       5.851   4.511  18.274  0.00  0.00    +0.000 A 
BRANCH  30  32
ATOM     32  C   UNL     1       7.881   5.754  19.077  0.00  0.00    +0.000 C 
ATOM     33  F   UNL     1       8.786   4.771  18.819  0.00  0.00    +0.000 F 
ATOM     34  F   UNL     1       8.546   6.931  18.916  0.00  0.00    +0.000 F 
ATOM     35  F   UNL     1       7.604   5.666  20.409  0.00  0.00    +0.000 F 
ENDBRANCH  30  32
ENDBRANCH  23  26
ENDBRANCH  19  20
ENDBRANCH   1  19
TORSDOF 5
ENDMDL
MODEL 3
REMARK VINA RESULT:      -9.3      4.606      9.965
REMARK  Name = 
REMARK  5 active torsions:
REMARK  status: ('A' for Active; 'I' for Inactive)
REMARK    1  A    between atoms: C_10  and  C_11
REMARK    2  A    between atoms: C_11  and  C_12
REMARK    3  A    between atoms: C_12  and  N_13
REMARK    4  A    between atoms: C_16  and  C_17
REMARK    5  A    between atoms: C_21  and  C_22
REMARK                            x       y       z     vdW  Elec       q    Type
REMARK                         _______ _______ _______ _____ _____    ______ ____
ROOT
ATOM      1  C   UNL     1       1.014  10.340  19.789  0.00  0.00    +0.000 C 
ENDROOT
BRANCH   1  11
ATOM      2  O   UNL     1       4.094   1.195  18.903  0.00  0.00    +0.000 OA
ATOM      3  C   UNL     1       3.914   2.358  18.565  0.00  0.00    +0.000 A 
ATOM      4  N   UNL     1       4.366   2.844  17.366  0.00  0.00    +0.000 N 
ATOM      5  C   UNL     1       4.156   4.127  16.976  0.00  0.00    +0.000 A 
ATOM      6  N   UNL     1       3.543   4.990  17.691  0.00  0.00    +0.000 NA
ATOM      7  C   UNL     1       3.042   4.622  18.953  0.00  0.00    +0.000 A 
ATOM      8  C   UNL     1       2.374   5.508  19.811  0.00  0.00    +0.000 A 
ATOM      9  N   UNL     1       2.132   6.858  19.402  0.00  0.00    +0.000 N 
ATOM     10  C   UNL     1       1.550   7.846  20.177  0.00  0.00    +0.000 A 
ATOM     11  C   UNL     1       1.498   8.992  19.411  0.00  0.00    +0.000 A 
ATOM     12  C   UNL     1       2.050   8.607  18.179  0.00  0.00    +0.000 A 
ATOM     13  N   UNL     1       2.431   7.339  18.169  0.00  0.00    +0.000 NA
ATOM     14  N   UNL     1       1.913   5.148  21.054  0.00  0.00    +0.000 NA
ATOM     15  C   UNL     1       2.090   3.873  21.452  0.00  0.00    +0.000 A 
ATOM     16  C   UNL     1       2.722   2.919  20.678  0.00  0.00    +0.000 A 
ATOM     17  C   UNL     1       3.202   3.319  19.431  0.00  0.00    +0.000 A 
ATOM     18  H   UNL     1       4.864   2.199  16.769  0.00  0.00    +0.000 HD
ENDBRANCH   1  11
BRANCH   1  19
ATOM     19  C   UNL     1       1.058  10.587  21.304  0.00  0.00    +0.000 C 
BRANCH  19  20
ATOM     20  N   UNL     1       0.205  11.725  21.724  0.00  0.00    +0.000 NA
ATOM     21  C   UNL     1       0.098  12.721  20.650  0.00  0.00    +0.000 C 
ATOM     22  C   UNL     1      -0.933  13.822  20.915  0.00  0.00    +0.000 C 
ATOM     23  C   UNL     1      -2.317  13.266  21.285  0.00  0.00    +0.000 C 
ATOM     24  C   UNL     1      -2.112  12.315  22.478  0.00  0.00    +0.000 C 
ATOM     25  C   UNL     1      -1.098  11.211  22.173  0.00  0.00    +0.000 C 
BRANCH  23  26
ATOM     26  C   UNL     1      -3.111  12.624  20.146  0.00  0.00    +0.000 A 
ATOM     27  C   UNL     1      -4.515  12.641  20.181  0.00  0.00    +0.000 A 
ATOM     28  C   UNL     1      -5.272  12.002  19.195  0.00  0.00    +0.000 A 
ATOM     29  C   UNL     1      -4.641  11.329  18.151  0.00  0.00    +0.000 A 
ATOM     30  C   UNL     1      -3.246  11.325  18.063  0.00  0.00    +0.000 A 
ATOM     31  C   UNL     1      -2.504  12.008  19.040  0.00  0.00    +0.000 A 
BRANCH  30  32
ATOM     32  C   UNL     1      -2.515  10.581  16.974  0.00  0.00    +0.000 C 
ATOM     33  F   UNL     1      -2.338  11.303  15.835  0.00  0.00    +0.000 F 
ATOM     34  F   UNL     1      -1.272  10.179  17.362  0.00  0.00    +0.000 F 
ATOM     35  F   UNL     1      -3.169   9.445  16.599  0.00  0.00    +0.000 F 
ENDBRANCH  30  32
ENDBRANCH  23  26
ENDBRANCH  19  20
ENDBRANCH   1  19
TORSDOF 5
ENDMDL
MODEL 4
REMARK VINA RESULT:      -9.2      1.042      1.229
REMARK  Name = 
REMARK  5 active torsions:
REMARK  status: ('A' for Active; 'I' for Inactive)
REMARK    1  A    between atoms: C_10  and  C_11
REMARK    2  A    between atoms: C_11  and  C_12
REMARK    3  A    between atoms: C_12  and  N_13
REMARK    4  A    between atoms: C_16  and  C_17
REMARK    5  A    between atoms: C_21  and  C_22
REMARK                            x       y       z     vdW  Elec       q    Type
REMARK                         _______ _______ _______ _____ _____    ______ ____
ROOT
ATOM      1  C   UNL     1       2.471   7.263  18.773  0.00  0.00    +0.000 C 
ENDROOT
BRANCH   1  11
ATOM      2  O   UNL     1      -2.399  15.008  21.970  0.00  0.00    +0.000 OA
ATOM      3  C   UNL     1      -1.750  14.336  21.178  0.00  0.00    +0.000 A 
ATOM      4  N   UNL     1      -1.432  14.795  19.927  0.00  0.00    +0.000 N 
ATOM      5  C   UNL     1      -0.698  14.065  19.049  0.00  0.00    +0.000 A 
ATOM      6  N   UNL     1      -0.260  12.892  19.301  0.00  0.00    +0.000 NA
ATOM      7  C   UNL     1      -0.530  12.298  20.548  0.00  0.00    +0.000 A 
ATOM      8  C   UNL     1      -0.104  11.010  20.901  0.00  0.00    +0.000 A 
ATOM      9  N   UNL     1       0.685  10.239  19.990  0.00  0.00    +0.000 N 
ATOM     10  C   UNL     1       1.108   8.936  20.188  0.00  0.00    +0.000 A 
ATOM     11  C   UNL     1       1.841   8.569  19.079  0.00  0.00    +0.000 A 
ATOM     12  C   UNL     1       1.833   9.714  18.267  0.00  0.00    +0.000 A 
ATOM     13  N   UNL     1       1.145  10.710  18.803  0.00  0.00    +0.000 NA
ATOM     14  N   UNL     1      -0.397  10.426  22.111  0.00  0.00    +0.000 NA
ATOM     15  C   UNL     1      -1.104  11.143  23.006  0.00  0.00    +0.000 A 
ATOM     16  C   UNL     1      -1.558  12.423  22.762  0.00  0.00    +0.000 A 
ATOM     17  C   UNL     1      -1.269  12.982  21.517  0.00  0.00    +0.000 A 
ATOM     18  H   UNL     1      -1.765  15.716  19.679  0.00  0.00    +0.000 HD
ENDBRANCH   1  11
BRANCH   1  19
ATOM     19  C   UNL     1       2.133   6.181  19.809  0.00  0.00    +0.000 C 
BRANCH  19  20
ATOM     20  N   UNL     1       2.394   4.809  19.310  0.00  0.00    +0.000 NA
ATOM     21  C   UNL     1       2.121   4.717  17.870  0.00  0.00    +0.000 C 
ATOM     22  C   UNL     1       2.568   3.400  17.228  0.00  0.00    +0.000 C 
ATOM     23  C   UNL     1       4.035   3.057  17.529  0.00  0.00    +0.000 C 
ATOM     24  C   UNL     1       4.194   3.081  19.061  0.00  0.00    +0.000 C 
ATOM     25  C   UNL     1       3.766   4.419  19.667  0.00  0.00    +0.000 C 
BRANCH  23  26
ATOM     26  C   UNL     1       5.085   3.906  16.811  0.00  0.00    +0.000 A 
ATOM     27  C   UNL     1       5.547   3.516  15.544  0.00  0.00    +0.000 A 
ATOM     28  C   UNL     1       6.558   4.227  14.890  0.00  0.00    +0.000 A 
ATOM     29  C   UNL     1       7.132   5.345  15.492  0.00  0.00    +0.000 A 
ATOM     30  C   UNL     1       6.670   5.783  16.737  0.00  0.00    +0.000 A 
ATOM     31  C   UNL     1       5.625   5.081  17.357  0.00  0.00    +0.000 A 
BRANCH  30  32
ATOM     32  C   UNL     1       7.284   6.964  17.446  0.00  0.00    +0.000 C 
ATOM     33  F   UNL     1       7.937   6.639  18.595  0.00  0.00    +0.000 F 
ATOM     34  F   UNL     1       8.190   7.624  16.672  0.00  0.00    +0.000 F 
ATOM     35  F   UNL     1       6.352   7.895  17.797  0.00  0.00    +0.000 F 
ENDBRANCH  30  32
ENDBRANCH  23  26
ENDBRANCH  19  20
ENDBRANCH   1  19
TORSDOF 5
ENDMDL
MODEL 5
REMARK VINA RESULT:      -9.2      4.621     10.104
REMARK  Name = 
REMARK  5 active torsions:
REMARK  status: ('A' for Active; 'I' for Inactive)
REMARK    1  A    between atoms: C_10  and  C_11
REMARK    2  A    between atoms: C_11  and  C_12
REMARK    3  A    between atoms: C_12  and  N_13
REMARK    4  A    between atoms: C_16  and  C_17
REMARK    5  A    between atoms: C_21  and  C_22
REMARK                            x       y       z     vdW  Elec       q    Type
REMARK                         _______ _______ _______ _____ _____    ______ ____
ROOT
ATOM      1  C   UNL     1       0.549  10.743  19.658  0.00  0.00    +0.000 C 
ENDROOT
BRANCH   1  11
ATOM      2  O   UNL     1       4.357   1.831  19.538  0.00  0.00    +0.000 OA
ATOM      3  C   UNL     1       3.684   2.761  19.967  0.00  0.00    +0.000 A 
ATOM      4  N   UNL     1       2.942   2.652  21.113  0.00  0.00    +0.000 N 
ATOM      5  C   UNL     1       2.208   3.683  21.606  0.00  0.00    +0.000 A 
ATOM      6  N   UNL     1       2.131   4.826  21.041  0.00  0.00    +0.000 NA
ATOM      7  C   UNL     1       2.835   5.064  19.846  0.00  0.00    +0.000 A 
ATOM      8  C   UNL     1       2.792   6.281  19.150  0.00  0.00    +0.000 A 
ATOM      9  N   UNL     1       2.035   7.378  19.669  0.00  0.00    +0.000 N 
ATOM     10  C   UNL     1       1.855   8.602  19.048  0.00  0.00    +0.000 A 
ATOM     11  C   UNL     1       1.071   9.373  19.880  0.00  0.00    +0.000 A 
ATOM     12  C   UNL     1       0.837   8.550  20.993  0.00  0.00    +0.000 A 
ATOM     13  N   UNL     1       1.407   7.361  20.872  0.00  0.00    +0.000 NA
ATOM     14  N   UNL     1       3.460   6.495  17.968  0.00  0.00    +0.000 NA
ATOM     15  C   UNL     1       4.213   5.493  17.474  0.00  0.00    +0.000 A 
ATOM     16  C   UNL     1       4.334   4.263  18.089  0.00  0.00    +0.000 A 
ATOM     17  C   UNL     1       3.625   4.064  19.273  0.00  0.00    +0.000 A 
ATOM     18  H   UNL     1       2.967   1.762  21.591  0.00  0.00    +0.000 HD
ENDBRANCH   1  11
BRANCH   1  19
ATOM     19  C   UNL     1       1.018  11.740  20.726  0.00  0.00    +0.000 C 
BRANCH  19  20
ATOM     20  N   UNL     1      -0.087  12.578  21.252  0.00  0.00    +0.000 NA
ATOM     21  C   UNL     1      -0.535  13.544  20.241  0.00  0.00    +0.000 C 
ATOM     22  C   UNL     1      -1.812  14.302  20.619  0.00  0.00    +0.000 C 
ATOM     23  C   UNL     1      -2.960  13.368  21.029  0.00  0.00    +0.000 C 
ATOM     24  C   UNL     1      -2.423  12.468  22.156  0.00  0.00    +0.000 C 
ATOM     25  C   UNL     1      -1.165  11.704  21.739  0.00  0.00    +0.000 C 
BRANCH  23  26
ATOM     26  C   UNL     1      -3.618  12.574  19.899  0.00  0.00    +0.000 A 
ATOM     27  C   UNL     1      -5.014  12.417  19.881  0.00  0.00    +0.000 A 
ATOM     28  C   UNL     1      -5.642  11.638  18.905  0.00  0.00    +0.000 A 
ATOM     29  C   UNL     1      -4.888  10.996  17.926  0.00  0.00    +0.000 A 
ATOM     30  C   UNL     1      -3.500  11.161  17.892  0.00  0.00    +0.000 A 
ATOM     31  C   UNL     1      -2.892  11.981  18.855  0.00  0.00    +0.000 A 
BRANCH  30  32
ATOM     32  C   UNL     1      -2.636  10.457  16.876  0.00  0.00    +0.000 C 
ATOM     33  F   UNL     1      -3.162   9.288  16.419  0.00  0.00    +0.000 F 
ATOM     34  F   UNL     1      -2.401  11.221  15.773  0.00  0.00    +0.000 F 
ATOM     35  F   UNL     1      -1.406  10.143  17.375  0.00  0.00    +0.000 F 
ENDBRANCH  30  32
ENDBRANCH  23  26
ENDBRANCH  19  20
ENDBRANCH   1  19
TORSDOF 5
ENDMDL
MODEL 6
REMARK VINA RESULT:      -9.2      0.840      2.011
REMARK  Name = 
REMARK  5 active torsions:
REMARK  status: ('A' for Active; 'I' for Inactive)
REMARK    1  A    between atoms: C_10  and  C_11
REMARK    2  A    between atoms: C_11  and  C_12
REMARK    3  A    between atoms: C_12  and  N_13
REMARK    4  A    between atoms: C_16  and  C_17
REMARK    5  A    between atoms: C_21  and  C_22
REMARK                            x       y       z     vdW  Elec       q    Type
REMARK                         _______ _______ _______ _____ _____    ______ ____
ROOT
ATOM      1  C   UNL     1       2.406   6.653  20.024  0.00  0.00    +0.000 C 
ENDROOT
BRANCH   1  11
ATOM      2  O   UNL     1      -2.301  15.057  21.089  0.00  0.00    +0.000 OA
ATOM      3  C   UNL     1      -1.911  13.939  21.403  0.00  0.00    +0.000 A 
ATOM      4  N   UNL     1      -2.225  13.373  22.611  0.00  0.00    +0.000 N 
ATOM      5  C   UNL     1      -1.812  12.128  22.960  0.00  0.00    +0.000 A 
ATOM      6  N   UNL     1      -1.086  11.390  22.211  0.00  0.00    +0.000 NA
ATOM      7  C   UNL     1      -0.681  11.861  20.949  0.00  0.00    +0.000 A 
ATOM      8  C   UNL     1       0.130  11.126  20.071  0.00  0.00    +0.000 A 
ATOM      9  N   UNL     1       0.557   9.807  20.423  0.00  0.00    +0.000 N 
ATOM     10  C   UNL     1       1.410   9.008  19.681  0.00  0.00    +0.000 A 
ATOM     11  C   UNL     1       1.560   7.821  20.365  0.00  0.00    +0.000 A 
ATOM     12  C   UNL     1       0.747   7.973  21.500  0.00  0.00    +0.000 A 
ATOM     13  N   UNL     1       0.149   9.153  21.539  0.00  0.00    +0.000 NA
ATOM     14  N   UNL     1       0.545  11.606  18.852  0.00  0.00    +0.000 NA
ATOM     15  C   UNL     1       0.127  12.830  18.475  0.00  0.00    +0.000 A 
ATOM     16  C   UNL     1      -0.684  13.627  19.258  0.00  0.00    +0.000 A 
ATOM     17  C   UNL     1      -1.069  13.127  20.502  0.00  0.00    +0.000 A 
ATOM     18  H   UNL     1      -2.792  13.923  23.240  0.00  0.00    +0.000 HD
ENDBRANCH   1  11
BRANCH   1  19
ATOM     19  C   UNL     1       1.853   5.333  20.579  0.00  0.00    +0.000 C 
BRANCH  19  20
ATOM     20  N   UNL     1       2.042   4.195  19.647  0.00  0.00    +0.000 NA
ATOM     21  C   UNL     1       1.869   4.628  18.255  0.00  0.00    +0.000 C 
ATOM     22  C   UNL     1       2.257   3.571  17.215  0.00  0.00    +0.000 C 
ATOM     23  C   UNL     1       3.668   3.005  17.440  0.00  0.00    +0.000 C 
ATOM     24  C   UNL     1       3.716   2.488  18.890  0.00  0.00    +0.000 C 
ATOM     25  C   UNL     1       3.350   3.574  19.904  0.00  0.00    +0.000 C 
BRANCH  23  26
ATOM     26  C   UNL     1       4.830   3.940  17.105  0.00  0.00    +0.000 A 
ATOM     27  C   UNL     1       5.083   4.284  15.767  0.00  0.00    +0.000 A 
ATOM     28  C   UNL     1       6.180   5.078  15.418  0.00  0.00    +0.000 A 
ATOM     29  C   UNL     1       7.050   5.544  16.400  0.00  0.00    +0.000 A 
ATOM     30  C   UNL     1       6.808   5.253  17.745  0.00  0.00    +0.000 A 
ATOM     31  C   UNL     1       5.678   4.489  18.080  0.00  0.00    +0.000 A 
BRANCH  30  32
ATOM     32  C   UNL     1       7.740   5.702  18.842  0.00  0.00    +0.000 C 
ATOM     33  F   UNL     1       8.277   6.936  18.639  0.00  0.00    +0.000 F 
ATOM     34  F   UNL     1       7.129   5.753  20.058  0.00  0.00    +0.000 F 
ATOM     35  F   UNL     1       8.798   4.856  18.997  0.00  0.00    +0.000 F 
ENDBRANCH  30  32
ENDBRANCH  23  26
ENDBRANCH  19  20
ENDBRANCH   1  19
TORSDOF 5
ENDMDL
MODEL 7
REMARK VINA RESULT:      -9.1      2.504      3.917
REMARK  Name = 
REMARK  5 active torsions:
REMARK  status: ('A' for Active; 'I' for Inactive)
REMARK    1  A    between atoms: C_10  and  C_11
REMARK    2  A    between atoms: C_11  and  C_12
REMARK    3  A    between atoms: C_12  and  N_13
REMARK    4  A    between atoms: C_16  and  C_17
REMARK    5  A    between atoms: C_21  and  C_22
REMARK                            x       y       z     vdW  Elec       q    Type
REMARK                         _______ _______ _______ _____ _____    ______ ____
ROOT
ATOM      1  C   UNL     1       2.995   7.475  17.453  0.00  0.00    +0.000 C 
ENDROOT
BRANCH   1  11
ATOM      2  O   UNL     1      -2.440  12.945  23.323  0.00  0.00    +0.000 OA
ATOM      3  C   UNL     1      -1.869  12.634  22.285  0.00  0.00    +0.000 A 
ATOM      4  N   UNL     1      -1.938  13.410  21.158  0.00  0.00    +0.000 N 
ATOM      5  C   UNL     1      -1.294  13.084  20.009  0.00  0.00    +0.000 A 
ATOM      6  N   UNL     1      -0.590  12.027  19.872  0.00  0.00    +0.000 NA
ATOM      7  C   UNL     1      -0.449  11.136  20.952  0.00  0.00    +0.000 A 
ATOM      8  C   UNL     1       0.289   9.945  20.883  0.00  0.00    +0.000 A 
ATOM      9  N   UNL     1       0.985   9.600  19.682  0.00  0.00    +0.000 N 
ATOM     10  C   UNL     1       1.688   8.428  19.463  0.00  0.00    +0.000 A 
ATOM     11  C   UNL     1       2.209   8.494  18.188  0.00  0.00    +0.000 A 
ATOM     12  C   UNL     1       1.794   9.747  17.711  0.00  0.00    +0.000 A 
ATOM     13  N   UNL     1       1.064  10.409  18.596  0.00  0.00    +0.000 NA
ATOM     14  N   UNL     1       0.396   9.066  21.934  0.00  0.00    +0.000 NA
ATOM     15  C   UNL     1      -0.217   9.383  23.092  0.00  0.00    +0.000 A 
ATOM     16  C   UNL     1      -0.954  10.536  23.267  0.00  0.00    +0.000 A 
ATOM     17  C   UNL     1      -1.069  11.398  22.177  0.00  0.00    +0.000 A 
ATOM     18  H   UNL     1      -2.491  14.254  21.217  0.00  0.00    +0.000 HD
ENDBRANCH   1  11
BRANCH   1  19
ATOM     19  C   UNL     1       4.487   7.828  17.357  0.00  0.00    +0.000 C 
BRANCH  19  20
ATOM     20  N   UNL     1       5.364   6.634  17.438  0.00  0.00    +0.000 NA
ATOM     21  C   UNL     1       5.444   6.139  18.818  0.00  0.00    +0.000 C 
ATOM     22  C   UNL     1       6.151   4.787  18.960  0.00  0.00    +0.000 C 
ATOM     23  C   UNL     1       5.575   3.712  18.026  0.00  0.00    +0.000 C 
ATOM     24  C   UNL     1       5.627   4.286  16.598  0.00  0.00    +0.000 C 
ATOM     25  C   UNL     1       4.889   5.622  16.483  0.00  0.00    +0.000 C 
BRANCH  23  26
ATOM     26  C   UNL     1       4.194   3.168  18.396  0.00  0.00    +0.000 A 
ATOM     27  C   UNL     1       3.546   2.272  17.531  0.00  0.00    +0.000 A 
ATOM     28  C   UNL     1       2.254   1.811  17.801  0.00  0.00    +0.000 A 
ATOM     29  C   UNL     1       1.580   2.238  18.943  0.00  0.00    +0.000 A 
ATOM     30  C   UNL     1       2.211   3.101  19.845  0.00  0.00    +0.000 A 
ATOM     31  C   UNL     1       3.524   3.519  19.578  0.00  0.00    +0.000 A 
BRANCH  30  32
ATOM     32  C   UNL     1       1.511   3.622  21.076  0.00  0.00    +0.000 C 
ATOM     33  F   UNL     1       0.891   2.657  21.808  0.00  0.00    +0.000 F 
ATOM     34  F   UNL     1       2.362   4.254  21.931  0.00  0.00    +0.000 F 
ATOM     35  F   UNL     1       0.547   4.536  20.771  0.00  0.00    +0.000 F 
ENDBRANCH  30  32
ENDBRANCH  23  26
ENDBRANCH  19  20
ENDBRANCH   1  19
TORSDOF 5
ENDMDL
MODEL 8
REMARK VINA RESULT:      -9.1      4.592      9.807
REMARK  Name = 
REMARK  5 active torsions:
REMARK  status: ('A' for Active; 'I' for Inactive)
REMARK    1  A    between atoms: C_10  and  C_11
REMARK    2  A    between atoms: C_11  and  C_12
REMARK    3  A    between atoms: C_12  and  N_13
REMARK    4  A    between atoms: C_16  and  C_17
REMARK    5  A    between atoms: C_21  and  C_22
REMARK                            x       y       z     vdW  Elec       q    Type
REMARK                         _______ _______ _______ _____ _____    ______ ____
ROOT
ATOM      1  C   UNL     1      -0.029   9.024  21.261  0.00  0.00    +0.000 C 
ENDROOT
BRANCH   1  11
ATOM      2  O   UNL     1       6.548   3.884  16.337  0.00  0.00    +0.000 OA
ATOM      3  C   UNL     1       5.840   4.849  16.597  0.00  0.00    +0.000 A 
ATOM      4  N   UNL     1       5.872   5.996  15.848  0.00  0.00    +0.000 N 
ATOM      5  C   UNL     1       5.079   7.064  16.117  0.00  0.00    +0.000 A 
ATOM      6  N   UNL     1       4.256   7.101  17.093  0.00  0.00    +0.000 NA
ATOM      7  C   UNL     1       4.137   5.991  17.950  0.00  0.00    +0.000 A 
ATOM      8  C   UNL     1       3.273   5.954  19.054  0.00  0.00    +0.000 A 
ATOM      9  N   UNL     1       2.421   7.068  19.338  0.00  0.00    +0.000 N 
ATOM     10  C   UNL     1       1.578   7.184  20.430  0.00  0.00    +0.000 A 
ATOM     11  C   UNL     1       0.935   8.399  20.324  0.00  0.00    +0.000 A 
ATOM     12  C   UNL     1       1.428   8.947  19.130  0.00  0.00    +0.000 A 
ATOM     13  N   UNL     1       2.314   8.159  18.539  0.00  0.00    +0.000 NA
ATOM     14  N   UNL     1       3.185   4.877  19.903  0.00  0.00    +0.000 NA
ATOM     15  C   UNL     1       3.947   3.797  19.640  0.00  0.00    +0.000 A 
ATOM     16  C   UNL     1       4.817   3.727  18.571  0.00  0.00    +0.000 A 
ATOM     17  C   UNL     1       4.906   4.844  17.741  0.00  0.00    +0.000 A 
ATOM     18  H   UNL     1       6.515   6.015  15.068  0.00  0.00    +0.000 HD
ENDBRANCH   1  11
BRANCH   1  19
ATOM     19  C   UNL     1       0.659   9.773  22.412  0.00  0.00    +0.000 C 
BRANCH  19  20
ATOM     20  N   UNL     1       0.201  11.178  22.535  0.00  0.00    +0.000 NA
ATOM     21  C   UNL     1       0.482  11.928  21.304  0.00  0.00    +0.000 C 
ATOM     22  C   UNL     1      -0.149  13.323  21.261  0.00  0.00    +0.000 C 
ATOM     23  C   UNL     1      -1.656  13.306  21.558  0.00  0.00    +0.000 C 
ATOM     24  C   UNL     1      -1.836  12.592  22.910  0.00  0.00    +0.000 C 
ATOM     25  C   UNL     1      -1.220  11.191  22.912  0.00  0.00    +0.000 C 
BRANCH  23  26
ATOM     26  C   UNL     1      -2.553  12.732  20.460  0.00  0.00    +0.000 A 
ATOM     27  C   UNL     1      -3.945  12.893  20.545  0.00  0.00    +0.000 A 
ATOM     28  C   UNL     1      -4.799  12.320  19.598  0.00  0.00    +0.000 A 
ATOM     29  C   UNL     1      -4.279  11.570  18.546  0.00  0.00    +0.000 A 
ATOM     30  C   UNL     1      -2.896  11.421  18.410  0.00  0.00    +0.000 A 
ATOM     31  C   UNL     1      -2.053  12.039  19.347  0.00  0.00    +0.000 A 
BRANCH  30  32
ATOM     32  C   UNL     1      -2.285  10.588  17.311  0.00  0.00    +0.000 C 
ATOM     33  F   UNL     1      -0.994  10.228  17.544  0.00  0.00    +0.000 F 
ATOM     34  F   UNL     1      -2.966   9.427  17.097  0.00  0.00    +0.000 F 
ATOM     35  F   UNL     1      -2.282  11.239  16.113  0.00  0.00    +0.000 F 
ENDBRANCH  30  32
ENDBRANCH  23  26
ENDBRANCH  19  20
ENDBRANCH   1  19
TORSDOF 5
ENDMDL
MODEL 9
REMARK VINA RESULT:      -9.0      1.672      2.109
REMARK  Name = 
REMARK  5 active torsions:
REMARK  status: ('A' for Active; 'I' for Inactive)
REMARK    1  A    between atoms: C_10  and  C_11
REMARK    2  A    between atoms: C_11  and  C_12
REMARK    3  A    between atoms: C_12  and  N_13
REMARK    4  A    between atoms: C_16  and  C_17
REMARK    5  A    between atoms: C_21  and  C_22
REMARK                            x       y       z     vdW  Elec       q    Type
REMARK                         _______ _______ _______ _____ _____    ______ ____
ROOT
ATOM      1  C   UNL     1       2.397   6.469  20.207  0.00  0.00    +0.000 C 
ENDROOT
BRANCH   1  11
ATOM      2  O   UNL     1      -2.538  14.760  21.116  0.00  0.00    +0.000 OA
ATOM      3  C   UNL     1      -1.847  13.918  20.555  0.00  0.00    +0.000 A 
ATOM      4  N   UNL     1      -1.433  14.066  19.258  0.00  0.00    +0.000 N 
ATOM      5  C   UNL     1      -0.653  13.148  18.633  0.00  0.00    +0.000 A 
ATOM      6  N   UNL     1      -0.256  12.067  19.187  0.00  0.00    +0.000 NA
ATOM      7  C   UNL     1      -0.625  11.787  20.516  0.00  0.00    +0.000 A 
ATOM      8  C   UNL     1      -0.249  10.618  21.194  0.00  0.00    +0.000 A 
ATOM      9  N   UNL     1       0.587   9.652  20.551  0.00  0.00    +0.000 N 
ATOM     10  C   UNL     1       0.970   8.432  21.082  0.00  0.00    +0.000 A 
ATOM     11  C   UNL     1       1.773   7.812  20.149  0.00  0.00    +0.000 A 
ATOM     12  C   UNL     1       1.843   8.731  19.091  0.00  0.00    +0.000 A 
ATOM     13  N   UNL     1       1.138   9.827  19.324  0.00  0.00    +0.000 NA
ATOM     14  N   UNL     1      -0.638  10.339  22.483  0.00  0.00    +0.000 NA
ATOM     15  C   UNL     1      -1.394  11.249  23.129  0.00  0.00    +0.000 A 
ATOM     16  C   UNL     1      -1.804  12.436  22.556  0.00  0.00    +0.000 A 
ATOM     17  C   UNL     1      -1.417  12.682  21.240  0.00  0.00    +0.000 A 
ATOM     18  H   UNL     1      -1.730  14.903  18.776  0.00  0.00    +0.000 HD
ENDBRANCH   1  11
BRANCH   1  19
ATOM     19  C   UNL     1       1.404   5.366  20.598  0.00  0.00    +0.000 C 
BRANCH  19  20
ATOM     20  N   UNL     1       1.692   4.072  19.932  0.00  0.00    +0.000 NA
ATOM     21  C   UNL     1       1.640   4.215  18.472  0.00  0.00    +0.000 C 
ATOM     22  C   UNL     1       2.135   2.987  17.702  0.00  0.00    +0.000 C 
ATOM     23  C   UNL     1       3.527   2.520  18.156  0.00  0.00    +0.000 C 
ATOM     24  C   UNL     1       3.451   2.303  19.679  0.00  0.00    +0.000 C 
ATOM     25  C   UNL     1       2.980   3.556  20.420  0.00  0.00    +0.000 C 
BRANCH  23  26
ATOM     26  C   UNL     1       4.702   3.407  17.742  0.00  0.00    +0.000 A 
ATOM     27  C   UNL     1       5.473   4.045  18.728  0.00  0.00    +0.000 A 
ATOM     28  C   UNL     1       6.509   4.919  18.385  0.00  0.00    +0.000 A 
ATOM     29  C   UNL     1       6.795   5.177  17.046  0.00  0.00    +0.000 A 
ATOM     30  C   UNL     1       6.073   4.530  16.039  0.00  0.00    +0.000 A 
ATOM     31  C   UNL     1       5.065   3.623  16.404  0.00  0.00    +0.000 A 
BRANCH  30  32
ATOM     32  C   UNL     1       6.320   4.803  14.576  0.00  0.00    +0.000 C 
ATOM     33  F   UNL     1       7.599   5.170  14.292  0.00  0.00    +0.000 F 
ATOM     34  F   UNL     1       6.055   3.721  13.792  0.00  0.00    +0.000 F 
ATOM     35  F   UNL     1       5.529   5.806  14.099  0.00  0.00    +0.000 F 
ENDBRANCH  30  32
ENDBRANCH  23  26
ENDBRANCH  19  20
ENDBRANCH   1  19
TORSDOF 5
ENDMDL
