MODEL 1
REMARK VINA RESULT:      -7.1      0.000      0.000
REMARK  Name = 
REMARK  3 active torsions:
REMARK  status: ('A' for Active; 'I' for Inactive)
REMARK    1  A    between atoms: C_5  and  C_6
REMARK    2  A    between atoms: C_6  and  C_7
REMARK    3  A    between atoms: C_9  and  C_10
REMARK                            x       y       z     vdW  Elec       q    Type
REMARK                         _______ _______ _______ _____ _____    ______ ____
ROOT
ATOM      1  C   UNL     1       7.777   6.863  18.152  0.00  0.00    +0.000 A 
ATOM      2  N   UNL     1       8.538   7.715  18.801  0.00  0.00    +0.000 NA
ATOM      3  C   UNL     1       8.289   8.903  18.144  0.00  0.00    +0.000 A 
ATOM      4  N   UNL     1       7.434   8.785  17.114  0.00  0.00    +0.000 NA
ATOM      5  O   UNL     1       7.092   7.433  17.119  0.00  0.00    +0.000 OA
ENDROOT
BRANCH   3   6
ATOM      6  C   UNL     1       8.858  10.166  18.601  0.00  0.00    +0.000 A 
ATOM      7  C   UNL     1       9.471  10.244  19.854  0.00  0.00    +0.000 A 
ATOM      8  C   UNL     1       9.955  11.469  20.280  0.00  0.00    +0.000 A 
ATOM      9  N   UNL     1       9.873  12.603  19.551  0.00  0.00    +0.000 NA
ATOM     10  C   UNL     1       9.282  12.505  18.341  0.00  0.00    +0.000 A 
ATOM     11  C   UNL     1       8.769  11.326  17.826  0.00  0.00    +0.000 A 
ENDBRANCH   3   6
BRANCH   1  12
ATOM     12  C   UNL     1       7.453   5.452  18.474  0.00  0.00    +0.000 C 
BRANCH  12  17
ATOM     13 CL   UNL     1       1.615   4.175  17.643  0.00  0.00    +0.000 Cl
ATOM     14  C   UNL     1       3.285   4.503  17.899  0.00  0.00    +0.000 A 
ATOM     15  C   UNL     1       3.689   5.178  19.048  0.00  0.00    +0.000 A 
ATOM     16  C   UNL     1       5.043   5.462  19.247  0.00  0.00    +0.000 A 
ATOM     17  C   UNL     1       5.998   5.083  18.292  0.00  0.00    +0.000 A 
ATOM     18  C   UNL     1       5.578   4.383  17.150  0.00  0.00    +0.000 A 
ATOM     19  C   UNL     1       4.224   4.099  16.952  0.00  0.00    +0.000 A 
ENDBRANCH  12  17
ENDBRANCH   1  12
TORSDOF 3
ENDMDL
MODEL 2
REMARK VINA RESULT:      -7.1      0.073      1.080
REMARK  Name = 
REMARK  3 active torsions:
REMARK  status: ('A' for Active; 'I' for Inactive)
REMARK    1  A    between atoms: C_5  and  C_6
REMARK    2  A    between atoms: C_6  and  C_7
REMARK    3  A    between atoms: C_9  and  C_10
REMARK                            x       y       z     vdW  Elec       q    Type
REMARK                         _______ _______ _______ _____ _____    ______ ____
ROOT
ATOM      1  C   UNL     1       7.798   6.874  18.126  0.00  0.00    +0.000 A 
ATOM      2  N   UNL     1       8.550   7.718  18.796  0.00  0.00    +0.000 NA
ATOM      3  C   UNL     1       8.296   8.917  18.162  0.00  0.00    +0.000 A 
ATOM      4  N   UNL     1       7.448   8.814  17.125  0.00  0.00    +0.000 NA
ATOM      5  O   UNL     1       7.116   7.461  17.100  0.00  0.00    +0.000 OA
ENDROOT
BRANCH   3   6
ATOM      6  C   UNL     1       8.854  10.175  18.647  0.00  0.00    +0.000 A 
ATOM      7  C   UNL     1       8.870  11.299  17.818  0.00  0.00    +0.000 A 
ATOM      8  C   UNL     1       9.453  12.463  18.289  0.00  0.00    +0.000 A 
ATOM      9  N   UNL     1      10.010  12.580  19.513  0.00  0.00    +0.000 NA
ATOM     10  C   UNL     1       9.980  11.484  20.302  0.00  0.00    +0.000 A 
ATOM     11  C   UNL     1       9.418  10.276  19.922  0.00  0.00    +0.000 A 
ENDBRANCH   3   6
BRANCH   1  12
ATOM     12  C   UNL     1       7.481   5.455  18.418  0.00  0.00    +0.000 C 
BRANCH  12  17
ATOM     13 CL   UNL     1       1.634   4.186  17.645  0.00  0.00    +0.000 Cl
ATOM     14  C   UNL     1       3.307   4.512  17.884  0.00  0.00    +0.000 A 
ATOM     15  C   UNL     1       3.728   5.157  19.044  0.00  0.00    +0.000 A 
ATOM     16  C   UNL     1       5.084   5.439  19.229  0.00  0.00    +0.000 A 
ATOM     17  C   UNL     1       6.025   5.088  18.249  0.00  0.00    +0.000 A 
ATOM     18  C   UNL     1       5.588   4.418  17.095  0.00  0.00    +0.000 A 
ATOM     19  C   UNL     1       4.232   4.136  16.912  0.00  0.00    +0.000 A 
ENDBRANCH  12  17
ENDBRANCH   1  12
TORSDOF 3
ENDMDL
MODEL 3
REMARK VINA RESULT:      -7.0      0.111      1.115
REMARK  Name = 
REMARK  3 active torsions:
REMARK  status: ('A' for Active; 'I' for Inactive)
REMARK    1  A    between atoms: C_5  and  C_6
REMARK    2  A    between atoms: C_6  and  C_7
REMARK    3  A    between atoms: C_9  and  C_10
REMARK                            x       y       z     vdW  Elec       q    Type
REMARK                         _______ _______ _______ _____ _____    ______ ____
ROOT
ATOM      1  C   UNL     1       7.782   6.922  18.130  0.00  0.00    +0.000 A 
ATOM      2  N   UNL     1       8.554   7.756  18.791  0.00  0.00    +0.000 NA
ATOM      3  C   UNL     1       8.308   8.959  18.161  0.00  0.00    +0.000 A 
ATOM      4  N   UNL     1       7.445   8.868  17.135  0.00  0.00    +0.000 NA
ATOM      5  O   UNL     1       7.094   7.519  17.114  0.00  0.00    +0.000 OA
ENDROOT
BRANCH   3   6
ATOM      6  C   UNL     1       8.889  10.209  18.640  0.00  0.00    +0.000 A 
ATOM      7  C   UNL     1       9.454  10.274  19.915  0.00  0.00    +0.000 A 
ATOM      8  C   UNL     1       9.950  11.487  20.360  0.00  0.00    +0.000 A 
ATOM      9  N   UNL     1       9.924  12.621  19.628  0.00  0.00    +0.000 NA
ATOM     10  C   UNL     1       9.378  12.537  18.396  0.00  0.00    +0.000 A 
ATOM     11  C   UNL     1       8.858  11.370  17.861  0.00  0.00    +0.000 A 
ENDBRANCH   3   6
BRANCH   1  12
ATOM     12  C   UNL     1       7.451   5.507  18.426  0.00  0.00    +0.000 C 
BRANCH  12  17
ATOM     13 CL   UNL     1       1.682   3.876  17.745  0.00  0.00    +0.000 Cl
ATOM     14  C   UNL     1       3.320   4.377  17.921  0.00  0.00    +0.000 A 
ATOM     15  C   UNL     1       4.249   4.065  16.931  0.00  0.00    +0.000 A 
ATOM     16  C   UNL     1       5.582   4.455  17.083  0.00  0.00    +0.000 A 
ATOM     17  C   UNL     1       5.996   5.148  18.231  0.00  0.00    +0.000 A 
ATOM     18  C   UNL     1       5.043   5.473  19.208  0.00  0.00    +0.000 A 
ATOM     19  C   UNL     1       3.710   5.084  19.056  0.00  0.00    +0.000 A 
ENDBRANCH  12  17
ENDBRANCH   1  12
TORSDOF 3
ENDMDL
MODEL 4
REMARK VINA RESULT:      -7.0      4.960      6.767
REMARK  Name = 
REMARK  3 active torsions:
REMARK  status: ('A' for Active; 'I' for Inactive)
REMARK    1  A    between atoms: C_5  and  C_6
REMARK    2  A    between atoms: C_6  and  C_7
REMARK    3  A    between atoms: C_9  and  C_10
REMARK                            x       y       z     vdW  Elec       q    Type
REMARK                         _______ _______ _______ _____ _____    ______ ____
ROOT
ATOM      1  C   UNL     1       2.628   7.570  17.896  0.00  0.00    +0.000 A 
ATOM      2  N   UNL     1       3.903   7.456  17.599  0.00  0.00    +0.000 NA
ATOM      3  C   UNL     1       4.084   6.088  17.567  0.00  0.00    +0.000 A 
ATOM      4  N   UNL     1       2.977   5.387  17.863  0.00  0.00    +0.000 NA
ATOM      5  O   UNL     1       2.010   6.367  18.080  0.00  0.00    +0.000 OA
ENDROOT
BRANCH   3   6
ATOM      6  C   UNL     1       5.355   5.492  17.170  0.00  0.00    +0.000 A 
ATOM      7  C   UNL     1       6.319   5.190  18.136  0.00  0.00    +0.000 A 
ATOM      8  C   UNL     1       7.534   4.674  17.721  0.00  0.00    +0.000 A 
ATOM      9  N   UNL     1       7.847   4.438  16.429  0.00  0.00    +0.000 NA
ATOM     10  C   UNL     1       6.901   4.731  15.511  0.00  0.00    +0.000 A 
ATOM     11  C   UNL     1       5.656   5.248  15.826  0.00  0.00    +0.000 A 
ENDBRANCH   3   6
BRANCH   1  12
ATOM     12  C   UNL     1       1.765   8.776  17.906  0.00  0.00    +0.000 C 
BRANCH  12  17
ATOM     13 CL   UNL     1      -0.703  10.025  23.268  0.00  0.00    +0.000 Cl
ATOM     14  C   UNL     1       0.030   9.696  21.746  0.00  0.00    +0.000 A 
ATOM     15  C   UNL     1      -0.359  10.418  20.620  0.00  0.00    +0.000 A 
ATOM     16  C   UNL     1       0.223  10.137  19.381  0.00  0.00    +0.000 A 
ATOM     17  C   UNL     1       1.188   9.125  19.259  0.00  0.00    +0.000 A 
ATOM     18  C   UNL     1       1.585   8.423  20.407  0.00  0.00    +0.000 A 
ATOM     19  C   UNL     1       1.004   8.705  21.646  0.00  0.00    +0.000 A 
ENDBRANCH  12  17
ENDBRANCH   1  12
TORSDOF 3
ENDMDL
MODEL 5
REMARK VINA RESULT:      -7.0      1.076      1.655
REMARK  Name = 
REMARK  3 active torsions:
REMARK  status: ('A' for Active; 'I' for Inactive)
REMARK    1  A    between atoms: C_5  and  C_6
REMARK    2  A    between atoms: C_6  and  C_7
REMARK    3  A    between atoms: C_9  and  C_10
REMARK                            x       y       z     vdW  Elec       q    Type
REMARK                         _______ _______ _______ _____ _____    ______ ____
ROOT
ATOM      1  C   UNL     1       7.203   6.966  17.283  0.00  0.00    +0.000 A 
ATOM      2  N   UNL     1       7.345   8.269  17.187  0.00  0.00    +0.000 NA
ATOM      3  C   UNL     1       8.195   8.557  18.235  0.00  0.00    +0.000 A 
ATOM      4  N   UNL     1       8.539   7.484  18.966  0.00  0.00    +0.000 NA
ATOM      5  O   UNL     1       7.884   6.427  18.336  0.00  0.00    +0.000 OA
ENDROOT
BRANCH   3   6
ATOM      6  C   UNL     1       8.714   9.903  18.454  0.00  0.00    +0.000 A 
ATOM      7  C   UNL     1       9.505  10.174  19.574  0.00  0.00    +0.000 A 
ATOM      8  C   UNL     1       9.939  11.472  19.780  0.00  0.00    +0.000 A 
ATOM      9  N   UNL     1       9.645  12.501  18.957  0.00  0.00    +0.000 NA
ATOM     10  C   UNL     1       8.885  12.218  17.877  0.00  0.00    +0.000 A 
ATOM     11  C   UNL     1       8.405  10.952  17.584  0.00  0.00    +0.000 A 
ENDBRANCH   3   6
BRANCH   1  12
ATOM     12  C   UNL     1       6.555   6.016  16.346  0.00  0.00    +0.000 C 
BRANCH  12  17
ATOM     13 CL   UNL     1       1.295   3.873  18.384  0.00  0.00    +0.000 Cl
ATOM     14  C   UNL     1       2.778   4.494  17.767  0.00  0.00    +0.000 A 
ATOM     15  C   UNL     1       3.656   3.648  17.095  0.00  0.00    +0.000 A 
ATOM     16  C   UNL     1       4.868   4.148  16.611  0.00  0.00    +0.000 A 
ATOM     17  C   UNL     1       5.214   5.494  16.808  0.00  0.00    +0.000 A 
ATOM     18  C   UNL     1       4.308   6.338  17.469  0.00  0.00    +0.000 A 
ATOM     19  C   UNL     1       3.096   5.838  17.951  0.00  0.00    +0.000 A 
ENDBRANCH  12  17
ENDBRANCH   1  12
TORSDOF 3
ENDMDL
MODEL 6
REMARK VINA RESULT:      -7.0      4.245      6.094
REMARK  Name = 
REMARK  3 active torsions:
REMARK  status: ('A' for Active; 'I' for Inactive)
REMARK    1  A    between atoms: C_5  and  C_6
REMARK    2  A    between atoms: C_6  and  C_7
REMARK    3  A    between atoms: C_9  and  C_10
REMARK                            x       y       z     vdW  Elec       q    Type
REMARK                         _______ _______ _______ _____ _____    ______ ____
ROOT
ATOM      1  C   UNL     1       6.445   5.408  17.766  0.00  0.00    +0.000 A 
ATOM      2  N   UNL     1       6.076   4.721  16.708  0.00  0.00    +0.000 NA
ATOM      3  C   UNL     1       6.832   5.289  15.702  0.00  0.00    +0.000 A 
ATOM      4  N   UNL     1       7.610   6.303  16.114  0.00  0.00    +0.000 NA
ATOM      5  O   UNL     1       7.356   6.383  17.483  0.00  0.00    +0.000 OA
ENDROOT
BRANCH   3   6
ATOM      6  C   UNL     1       6.820   4.760  14.342  0.00  0.00    +0.000 A 
ATOM      7  C   UNL     1       7.721   5.249  13.394  0.00  0.00    +0.000 A 
ATOM      8  C   UNL     1       7.649   4.765  12.099  0.00  0.00    +0.000 A 
ATOM      9  N   UNL     1       6.756   3.838  11.694  0.00  0.00    +0.000 NA
ATOM     10  C   UNL     1       5.897   3.373  12.627  0.00  0.00    +0.000 A 
ATOM     11  C   UNL     1       5.891   3.794  13.946  0.00  0.00    +0.000 A 
ENDBRANCH   3   6
BRANCH   1  12
ATOM     12  C   UNL     1       6.134   5.176  19.198  0.00  0.00    +0.000 C 
BRANCH  12  17
ATOM     13 CL   UNL     1       0.623   3.074  20.470  0.00  0.00    +0.000 Cl
ATOM     14  C   UNL     1       2.187   3.672  20.067  0.00  0.00    +0.000 A 
ATOM     15  C   UNL     1       3.243   2.782  19.891  0.00  0.00    +0.000 A 
ATOM     16  C   UNL     1       4.516   3.268  19.583  0.00  0.00    +0.000 A 
ATOM     17  C   UNL     1       4.742   4.648  19.461  0.00  0.00    +0.000 A 
ATOM     18  C   UNL     1       3.662   5.530  19.620  0.00  0.00    +0.000 A 
ATOM     19  C   UNL     1       2.389   5.043  19.927  0.00  0.00    +0.000 A 
ENDBRANCH  12  17
ENDBRANCH   1  12
TORSDOF 3
ENDMDL
MODEL 7
REMARK VINA RESULT:      -7.0      0.210      1.552
REMARK  Name = 
REMARK  3 active torsions:
REMARK  status: ('A' for Active; 'I' for Inactive)
REMARK    1  A    between atoms: C_5  and  C_6
REMARK    2  A    between atoms: C_6  and  C_7
REMARK    3  A    between atoms: C_9  and  C_10
REMARK                            x       y       z     vdW  Elec       q    Type
REMARK                         _______ _______ _______ _____ _____    ______ ____
ROOT
ATOM      1  C   UNL     1       7.828   6.958  18.155  0.00  0.00    +0.000 A 
ATOM      2  N   UNL     1       8.601   7.777  18.832  0.00  0.00    +0.000 NA
ATOM      3  C   UNL     1       8.353   8.993  18.230  0.00  0.00    +0.000 A 
ATOM      4  N   UNL     1       7.487   8.925  17.205  0.00  0.00    +0.000 NA
ATOM      5  O   UNL     1       7.136   7.577  17.155  0.00  0.00    +0.000 OA
ENDROOT
BRANCH   3   6
ATOM      6  C   UNL     1       8.935  10.232  18.735  0.00  0.00    +0.000 A 
ATOM      7  C   UNL     1       9.128  11.316  17.875  0.00  0.00    +0.000 A 
ATOM      8  C   UNL     1       9.730  12.458  18.373  0.00  0.00    +0.000 A 
ATOM      9  N   UNL     1      10.144  12.592  19.651  0.00  0.00    +0.000 NA
ATOM     10  C   UNL     1       9.943  11.536  20.468  0.00  0.00    +0.000 A 
ATOM     11  C   UNL     1       9.348  10.352  20.065  0.00  0.00    +0.000 A 
ENDBRANCH   3   6
BRANCH   1  12
ATOM     12  C   UNL     1       7.497   5.536  18.420  0.00  0.00    +0.000 C 
BRANCH  12  17
ATOM     13 CL   UNL     1       1.728   3.917  17.711  0.00  0.00    +0.000 Cl
ATOM     14  C   UNL     1       3.366   4.415  17.895  0.00  0.00    +0.000 A 
ATOM     15  C   UNL     1       4.291   4.136  16.893  0.00  0.00    +0.000 A 
ATOM     16  C   UNL     1       5.625   4.523  17.051  0.00  0.00    +0.000 A 
ATOM     17  C   UNL     1       6.042   5.181  18.219  0.00  0.00    +0.000 A 
ATOM     18  C   UNL     1       5.093   5.474  19.210  0.00  0.00    +0.000 A 
ATOM     19  C   UNL     1       3.760   5.088  19.050  0.00  0.00    +0.000 A 
ENDBRANCH  12  17
ENDBRANCH   1  12
TORSDOF 3
ENDMDL
MODEL 8
REMARK VINA RESULT:      -7.0      1.091      1.978
REMARK  Name = 
REMARK  3 active torsions:
REMARK  status: ('A' for Active; 'I' for Inactive)
REMARK    1  A    between atoms: C_5  and  C_6
REMARK    2  A    between atoms: C_6  and  C_7
REMARK    3  A    between atoms: C_9  and  C_10
REMARK                            x       y       z     vdW  Elec       q    Type
REMARK                         _______ _______ _______ _____ _____    ______ ____
ROOT
ATOM      1  C   UNL     1       7.189   6.930  17.284  0.00  0.00    +0.000 A 
ATOM      2  N   UNL     1       7.321   8.235  17.197  0.00  0.00    +0.000 NA
ATOM      3  C   UNL     1       8.173   8.523  18.244  0.00  0.00    +0.000 A 
ATOM      4  N   UNL     1       8.528   7.447  18.966  0.00  0.00    +0.000 NA
ATOM      5  O   UNL     1       7.878   6.390  18.331  0.00  0.00    +0.000 OA
ENDROOT
BRANCH   3   6
ATOM      6  C   UNL     1       8.683   9.871  18.469  0.00  0.00    +0.000 A 
ATOM      7  C   UNL     1       8.333  10.906  17.599  0.00  0.00    +0.000 A 
ATOM      8  C   UNL     1       8.874  12.162  17.810  0.00  0.00    +0.000 A 
ATOM      9  N   UNL     1       9.726  12.452  18.817  0.00  0.00    +0.000 NA
ATOM     10  C   UNL     1      10.048  11.440  19.651  0.00  0.00    +0.000 A 
ATOM     11  C   UNL     1       9.557  10.151  19.524  0.00  0.00    +0.000 A 
ENDBRANCH   3   6
BRANCH   1  12
ATOM     12  C   UNL     1       6.544   5.982  16.344  0.00  0.00    +0.000 C 
BRANCH  12  17
ATOM     13 CL   UNL     1       1.277   3.836  18.357  0.00  0.00    +0.000 Cl
ATOM     14  C   UNL     1       2.762   4.458  17.747  0.00  0.00    +0.000 A 
ATOM     15  C   UNL     1       3.636   3.617  17.064  0.00  0.00    +0.000 A 
ATOM     16  C   UNL     1       4.850   4.117  16.586  0.00  0.00    +0.000 A 
ATOM     17  C   UNL     1       5.201   5.459  16.800  0.00  0.00    +0.000 A 
ATOM     18  C   UNL     1       4.299   6.300  17.470  0.00  0.00    +0.000 A 
ATOM     19  C   UNL     1       3.085   5.798  17.947  0.00  0.00    +0.000 A 
ENDBRANCH  12  17
ENDBRANCH   1  12
TORSDOF 3
ENDMDL
MODEL 9
REMARK VINA RESULT:      -7.0      4.208      5.986
REMARK  Name = 
REMARK  3 active torsions:
REMARK  status: ('A' for Active; 'I' for Inactive)
REMARK    1  A    between atoms: C_5  and  C_6
REMARK    2  A    between atoms: C_6  and  C_7
REMARK    3  A    between atoms: C_9  and  C_10
REMARK                            x       y       z     vdW  Elec       q    Type
REMARK                         _______ _______ _______ _____ _____    ______ ____
ROOT
ATOM      1  C   UNL     1       6.336   5.459  17.830  0.00  0.00    +0.000 A 
ATOM      2  N   UNL     1       5.992   4.784  16.756  0.00  0.00    +0.000 NA
ATOM      3  C   UNL     1       6.800   5.333  15.782  0.00  0.00    +0.000 A 
ATOM      4  N   UNL     1       7.588   6.326  16.227  0.00  0.00    +0.000 NA
ATOM      5  O   UNL     1       7.283   6.410  17.585  0.00  0.00    +0.000 OA
ENDROOT
BRANCH   3   6
ATOM      6  C   UNL     1       6.827   4.808  14.421  0.00  0.00    +0.000 A 
ATOM      7  C   UNL     1       7.708   5.347  13.480  0.00  0.00    +0.000 A 
ATOM      8  C   UNL     1       7.673   4.863  12.184  0.00  0.00    +0.000 A 
ATOM      9  N   UNL     1       6.834   3.889  11.770  0.00  0.00    +0.000 NA
ATOM     10  C   UNL     1       5.994   3.377  12.695  0.00  0.00    +0.000 A 
ATOM     11  C   UNL     1       5.955   3.793  14.016  0.00  0.00    +0.000 A 
ENDBRANCH   3   6
BRANCH   1  12
ATOM     12  C   UNL     1       5.964   5.231  19.247  0.00  0.00    +0.000 C 
BRANCH  12  17
ATOM     13 CL   UNL     1       0.448   2.858  19.834  0.00  0.00    +0.000 Cl
ATOM     14  C   UNL     1       2.023   3.541  19.707  0.00  0.00    +0.000 A 
ATOM     15  C   UNL     1       2.169   4.910  19.497  0.00  0.00    +0.000 A 
ATOM     16  C   UNL     1       3.447   5.462  19.375  0.00  0.00    +0.000 A 
ATOM     17  C   UNL     1       4.586   4.645  19.449  0.00  0.00    +0.000 A 
ATOM     18  C   UNL     1       4.423   3.271  19.683  0.00  0.00    +0.000 A 
ATOM     19  C   UNL     1       3.144   2.720  19.807  0.00  0.00    +0.000 A 
ENDBRANCH  12  17
ENDBRANCH   1  12
TORSDOF 3
ENDMDL
