MODEL 1
REMARK VINA RESULT:      -7.6      0.000      0.000
REMARK  Name = 
REMARK  4 active torsions:
REMARK  status: ('A' for Active; 'I' for Inactive)
REMARK    1  A    between atoms: C_1  and  C_2
REMARK    2  A    between atoms: N_4  and  C_5
REMARK    3  A    between atoms: C_5  and  C_6
REMARK    4  A    between atoms: C_8  and  C_9
REMARK                            x       y       z     vdW  Elec       q    Type
REMARK                         _______ _______ _______ _____ _____    ______ ____
ROOT
ATOM      1  C   UNL     1       5.321   5.005  15.916  0.00  0.00    +0.000 C 
ATOM      2  C   UNL     1       4.906   4.001  16.968  0.00  0.00    +0.000 C 
ATOM      3  C   UNL     1       3.898   4.806  17.706  0.00  0.00    +0.000 C 
ATOM      4  N   UNL     1       3.801   6.040  17.337  0.00  0.00    +0.000 NA
ATOM      5  O   UNL     1       4.728   6.258  16.298  0.00  0.00    +0.000 OA
ENDROOT
BRANCH   3   6
ATOM      6  C   UNL     1       3.091   4.223  18.804  0.00  0.00    +0.000 A 
ATOM      7  C   UNL     1       1.714   4.470  18.899  0.00  0.00    +0.000 A 
ATOM      8  C   UNL     1       0.970   3.906  19.938  0.00  0.00    +0.000 A 
ATOM      9  C   UNL     1       1.602   3.097  20.876  0.00  0.00    +0.000 A 
ATOM     10  F   UNL     1       0.884   2.562  21.871  0.00  0.00    +0.000 F 
ATOM     11  C   UNL     1       2.966   2.847  20.782  0.00  0.00    +0.000 A 
ATOM     12  F   UNL     1       3.570   2.067  21.688  0.00  0.00    +0.000 F 
ATOM     13  C   UNL     1       3.718   3.404  19.750  0.00  0.00    +0.000 A 
ENDBRANCH   3   6
BRANCH   1  14
ATOM     14  C   UNL     1       6.838   5.183  15.863  0.00  0.00    +0.000 C 
BRANCH  14  18
ATOM     15  C   UNL     1       8.019   8.173  17.858  0.00  0.00    +0.000 C 
ATOM     16  C   UNL     1       7.598   6.753  17.605  0.00  0.00    +0.000 C 
ATOM     17  O   UNL     1       7.551   5.904  18.490  0.00  0.00    +0.000 OA
ATOM     18  N   UNL     1       7.253   6.504  16.298  0.00  0.00    +0.000 N 
ATOM     19  H   UNL     1       7.561   7.155  15.583  0.00  0.00    +0.000 HD
ENDBRANCH  14  18
ENDBRANCH   1  14
TORSDOF 3
ENDMDL
MODEL 2
REMARK VINA RESULT:      -7.6      0.997      1.460
REMARK  Name = 
REMARK  4 active torsions:
REMARK  status: ('A' for Active; 'I' for Inactive)
REMARK    1  A    between atoms: C_1  and  C_2
REMARK    2  A    between atoms: N_4  and  C_5
REMARK    3  A    between atoms: C_5  and  C_6
REMARK    4  A    between atoms: C_8  and  C_9
REMARK                            x       y       z     vdW  Elec       q    Type
REMARK                         _______ _______ _______ _____ _____    ______ ____
ROOT
ATOM      1  C   UNL     1       5.595   5.049  15.922  0.00  0.00    +0.000 C 
ATOM      2  C   UNL     1       5.093   4.083  16.971  0.00  0.00    +0.000 C 
ATOM      3  C   UNL     1       3.992   4.892  17.557  0.00  0.00    +0.000 C 
ATOM      4  N   UNL     1       3.906   6.104  17.120  0.00  0.00    +0.000 NA
ATOM      5  O   UNL     1       4.935   6.300  16.176  0.00  0.00    +0.000 OA
ENDROOT
BRANCH   3   6
ATOM      6  C   UNL     1       3.085   4.337  18.589  0.00  0.00    +0.000 A 
ATOM      7  C   UNL     1       3.237   4.674  19.942  0.00  0.00    +0.000 A 
ATOM      8  C   UNL     1       2.367   4.145  20.899  0.00  0.00    +0.000 A 
ATOM      9  C   UNL     1       1.350   3.284  20.502  0.00  0.00    +0.000 A 
ATOM     10  F   UNL     1       0.522   2.778  21.425  0.00  0.00    +0.000 F 
ATOM     11  C   UNL     1       1.194   2.951  19.161  0.00  0.00    +0.000 A 
ATOM     12  F   UNL     1       0.213   2.122  18.785  0.00  0.00    +0.000 F 
ATOM     13  C   UNL     1       2.055   3.473  18.199  0.00  0.00    +0.000 A 
ENDBRANCH   3   6
BRANCH   1  14
ATOM     14  C   UNL     1       7.105   5.269  16.023  0.00  0.00    +0.000 C 
BRANCH  14  18
ATOM     15  C   UNL     1       8.030   8.421  17.898  0.00  0.00    +0.000 C 
ATOM     16  C   UNL     1       7.679   6.972  17.709  0.00  0.00    +0.000 C 
ATOM     17  O   UNL     1       7.600   6.179  18.641  0.00  0.00    +0.000 OA
ATOM     18  N   UNL     1       7.440   6.630  16.400  0.00  0.00    +0.000 N 
ATOM     19  H   UNL     1       7.775   7.247  15.667  0.00  0.00    +0.000 HD
ENDBRANCH  14  18
ENDBRANCH   1  14
TORSDOF 3
ENDMDL
MODEL 3
REMARK VINA RESULT:      -7.5      2.497      3.543
REMARK  Name = 
REMARK  4 active torsions:
REMARK  status: ('A' for Active; 'I' for Inactive)
REMARK    1  A    between atoms: C_1  and  C_2
REMARK    2  A    between atoms: N_4  and  C_5
REMARK    3  A    between atoms: C_5  and  C_6
REMARK    4  A    between atoms: C_8  and  C_9
REMARK                            x       y       z     vdW  Elec       q    Type
REMARK                         _______ _______ _______ _____ _____    ______ ____
ROOT
ATOM      1  C   UNL     1       6.705   5.401  15.866  0.00  0.00    +0.000 C 
ATOM      2  C   UNL     1       5.215   5.202  16.031  0.00  0.00    +0.000 C 
ATOM      3  C   UNL     1       5.183   4.648  17.410  0.00  0.00    +0.000 C 
ATOM      4  N   UNL     1       6.339   4.405  17.934  0.00  0.00    +0.000 NA
ATOM      5  O   UNL     1       7.326   4.755  16.990  0.00  0.00    +0.000 OA
ENDROOT
BRANCH   3   6
ATOM      6  C   UNL     1       3.905   4.375  18.108  0.00  0.00    +0.000 A 
ATOM      7  C   UNL     1       2.873   3.666  17.476  0.00  0.00    +0.000 A 
ATOM      8  C   UNL     1       1.677   3.413  18.153  0.00  0.00    +0.000 A 
ATOM      9  C   UNL     1       1.518   3.867  19.458  0.00  0.00    +0.000 A 
ATOM     10  F   UNL     1       0.368   3.624  20.100  0.00  0.00    +0.000 F 
ATOM     11  C   UNL     1       2.540   4.566  20.089  0.00  0.00    +0.000 A 
ATOM     12  F   UNL     1       2.380   5.000  21.345  0.00  0.00    +0.000 F 
ATOM     13  C   UNL     1       3.736   4.823  19.423  0.00  0.00    +0.000 A 
ENDBRANCH   3   6
BRANCH   1  14
ATOM     14  C   UNL     1       7.230   4.752  14.584  0.00  0.00    +0.000 C 
BRANCH  14  18
ATOM     15  C   UNL     1       5.134   3.050  11.935  0.00  0.00    +0.000 C 
ATOM     16  C   UNL     1       6.301   3.803  12.508  0.00  0.00    +0.000 C 
ATOM     17  O   UNL     1       7.253   4.174  11.828  0.00  0.00    +0.000 OA
ATOM     18  N   UNL     1       6.189   4.052  13.854  0.00  0.00    +0.000 N 
ATOM     19  H   UNL     1       5.529   3.503  14.397  0.00  0.00    +0.000 HD
ENDBRANCH  14  18
ENDBRANCH   1  14
TORSDOF 3
ENDMDL
MODEL 4
REMARK VINA RESULT:      -7.4      0.998      1.024
REMARK  Name = 
REMARK  4 active torsions:
REMARK  status: ('A' for Active; 'I' for Inactive)
REMARK    1  A    between atoms: C_1  and  C_2
REMARK    2  A    between atoms: N_4  and  C_5
REMARK    3  A    between atoms: C_5  and  C_6
REMARK    4  A    between atoms: C_8  and  C_9
REMARK                            x       y       z     vdW  Elec       q    Type
REMARK                         _______ _______ _______ _____ _____    ______ ____
ROOT
ATOM      1  C   UNL     1       5.279   5.239  15.711  0.00  0.00    +0.000 C 
ATOM      2  C   UNL     1       4.735   4.168  16.629  0.00  0.00    +0.000 C 
ATOM      3  C   UNL     1       3.807   4.986  17.453  0.00  0.00    +0.000 C 
ATOM      4  N   UNL     1       3.854   6.259  17.238  0.00  0.00    +0.000 NA
ATOM      5  O   UNL     1       4.821   6.496  16.239  0.00  0.00    +0.000 OA
ENDROOT
BRANCH   3   6
ATOM      6  C   UNL     1       2.918   4.368  18.465  0.00  0.00    +0.000 A 
ATOM      7  C   UNL     1       1.882   3.501  18.086  0.00  0.00    +0.000 A 
ATOM      8  C   UNL     1       1.059   2.923  19.056  0.00  0.00    +0.000 A 
ATOM      9  C   UNL     1       1.273   3.213  20.399  0.00  0.00    +0.000 A 
ATOM     10  F   UNL     1       0.479   2.659  21.323  0.00  0.00    +0.000 F 
ATOM     11  C   UNL     1       2.301   4.068  20.778  0.00  0.00    +0.000 A 
ATOM     12  F   UNL     1       2.502   4.342  22.074  0.00  0.00    +0.000 F 
ATOM     13  C   UNL     1       3.128   4.649  19.820  0.00  0.00    +0.000 A 
ENDBRANCH   3   6
BRANCH   1  14
ATOM     14  C   UNL     1       6.808   5.253  15.691  0.00  0.00    +0.000 C 
BRANCH  14  18
ATOM     15  C   UNL     1       8.236   7.131  18.648  0.00  0.00    +0.000 C 
ATOM     16  C   UNL     1       7.650   5.971  17.893  0.00  0.00    +0.000 C 
ATOM     17  O   UNL     1       7.436   4.879  18.411  0.00  0.00    +0.000 OA
ATOM     18  N   UNL     1       7.362   6.257  16.581  0.00  0.00    +0.000 N 
ATOM     19  H   UNL     1       7.798   7.068  16.153  0.00  0.00    +0.000 HD
ENDBRANCH  14  18
ENDBRANCH   1  14
TORSDOF 3
ENDMDL
MODEL 5
REMARK VINA RESULT:      -7.3      2.546      3.590
REMARK  Name = 
REMARK  4 active torsions:
REMARK  status: ('A' for Active; 'I' for Inactive)
REMARK    1  A    between atoms: C_1  and  C_2
REMARK    2  A    between atoms: N_4  and  C_5
REMARK    3  A    between atoms: C_5  and  C_6
REMARK    4  A    between atoms: C_8  and  C_9
REMARK                            x       y       z     vdW  Elec       q    Type
REMARK                         _______ _______ _______ _____ _____    ______ ____
ROOT
ATOM      1  C   UNL     1       6.688   5.273  15.755  0.00  0.00    +0.000 C 
ATOM      2  C   UNL     1       5.213   5.134  16.054  0.00  0.00    +0.000 C 
ATOM      3  C   UNL     1       5.280   4.689  17.471  0.00  0.00    +0.000 C 
ATOM      4  N   UNL     1       6.469   4.451  17.918  0.00  0.00    +0.000 NA
ATOM      5  O   UNL     1       7.384   4.696  16.873  0.00  0.00    +0.000 OA
ENDROOT
BRANCH   3   6
ATOM      6  C   UNL     1       4.057   4.511  18.288  0.00  0.00    +0.000 A 
ATOM      7  C   UNL     1       3.418   5.608  18.883  0.00  0.00    +0.000 A 
ATOM      8  C   UNL     1       2.262   5.420  19.644  0.00  0.00    +0.000 A 
ATOM      9  C   UNL     1       1.748   4.137  19.807  0.00  0.00    +0.000 A 
ATOM     10  F   UNL     1       0.642   3.963  20.541  0.00  0.00    +0.000 F 
ATOM     11  C   UNL     1       2.377   3.048  19.215  0.00  0.00    +0.000 A 
ATOM     12  F   UNL     1       1.877   1.816  19.375  0.00  0.00    +0.000 F 
ATOM     13  C   UNL     1       3.529   3.225  18.454  0.00  0.00    +0.000 A 
ENDBRANCH   3   6
BRANCH   1  14
ATOM     14  C   UNL     1       7.090   4.512  14.491  0.00  0.00    +0.000 C 
BRANCH  14  18
ATOM     15  C   UNL     1       4.759   3.150  11.840  0.00  0.00    +0.000 C 
ATOM     16  C   UNL     1       6.055   3.620  12.439  0.00  0.00    +0.000 C 
ATOM     17  O   UNL     1       7.110   3.639  11.813  0.00  0.00    +0.000 OA
ATOM     18  N   UNL     1       5.939   4.041  13.742  0.00  0.00    +0.000 N 
ATOM     19  H   UNL     1       5.122   3.757  14.274  0.00  0.00    +0.000 HD
ENDBRANCH  14  18
ENDBRANCH   1  14
TORSDOF 3
ENDMDL
MODEL 6
REMARK VINA RESULT:      -7.3      1.651      2.523
REMARK  Name = 
REMARK  4 active torsions:
REMARK  status: ('A' for Active; 'I' for Inactive)
REMARK    1  A    between atoms: C_1  and  C_2
REMARK    2  A    between atoms: N_4  and  C_5
REMARK    3  A    between atoms: C_5  and  C_6
REMARK    4  A    between atoms: C_8  and  C_9
REMARK                            x       y       z     vdW  Elec       q    Type
REMARK                         _______ _______ _______ _____ _____    ______ ____
ROOT
ATOM      1  C   UNL     1       6.382   6.685  18.257  0.00  0.00    +0.000 C 
ATOM      2  C   UNL     1       4.993   6.243  17.855  0.00  0.00    +0.000 C 
ATOM      3  C   UNL     1       4.801   5.115  18.804  0.00  0.00    +0.000 C 
ATOM      4  N   UNL     1       5.836   4.807  19.512  0.00  0.00    +0.000 NA
ATOM      5  O   UNL     1       6.885   5.677  19.151  0.00  0.00    +0.000 OA
ENDROOT
BRANCH   3   6
ATOM      6  C   UNL     1       3.513   4.388  18.895  0.00  0.00    +0.000 A 
ATOM      7  C   UNL     1       2.595   4.405  17.833  0.00  0.00    +0.000 A 
ATOM      8  C   UNL     1       1.389   3.708  17.936  0.00  0.00    +0.000 A 
ATOM      9  C   UNL     1       1.104   2.996  19.097  0.00  0.00    +0.000 A 
ATOM     10  F   UNL     1      -0.055   2.333  19.190  0.00  0.00    +0.000 F 
ATOM     11  C   UNL     1       2.013   2.973  20.148  0.00  0.00    +0.000 A 
ATOM     12  F   UNL     1       1.732   2.285  21.262  0.00  0.00    +0.000 F 
ATOM     13  C   UNL     1       3.218   3.664  20.056  0.00  0.00    +0.000 A 
ENDBRANCH   3   6
BRANCH   1  14
ATOM     14  C   UNL     1       7.323   6.777  17.054  0.00  0.00    +0.000 C 
BRANCH  14  18
ATOM     15  C   UNL     1       6.492   4.158  14.455  0.00  0.00    +0.000 C 
ATOM     16  C   UNL     1       7.127   4.735  15.688  0.00  0.00    +0.000 C 
ATOM     17  O   UNL     1       7.866   4.087  16.423  0.00  0.00    +0.000 OA
ATOM     18  N   UNL     1       6.815   6.056  15.901  0.00  0.00    +0.000 N 
ATOM     19  H   UNL     1       6.010   6.449  15.424  0.00  0.00    +0.000 HD
ENDBRANCH  14  18
ENDBRANCH   1  14
TORSDOF 3
ENDMDL
MODEL 7
REMARK VINA RESULT:      -7.2      1.813      2.891
REMARK  Name = 
REMARK  4 active torsions:
REMARK  status: ('A' for Active; 'I' for Inactive)
REMARK    1  A    between atoms: C_1  and  C_2
REMARK    2  A    between atoms: N_4  and  C_5
REMARK    3  A    between atoms: C_5  and  C_6
REMARK    4  A    between atoms: C_8  and  C_9
REMARK                            x       y       z     vdW  Elec       q    Type
REMARK                         _______ _______ _______ _____ _____    ______ ____
ROOT
ATOM      1  C   UNL     1       6.677   6.085  18.346  0.00  0.00    +0.000 C 
ATOM      2  C   UNL     1       5.177   5.957  18.209  0.00  0.00    +0.000 C 
ATOM      3  C   UNL     1       5.004   4.537  18.614  0.00  0.00    +0.000 C 
ATOM      4  N   UNL     1       6.101   3.881  18.804  0.00  0.00    +0.000 NA
ATOM      5  O   UNL     1       7.179   4.754  18.556  0.00  0.00    +0.000 OA
ENDROOT
BRANCH   3   6
ATOM      6  C   UNL     1       3.661   3.928  18.756  0.00  0.00    +0.000 A 
ATOM      7  C   UNL     1       3.309   2.776  18.037  0.00  0.00    +0.000 A 
ATOM      8  C   UNL     1       2.040   2.214  18.190  0.00  0.00    +0.000 A 
ATOM      9  C   UNL     1       1.128   2.802  19.059  0.00  0.00    +0.000 A 
ATOM     10  F   UNL     1      -0.089   2.259  19.199  0.00  0.00    +0.000 F 
ATOM     11  C   UNL     1       1.475   3.940  19.777  0.00  0.00    +0.000 A 
ATOM     12  F   UNL     1       0.592   4.502  20.613  0.00  0.00    +0.000 F 
ATOM     13  C   UNL     1       2.738   4.509  19.632  0.00  0.00    +0.000 A 
ENDBRANCH   3   6
BRANCH   1  14
ATOM     14  C   UNL     1       7.321   6.649  17.078  0.00  0.00    +0.000 C 
BRANCH  14  18
ATOM     15  C   UNL     1       6.791   4.462  14.037  0.00  0.00    +0.000 C 
ATOM     16  C   UNL     1       6.485   5.534  15.045  0.00  0.00    +0.000 C 
ATOM     17  O   UNL     1       5.471   6.224  14.997  0.00  0.00    +0.000 OA
ATOM     18  N   UNL     1       7.437   5.653  16.029  0.00  0.00    +0.000 N 
ATOM     19  H   UNL     1       8.356   5.252  15.867  0.00  0.00    +0.000 HD
ENDBRANCH  14  18
ENDBRANCH   1  14
TORSDOF 3
ENDMDL
MODEL 8
REMARK VINA RESULT:      -7.2      1.979      2.806
REMARK  Name = 
REMARK  4 active torsions:
REMARK  status: ('A' for Active; 'I' for Inactive)
REMARK    1  A    between atoms: C_1  and  C_2
REMARK    2  A    between atoms: N_4  and  C_5
REMARK    3  A    between atoms: C_5  and  C_6
REMARK    4  A    between atoms: C_8  and  C_9
REMARK                            x       y       z     vdW  Elec       q    Type
REMARK                         _______ _______ _______ _____ _____    ______ ____
ROOT
ATOM      1  C   UNL     1       6.689   6.182  17.947  0.00  0.00    +0.000 C 
ATOM      2  C   UNL     1       5.189   5.995  17.929  0.00  0.00    +0.000 C 
ATOM      3  C   UNL     1       5.055   4.910  18.936  0.00  0.00    +0.000 C 
ATOM      4  N   UNL     1       6.169   4.419  19.369  0.00  0.00    +0.000 NA
ATOM      5  O   UNL     1       7.223   5.094  18.721  0.00  0.00    +0.000 OA
ENDROOT
BRANCH   3   6
ATOM      6  C   UNL     1       3.728   4.420  19.378  0.00  0.00    +0.000 A 
ATOM      7  C   UNL     1       2.842   5.258  20.071  0.00  0.00    +0.000 A 
ATOM      8  C   UNL     1       1.593   4.779  20.474  0.00  0.00    +0.000 A 
ATOM      9  C   UNL     1       1.233   3.467  20.182  0.00  0.00    +0.000 A 
ATOM     10  F   UNL     1       0.036   3.014  20.573  0.00  0.00    +0.000 F 
ATOM     11  C   UNL     1       2.107   2.636  19.491  0.00  0.00    +0.000 A 
ATOM     12  F   UNL     1       1.754   1.375  19.212  0.00  0.00    +0.000 F 
ATOM     13  C   UNL     1       3.354   3.103  19.085  0.00  0.00    +0.000 A 
ENDBRANCH   3   6
BRANCH   1  14
ATOM     14  C   UNL     1       7.291   6.117  16.542  0.00  0.00    +0.000 C 
BRANCH  14  18
ATOM     15  C   UNL     1       6.200   3.884  13.690  0.00  0.00    +0.000 C 
ATOM     16  C   UNL     1       7.010   4.933  14.399  0.00  0.00    +0.000 C 
ATOM     17  O   UNL     1       7.928   5.543  13.860  0.00  0.00    +0.000 OA
ATOM     18  N   UNL     1       6.612   5.153  15.696  0.00  0.00    +0.000 N 
ATOM     19  H   UNL     1       6.042   4.450  16.155  0.00  0.00    +0.000 HD
ENDBRANCH  14  18
ENDBRANCH   1  14
TORSDOF 3
ENDMDL
MODEL 9
REMARK VINA RESULT:      -7.1      3.444      6.023
REMARK  Name = 
REMARK  4 active torsions:
REMARK  status: ('A' for Active; 'I' for Inactive)
REMARK    1  A    between atoms: C_1  and  C_2
REMARK    2  A    between atoms: N_4  and  C_5
REMARK    3  A    between atoms: C_5  and  C_6
REMARK    4  A    between atoms: C_8  and  C_9
REMARK                            x       y       z     vdW  Elec       q    Type
REMARK                         _______ _______ _______ _____ _____    ______ ____
ROOT
ATOM      1  C   UNL     1       2.032   3.579  17.410  0.00  0.00    +0.000 C 
ATOM      2  C   UNL     1       2.805   4.836  17.738  0.00  0.00    +0.000 C 
ATOM      3  C   UNL     1       4.182   4.280  17.800  0.00  0.00    +0.000 C 
ATOM      4  N   UNL     1       4.262   2.994  17.700  0.00  0.00    +0.000 NA
ATOM      5  O   UNL     1       2.955   2.487  17.557  0.00  0.00    +0.000 OA
ENDROOT
BRANCH   3   6
ATOM      6  C   UNL     1       5.364   5.153  17.993  0.00  0.00    +0.000 A 
ATOM      7  C   UNL     1       5.662   6.178  17.083  0.00  0.00    +0.000 A 
ATOM      8  C   UNL     1       6.778   6.994  17.286  0.00  0.00    +0.000 A 
ATOM      9  C   UNL     1       7.589   6.784  18.396  0.00  0.00    +0.000 A 
ATOM     10  F   UNL     1       8.659   7.568  18.583  0.00  0.00    +0.000 F 
ATOM     11  C   UNL     1       7.294   5.773  19.302  0.00  0.00    +0.000 A 
ATOM     12  F   UNL     1       8.079   5.576  20.369  0.00  0.00    +0.000 F 
ATOM     13  C   UNL     1       6.184   4.953  19.109  0.00  0.00    +0.000 A 
ENDBRANCH   3   6
BRANCH   1  14
ATOM     14  C   UNL     1       0.864   3.358  18.372  0.00  0.00    +0.000 C 
BRANCH  14  18
ATOM     15  C   UNL     1       1.830   2.542  21.938  0.00  0.00    +0.000 C 
ATOM     16  C   UNL     1       1.415   3.398  20.774  0.00  0.00    +0.000 C 
ATOM     17  O   UNL     1       1.234   4.608  20.868  0.00  0.00    +0.000 OA
ATOM     18  N   UNL     1       1.277   2.700  19.599  0.00  0.00    +0.000 N 
ATOM     19  H   UNL     1       1.180   1.691  19.641  0.00  0.00    +0.000 HD
ENDBRANCH  14  18
ENDBRANCH   1  14
TORSDOF 3
ENDMDL
