MODEL 1
REMARK VINA RESULT:      -8.0      0.000      0.000
REMARK  Name = 
REMARK  9 active torsions:
REMARK  status: ('A' for Active; 'I' for Inactive)
REMARK    1  A    between atoms: C_1  and  C_2
REMARK    2  A    between atoms: C_2  and  C_4
REMARK    3  A    between atoms: C_5  and  C_6
REMARK    4  A    between atoms: N_7  and  C_8
REMARK    5  A    between atoms: C_12  and  C_13
REMARK    6  A    between atoms: N_20  and  C_21
REMARK    7  A    between atoms: C_22  and  C_23
REMARK    8  A    between atoms: C_26  and  C_27
REMARK    9  A    between atoms: C_30  and  C_31
REMARK                            x       y       z     vdW  Elec       q    Type
REMARK                         _______ _______ _______ _____ _____    ______ ____
ROOT
ATOM      1  C   UNL     1       0.877   8.768  20.500  0.00  0.00    +0.000 C 
ATOM      2  C   UNL     1       1.559   7.661  20.127  0.00  0.00    +0.000 C 
ATOM      3  C   UNL     1       1.631   6.393  20.959  0.00  0.00    +0.000 C 
ATOM      4  N   UNL     1       2.310   7.674  18.932  0.00  0.00    +0.000 N 
ATOM      5  C   UNL     1       2.440   8.816  18.123  0.00  0.00    +0.000 C 
ATOM      6  O   UNL     1       3.131   8.827  17.098  0.00  0.00    +0.000 OA
ATOM      7  N   UNL     1       1.754   9.948  18.510  0.00  0.00    +0.000 N 
ATOM      8  C   UNL     1       1.943  11.162  17.719  0.00  0.00    +0.000 C 
ATOM      9  C   UNL     1       0.845  10.021  19.658  0.00  0.00    +0.000 C 
ENDROOT
BRANCH   4  10
ATOM     10  C   UNL     1       3.022   6.515  18.465  0.00  0.00    +0.000 A 
ATOM     11  C   UNL     1       2.336   5.433  17.903  0.00  0.00    +0.000 A 
ATOM     12  C   UNL     1       3.034   4.315  17.444  0.00  0.00    +0.000 A 
ATOM     13  C   UNL     1       4.425   4.262  17.558  0.00  0.00    +0.000 A 
ATOM     14  C   UNL     1       5.134   5.332  18.118  0.00  0.00    +0.000 A 
ATOM     15  C   UNL     1       4.423   6.465  18.551  0.00  0.00    +0.000 A 
BRANCH  14  16
ATOM     16  C   UNL     1       6.631   5.273  18.288  0.00  0.00    +0.000 C 
ATOM     17  F   UNL     1       7.183   4.106  17.850  0.00  0.00    +0.000 F 
ATOM     18  F   UNL     1       7.287   6.265  17.619  0.00  0.00    +0.000 F 
ATOM     19  F   UNL     1       7.010   5.390  19.589  0.00  0.00    +0.000 F 
ENDBRANCH  14  16
ENDBRANCH   4  10
BRANCH   9  20
ATOM     20  C   UNL     1      -0.573  10.412  19.192  0.00  0.00    +0.000 A 
ATOM     21  C   UNL     1      -1.182   9.618  18.190  0.00  0.00    +0.000 A 
ATOM     22  C   UNL     1      -2.409   9.965  17.629  0.00  0.00    +0.000 A 
ATOM     23  C   UNL     1      -3.051  11.129  18.039  0.00  0.00    +0.000 A 
ATOM     24  C   UNL     1      -2.480  11.923  19.039  0.00  0.00    +0.000 A 
ATOM     25  C   UNL     1      -1.248  11.580  19.646  0.00  0.00    +0.000 A 
BRANCH  25  26
ATOM     26  C   UNL     1      -0.727  12.503  20.657  0.00  0.00    +0.000 A 
ATOM     27  C   UNL     1       0.304  13.428  20.680  0.00  0.00    +0.000 A 
ATOM     28  C   UNL     1       0.318  13.995  21.979  0.00  0.00    +0.000 A 
ATOM     29  C   UNL     1      -0.717  13.408  22.662  0.00  0.00    +0.000 A 
ATOM     30  O   UNL     1      -1.368  12.528  21.861  0.00  0.00    +0.000 OA
ENDBRANCH  25  26
BRANCH  23  31
ATOM     31  C   UNL     1      -4.276  11.528  17.421  0.00  0.00    +0.000 C 
ATOM     32  N   UNL     1      -5.276  11.868  16.932  0.00  0.00    +0.000 NA
ENDBRANCH  23  31
ENDBRANCH   9  20
BRANCH   1  34
ATOM     33  C   UNL     1       0.416   9.663  22.918  0.00  0.00    +0.000 C 
ATOM     34  C   UNL     1       0.016   8.794  21.746  0.00  0.00    +0.000 C 
ATOM     35  O   UNL     1      -1.019   8.130  21.812  0.00  0.00    +0.000 OA
ENDBRANCH   1  34
TORSDOF 6
ENDMDL
MODEL 2
REMARK VINA RESULT:      -8.0      0.638      1.021
REMARK  Name = 
REMARK  9 active torsions:
REMARK  status: ('A' for Active; 'I' for Inactive)
REMARK    1  A    between atoms: C_1  and  C_2
REMARK    2  A    between atoms: C_2  and  C_4
REMARK    3  A    between atoms: C_5  and  C_6
REMARK    4  A    between atoms: N_7  and  C_8
REMARK    5  A    between atoms: C_12  and  C_13
REMARK    6  A    between atoms: N_20  and  C_21
REMARK    7  A    between atoms: C_22  and  C_23
REMARK    8  A    between atoms: C_26  and  C_27
REMARK    9  A    between atoms: C_30  and  C_31
REMARK                            x       y       z     vdW  Elec       q    Type
REMARK                         _______ _______ _______ _____ _____    ______ ____
ROOT
ATOM      1  C   UNL     1       0.958   8.667  20.442  0.00  0.00    +0.000 C 
ATOM      2  C   UNL     1       1.590   7.542  20.035  0.00  0.00    +0.000 C 
ATOM      3  C   UNL     1       1.645   6.262  20.850  0.00  0.00    +0.000 C 
ATOM      4  N   UNL     1       2.302   7.545  18.817  0.00  0.00    +0.000 N 
ATOM      5  C   UNL     1       2.446   8.691  18.017  0.00  0.00    +0.000 C 
ATOM      6  O   UNL     1       3.103   8.691  16.970  0.00  0.00    +0.000 OA
ATOM      7  N   UNL     1       1.811   9.841  18.438  0.00  0.00    +0.000 N 
ATOM      8  C   UNL     1       2.017  11.058  17.656  0.00  0.00    +0.000 C 
ATOM      9  C   UNL     1       0.943   9.930  19.616  0.00  0.00    +0.000 C 
ENDROOT
BRANCH   4  10
ATOM     10  C   UNL     1       2.959   6.367  18.314  0.00  0.00    +0.000 A 
ATOM     11  C   UNL     1       2.218   5.244  17.933  0.00  0.00    +0.000 A 
ATOM     12  C   UNL     1       2.861   4.109  17.438  0.00  0.00    +0.000 A 
ATOM     13  C   UNL     1       4.253   4.080  17.334  0.00  0.00    +0.000 A 
ATOM     14  C   UNL     1       5.017   5.193  17.710  0.00  0.00    +0.000 A 
ATOM     15  C   UNL     1       4.357   6.342  18.181  0.00  0.00    +0.000 A 
BRANCH  14  16
ATOM     16  C   UNL     1       6.523   5.164  17.645  0.00  0.00    +0.000 C 
ATOM     17  F   UNL     1       7.067   6.290  17.103  0.00  0.00    +0.000 F 
ATOM     18  F   UNL     1       7.110   5.025  18.869  0.00  0.00    +0.000 F 
ATOM     19  F   UNL     1       6.990   4.133  16.891  0.00  0.00    +0.000 F 
ENDBRANCH  14  16
ENDBRANCH   4  10
BRANCH   9  20
ATOM     20  C   UNL     1      -0.475  10.376  19.201  0.00  0.00    +0.000 A 
ATOM     21  C   UNL     1      -1.200   9.537  18.319  0.00  0.00    +0.000 A 
ATOM     22  C   UNL     1      -2.436   9.915  17.802  0.00  0.00    +0.000 A 
ATOM     23  C   UNL     1      -2.973  11.155  18.136  0.00  0.00    +0.000 A 
ATOM     24  C   UNL     1      -2.287  11.995  19.017  0.00  0.00    +0.000 A 
ATOM     25  C   UNL     1      -1.042  11.625  19.579  0.00  0.00    +0.000 A 
BRANCH  25  26
ATOM     26  C   UNL     1      -0.397  12.599  20.463  0.00  0.00    +0.000 A 
ATOM     27  C   UNL     1      -0.515  12.908  21.808  0.00  0.00    +0.000 A 
ATOM     28  C   UNL     1       0.378  13.980  22.063  0.00  0.00    +0.000 A 
ATOM     29  C   UNL     1       1.006  14.244  20.872  0.00  0.00    +0.000 A 
ATOM     30  O   UNL     1       0.563  13.396  19.910  0.00  0.00    +0.000 OA
ENDBRANCH  25  26
BRANCH  23  31
ATOM     31  C   UNL     1      -4.209  11.579  17.556  0.00  0.00    +0.000 C 
ATOM     32  N   UNL     1      -5.226  11.916  17.102  0.00  0.00    +0.000 NA
ENDBRANCH  23  31
ENDBRANCH   9  20
BRANCH   1  34
ATOM     33  C   UNL     1       0.637   9.497  22.905  0.00  0.00    +0.000 C 
ATOM     34  C   UNL     1       0.139   8.707  21.716  0.00  0.00    +0.000 C 
ATOM     35  O   UNL     1      -0.940   8.118  21.791  0.00  0.00    +0.000 OA
ENDBRANCH   1  34
TORSDOF 6
ENDMDL
MODEL 3
REMARK VINA RESULT:      -7.7      1.793      2.207
REMARK  Name = 
REMARK  9 active torsions:
REMARK  status: ('A' for Active; 'I' for Inactive)
REMARK    1  A    between atoms: C_1  and  C_2
REMARK    2  A    between atoms: C_2  and  C_4
REMARK    3  A    between atoms: C_5  and  C_6
REMARK    4  A    between atoms: N_7  and  C_8
REMARK    5  A    between atoms: C_12  and  C_13
REMARK    6  A    between atoms: N_20  and  C_21
REMARK    7  A    between atoms: C_22  and  C_23
REMARK    8  A    between atoms: C_26  and  C_27
REMARK    9  A    between atoms: C_30  and  C_31
REMARK                            x       y       z     vdW  Elec       q    Type
REMARK                         _______ _______ _______ _____ _____    ______ ____
ROOT
ATOM      1  C   UNL     1       0.885   8.741  20.524  0.00  0.00    +0.000 C 
ATOM      2  C   UNL     1       1.517   7.599  20.166  0.00  0.00    +0.000 C 
ATOM      3  C   UNL     1       1.557   6.349  21.027  0.00  0.00    +0.000 C 
ATOM      4  N   UNL     1       2.243   7.556  18.957  0.00  0.00    +0.000 N 
ATOM      5  C   UNL     1       2.401   8.673  18.118  0.00  0.00    +0.000 C 
ATOM      6  O   UNL     1       3.071   8.633  17.080  0.00  0.00    +0.000 OA
ATOM      7  N   UNL     1       1.766   9.839  18.491  0.00  0.00    +0.000 N 
ATOM      8  C   UNL     1       1.985  11.026  17.667  0.00  0.00    +0.000 C 
ATOM      9  C   UNL     1       0.884   9.973  19.653  0.00  0.00    +0.000 C 
ENDROOT
BRANCH   4  10
ATOM     10  C   UNL     1       2.902   6.359  18.504  0.00  0.00    +0.000 A 
ATOM     11  C   UNL     1       4.201   6.411  17.989  0.00  0.00    +0.000 A 
ATOM     12  C   UNL     1       4.837   5.245  17.560  0.00  0.00    +0.000 A 
ATOM     13  C   UNL     1       4.173   4.018  17.627  0.00  0.00    +0.000 A 
ATOM     14  C   UNL     1       2.871   3.942  18.139  0.00  0.00    +0.000 A 
ATOM     15  C   UNL     1       2.251   5.118  18.595  0.00  0.00    +0.000 A 
BRANCH  14  16
ATOM     16  C   UNL     1       2.124   2.633  18.179  0.00  0.00    +0.000 C 
ATOM     17  F   UNL     1       0.769   2.780  18.197  0.00  0.00    +0.000 F 
ATOM     18  F   UNL     1       2.393   1.829  17.110  0.00  0.00    +0.000 F 
ATOM     19  F   UNL     1       2.426   1.897  19.282  0.00  0.00    +0.000 F 
ENDBRANCH  14  16
ENDBRANCH   4  10
BRANCH   9  20
ATOM     20  C   UNL     1      -0.527  10.408  19.206  0.00  0.00    +0.000 A 
ATOM     21  C   UNL     1      -1.199   9.598  18.257  0.00  0.00    +0.000 A 
ATOM     22  C   UNL     1      -2.423   9.975  17.711  0.00  0.00    +0.000 A 
ATOM     23  C   UNL     1      -3.001  11.185  18.083  0.00  0.00    +0.000 A 
ATOM     24  C   UNL     1      -2.368  11.996  19.030  0.00  0.00    +0.000 A 
ATOM     25  C   UNL     1      -1.137  11.625  19.621  0.00  0.00    +0.000 A 
BRANCH  25  26
ATOM     26  C   UNL     1      -0.548  12.568  20.575  0.00  0.00    +0.000 A 
ATOM     27  C   UNL     1       0.544  13.418  20.542  0.00  0.00    +0.000 A 
ATOM     28  C   UNL     1       0.605  14.060  21.805  0.00  0.00    +0.000 A 
ATOM     29  C   UNL     1      -0.465  13.587  22.523  0.00  0.00    +0.000 A 
ATOM     30  O   UNL     1      -1.180  12.709  21.776  0.00  0.00    +0.000 OA
ENDBRANCH  25  26
BRANCH  23  31
ATOM     31  C   UNL     1      -4.223  11.611  17.477  0.00  0.00    +0.000 C 
ATOM     32  N   UNL     1      -5.214  11.945  16.965  0.00  0.00    +0.000 NA
ENDBRANCH  23  31
ENDBRANCH   9  20
BRANCH   1  34
ATOM     33  C   UNL     1       0.478   9.749  22.907  0.00  0.00    +0.000 C 
ATOM     34  C   UNL     1       0.050   8.829  21.786  0.00  0.00    +0.000 C 
ATOM     35  O   UNL     1      -0.985   8.173  21.905  0.00  0.00    +0.000 OA
ENDBRANCH   1  34
TORSDOF 6
ENDMDL
MODEL 4
REMARK VINA RESULT:      -7.2      2.011      2.480
REMARK  Name = 
REMARK  9 active torsions:
REMARK  status: ('A' for Active; 'I' for Inactive)
REMARK    1  A    between atoms: C_1  and  C_2
REMARK    2  A    between atoms: C_2  and  C_4
REMARK    3  A    between atoms: C_5  and  C_6
REMARK    4  A    between atoms: N_7  and  C_8
REMARK    5  A    between atoms: C_12  and  C_13
REMARK    6  A    between atoms: N_20  and  C_21
REMARK    7  A    between atoms: C_22  and  C_23
REMARK    8  A    between atoms: C_26  and  C_27
REMARK    9  A    between atoms: C_30  and  C_31
REMARK                            x       y       z     vdW  Elec       q    Type
REMARK                         _______ _______ _______ _____ _____    ______ ____
ROOT
ATOM      1  C   UNL     1       1.213   8.944  20.541  0.00  0.00    +0.000 C 
ATOM      2  C   UNL     1       1.783   7.769  20.188  0.00  0.00    +0.000 C 
ATOM      3  C   UNL     1       1.895   6.571  21.115  0.00  0.00    +0.000 C 
ATOM      4  N   UNL     1       2.373   7.636  18.913  0.00  0.00    +0.000 N 
ATOM      5  C   UNL     1       2.458   8.696  17.994  0.00  0.00    +0.000 C 
ATOM      6  O   UNL     1       3.010   8.579  16.895  0.00  0.00    +0.000 OA
ATOM      7  N   UNL     1       1.887   9.897  18.359  0.00  0.00    +0.000 N 
ATOM      8  C   UNL     1       2.036  11.027  17.445  0.00  0.00    +0.000 C 
ATOM      9  C   UNL     1       1.139  10.122  19.600  0.00  0.00    +0.000 C 
ENDROOT
BRANCH   4  10
ATOM     10  C   UNL     1       2.958   6.399  18.467  0.00  0.00    +0.000 A 
ATOM     11  C   UNL     1       4.248   6.372  17.927  0.00  0.00    +0.000 A 
ATOM     12  C   UNL     1       4.812   5.168  17.506  0.00  0.00    +0.000 A 
ATOM     13  C   UNL     1       4.085   3.980  17.605  0.00  0.00    +0.000 A 
ATOM     14  C   UNL     1       2.791   3.981  18.141  0.00  0.00    +0.000 A 
ATOM     15  C   UNL     1       2.243   5.196  18.589  0.00  0.00    +0.000 A 
BRANCH  14  16
ATOM     16  C   UNL     1       1.975   2.716  18.215  0.00  0.00    +0.000 C 
ATOM     17  F   UNL     1       2.234   1.965  19.323  0.00  0.00    +0.000 F 
ATOM     18  F   UNL     1       0.630   2.943  18.231  0.00  0.00    +0.000 F 
ATOM     19  F   UNL     1       2.200   1.892  17.156  0.00  0.00    +0.000 F 
ENDBRANCH  14  16
ENDBRANCH   4  10
BRANCH   9  20
ATOM     20  C   UNL     1      -0.305  10.563  19.280  0.00  0.00    +0.000 A 
ATOM     21  C   UNL     1      -1.107   9.689  18.506  0.00  0.00    +0.000 A 
ATOM     22  C   UNL     1      -2.379  10.054  18.073  0.00  0.00    +0.000 A 
ATOM     23  C   UNL     1      -2.877  11.316  18.384  0.00  0.00    +0.000 A 
ATOM     24  C   UNL     1      -2.113  12.193  19.161  0.00  0.00    +0.000 A 
ATOM     25  C   UNL     1      -0.829  11.837  19.637  0.00  0.00    +0.000 A 
BRANCH  25  26
ATOM     26  C   UNL     1      -0.105  12.847  20.412  0.00  0.00    +0.000 A 
ATOM     27  C   UNL     1      -0.090  13.210  21.749  0.00  0.00    +0.000 A 
ATOM     28  C   UNL     1       0.816  14.294  21.870  0.00  0.00    +0.000 A 
ATOM     29  C   UNL     1       1.320  14.511  20.613  0.00  0.00    +0.000 A 
ATOM     30  O   UNL     1       0.789  13.624  19.735  0.00  0.00    +0.000 OA
ENDBRANCH  25  26
BRANCH  23  31
ATOM     31  C   UNL     1      -4.152  11.725  17.886  0.00  0.00    +0.000 C 
ATOM     32  N   UNL     1      -5.201  12.042  17.493  0.00  0.00    +0.000 NA
ENDBRANCH  23  31
ENDBRANCH   9  20
BRANCH   1  34
ATOM     33  C   UNL     1      -0.863   8.559  22.090  0.00  0.00    +0.000 C 
ATOM     34  C   UNL     1       0.522   9.127  21.876  0.00  0.00    +0.000 C 
ATOM     35  O   UNL     1       1.081   9.718  22.800  0.00  0.00    +0.000 OA
ENDBRANCH   1  34
TORSDOF 6
ENDMDL
MODEL 5
REMARK VINA RESULT:      -6.7      6.133      9.660
REMARK  Name = 
REMARK  9 active torsions:
REMARK  status: ('A' for Active; 'I' for Inactive)
REMARK    1  A    between atoms: C_1  and  C_2
REMARK    2  A    between atoms: C_2  and  C_4
REMARK    3  A    between atoms: C_5  and  C_6
REMARK    4  A    between atoms: N_7  and  C_8
REMARK    5  A    between atoms: C_12  and  C_13
REMARK    6  A    between atoms: N_20  and  C_21
REMARK    7  A    between atoms: C_22  and  C_23
REMARK    8  A    between atoms: C_26  and  C_27
REMARK    9  A    between atoms: C_30  and  C_31
REMARK                            x       y       z     vdW  Elec       q    Type
REMARK                         _______ _______ _______ _____ _____    ______ ____
ROOT
ATOM      1  C   UNL     1      -1.830  11.871  21.211  0.00  0.00    +0.000 C 
ATOM      2  C   UNL     1      -3.085  12.337  21.409  0.00  0.00    +0.000 C 
ATOM      3  C   UNL     1      -3.654  12.677  22.775  0.00  0.00    +0.000 C 
ATOM      4  N   UNL     1      -3.962  12.467  20.311  0.00  0.00    +0.000 N 
ATOM      5  C   UNL     1      -3.618  12.074  19.006  0.00  0.00    +0.000 C 
ATOM      6  O   UNL     1      -4.407  12.157  18.058  0.00  0.00    +0.000 OA
ATOM      7  N   UNL     1      -2.342  11.587  18.807  0.00  0.00    +0.000 N 
ATOM      8  C   UNL     1      -1.999  11.104  17.471  0.00  0.00    +0.000 C 
ATOM      9  C   UNL     1      -1.304  11.523  19.840  0.00  0.00    +0.000 C 
ENDROOT
BRANCH   4  10
ATOM     10  C   UNL     1      -5.293  12.994  20.455  0.00  0.00    +0.000 A 
ATOM     11  C   UNL     1      -6.367  12.150  20.753  0.00  0.00    +0.000 A 
ATOM     12  C   UNL     1      -7.654  12.669  20.899  0.00  0.00    +0.000 A 
ATOM     13  C   UNL     1      -7.882  14.037  20.733  0.00  0.00    +0.000 A 
ATOM     14  C   UNL     1      -6.822  14.903  20.433  0.00  0.00    +0.000 A 
ATOM     15  C   UNL     1      -5.525  14.372  20.316  0.00  0.00    +0.000 A 
BRANCH  14  16
ATOM     16  C   UNL     1      -7.056  16.374  20.208  0.00  0.00    +0.000 C 
ATOM     17  F   UNL     1      -5.920  17.069  19.917  0.00  0.00    +0.000 F 
ATOM     18  F   UNL     1      -7.916  16.629  19.179  0.00  0.00    +0.000 F 
ATOM     19  F   UNL     1      -7.590  16.988  21.298  0.00  0.00    +0.000 F 
ENDBRANCH  14  16
ENDBRANCH   4  10
BRANCH   9  20
ATOM     20  C   UNL     1      -0.080  12.363  19.419  0.00  0.00    +0.000 A 
ATOM     21  C   UNL     1      -0.220  13.772  19.401  0.00  0.00    +0.000 A 
ATOM     22  C   UNL     1       0.793  14.601  18.926  0.00  0.00    +0.000 A 
ATOM     23  C   UNL     1       1.968  14.041  18.433  0.00  0.00    +0.000 A 
ATOM     24  C   UNL     1       2.140  12.654  18.455  0.00  0.00    +0.000 A 
ATOM     25  C   UNL     1       1.139  11.790  18.958  0.00  0.00    +0.000 A 
BRANCH  25  26
ATOM     26  C   UNL     1       1.412  10.351  18.900  0.00  0.00    +0.000 A 
ATOM     27  C   UNL     1       1.793   9.482  17.892  0.00  0.00    +0.000 A 
ATOM     28  C   UNL     1       1.872   8.190  18.471  0.00  0.00    +0.000 A 
ATOM     29  C   UNL     1       1.564   8.350  19.799  0.00  0.00    +0.000 A 
ATOM     30  O   UNL     1       1.313   9.655  20.069  0.00  0.00    +0.000 OA
ENDBRANCH  25  26
BRANCH  23  31
ATOM     31  C   UNL     1       2.984  14.881  17.881  0.00  0.00    +0.000 C 
ATOM     32  N   UNL     1       3.817  15.571  17.451  0.00  0.00    +0.000 NA
ENDBRANCH  23  31
ENDBRANCH   9  20
BRANCH   1  34
ATOM     33  C   UNL     1      -0.537  10.406  22.954  0.00  0.00    +0.000 C 
ATOM     34  C   UNL     1      -0.832  11.758  22.344  0.00  0.00    +0.000 C 
ATOM     35  O   UNL     1      -0.241  12.753  22.767  0.00  0.00    +0.000 OA
ENDBRANCH   1  34
TORSDOF 6
ENDMDL
MODEL 6
REMARK VINA RESULT:      -6.4      2.780      4.864
REMARK  Name = 
REMARK  9 active torsions:
REMARK  status: ('A' for Active; 'I' for Inactive)
REMARK    1  A    between atoms: C_1  and  C_2
REMARK    2  A    between atoms: C_2  and  C_4
REMARK    3  A    between atoms: C_5  and  C_6
REMARK    4  A    between atoms: N_7  and  C_8
REMARK    5  A    between atoms: C_12  and  C_13
REMARK    6  A    between atoms: N_20  and  C_21
REMARK    7  A    between atoms: C_22  and  C_23
REMARK    8  A    between atoms: C_26  and  C_27
REMARK    9  A    between atoms: C_30  and  C_31
REMARK                            x       y       z     vdW  Elec       q    Type
REMARK                         _______ _______ _______ _____ _____    ______ ____
ROOT
ATOM      1  C   UNL     1      -0.787  10.912  19.495  0.00  0.00    +0.000 C 
ATOM      2  C   UNL     1       0.026   9.953  18.994  0.00  0.00    +0.000 C 
ATOM      3  C   UNL     1       0.137   9.628  17.515  0.00  0.00    +0.000 C 
ATOM      4  N   UNL     1       0.779   9.148  19.875  0.00  0.00    +0.000 N 
ATOM      5  C   UNL     1       0.684   9.248  21.274  0.00  0.00    +0.000 C 
ATOM      6  O   UNL     1       1.321   8.512  22.036  0.00  0.00    +0.000 OA
ATOM      7  N   UNL     1      -0.153  10.218  21.784  0.00  0.00    +0.000 N 
ATOM      8  C   UNL     1      -0.319  10.279  23.234  0.00  0.00    +0.000 C 
ATOM      9  C   UNL     1      -0.889  11.193  20.975  0.00  0.00    +0.000 C 
ENDROOT
BRANCH   4  10
ATOM     10  C   UNL     1       1.690   8.141  19.398  0.00  0.00    +0.000 A 
ATOM     11  C   UNL     1       2.536   8.398  18.315  0.00  0.00    +0.000 A 
ATOM     12  C   UNL     1       3.422   7.420  17.863  0.00  0.00    +0.000 A 
ATOM     13  C   UNL     1       3.460   6.168  18.482  0.00  0.00    +0.000 A 
ATOM     14  C   UNL     1       2.622   5.887  19.569  0.00  0.00    +0.000 A 
ATOM     15  C   UNL     1       1.752   6.890  20.033  0.00  0.00    +0.000 A 
BRANCH  14  16
ATOM     16  C   UNL     1       2.619   4.528  20.221  0.00  0.00    +0.000 C 
ATOM     17  F   UNL     1       3.768   3.824  20.020  0.00  0.00    +0.000 F 
ATOM     18  F   UNL     1       2.452   4.581  21.574  0.00  0.00    +0.000 F 
ATOM     19  F   UNL     1       1.618   3.732  19.755  0.00  0.00    +0.000 F 
ENDBRANCH  14  16
ENDBRANCH   4  10
BRANCH   9  20
ATOM     20  C   UNL     1      -0.471  12.629  21.358  0.00  0.00    +0.000 A 
ATOM     21  C   UNL     1       0.856  13.030  21.068  0.00  0.00    +0.000 A 
ATOM     22  C   UNL     1       1.353  14.263  21.482  0.00  0.00    +0.000 A 
ATOM     23  C   UNL     1       0.542  15.122  22.217  0.00  0.00    +0.000 A 
ATOM     24  C   UNL     1      -0.777  14.758  22.503  0.00  0.00    +0.000 A 
ATOM     25  C   UNL     1      -1.317  13.523  22.072  0.00  0.00    +0.000 A 
BRANCH  25  26
ATOM     26  C   UNL     1      -2.700  13.232  22.458  0.00  0.00    +0.000 A 
ATOM     27  C   UNL     1      -3.898  13.152  21.768  0.00  0.00    +0.000 A 
ATOM     28  C   UNL     1      -4.903  12.854  22.722  0.00  0.00    +0.000 A 
ATOM     29  C   UNL     1      -4.260  12.743  23.929  0.00  0.00    +0.000 A 
ATOM     30  O   UNL     1      -2.928  12.943  23.771  0.00  0.00    +0.000 OA
ENDBRANCH  25  26
BRANCH  23  31
ATOM     31  C   UNL     1       1.066  16.359  22.704  0.00  0.00    +0.000 C 
ATOM     32  N   UNL     1       1.494  17.358  23.121  0.00  0.00    +0.000 NA
ENDBRANCH  23  31
ENDBRANCH   9  20
BRANCH   1  34
ATOM     33  C   UNL     1      -3.068  11.626  18.425  0.00  0.00    +0.000 C 
ATOM     34  C   UNL     1      -1.580  11.837  18.596  0.00  0.00    +0.000 C 
ATOM     35  O   UNL     1      -1.033  12.773  18.013  0.00  0.00    +0.000 OA
ENDBRANCH   1  34
TORSDOF 6
ENDMDL
MODEL 7
REMARK VINA RESULT:      -6.2      2.753      4.737
REMARK  Name = 
REMARK  9 active torsions:
REMARK  status: ('A' for Active; 'I' for Inactive)
REMARK    1  A    between atoms: C_1  and  C_2
REMARK    2  A    between atoms: C_2  and  C_4
REMARK    3  A    between atoms: C_5  and  C_6
REMARK    4  A    between atoms: N_7  and  C_8
REMARK    5  A    between atoms: C_12  and  C_13
REMARK    6  A    between atoms: N_20  and  C_21
REMARK    7  A    between atoms: C_22  and  C_23
REMARK    8  A    between atoms: C_26  and  C_27
REMARK    9  A    between atoms: C_30  and  C_31
REMARK                            x       y       z     vdW  Elec       q    Type
REMARK                         _______ _______ _______ _____ _____    ______ ____
ROOT
ATOM      1  C   UNL     1      -0.550  10.671  19.315  0.00  0.00    +0.000 C 
ATOM      2  C   UNL     1       0.197   9.710  18.724  0.00  0.00    +0.000 C 
ATOM      3  C   UNL     1       0.156   9.402  17.238  0.00  0.00    +0.000 C 
ATOM      4  N   UNL     1       1.027   8.888  19.516  0.00  0.00    +0.000 N 
ATOM      5  C   UNL     1       1.075   8.972  20.918  0.00  0.00    +0.000 C 
ATOM      6  O   UNL     1       1.777   8.222  21.604  0.00  0.00    +0.000 OA
ATOM      7  N   UNL     1       0.303   9.944  21.520  0.00  0.00    +0.000 N 
ATOM      8  C   UNL     1       0.285   9.990  22.981  0.00  0.00    +0.000 C 
ATOM      9  C   UNL     1      -0.501  10.936  20.800  0.00  0.00    +0.000 C 
ENDROOT
BRANCH   4  10
ATOM     10  C   UNL     1       1.875   7.878  18.939  0.00  0.00    +0.000 A 
ATOM     11  C   UNL     1       2.967   8.233  18.141  0.00  0.00    +0.000 A 
ATOM     12  C   UNL     1       3.790   7.248  17.592  0.00  0.00    +0.000 A 
ATOM     13  C   UNL     1       3.518   5.898  17.824  0.00  0.00    +0.000 A 
ATOM     14  C   UNL     1       2.429   5.518  18.619  0.00  0.00    +0.000 A 
ATOM     15  C   UNL     1       1.624   6.519  19.190  0.00  0.00    +0.000 A 
BRANCH  14  16
ATOM     16  C   UNL     1       2.096   4.065  18.844  0.00  0.00    +0.000 C 
ATOM     17  F   UNL     1       1.368   3.841  19.974  0.00  0.00    +0.000 F 
ATOM     18  F   UNL     1       1.372   3.517  17.825  0.00  0.00    +0.000 F 
ATOM     19  F   UNL     1       3.208   3.291  18.966  0.00  0.00    +0.000 F 
ENDBRANCH  14  16
ENDBRANCH   4  10
BRANCH   9  20
ATOM     20  C   UNL     1      -0.031  12.362  21.154  0.00  0.00    +0.000 A 
ATOM     21  C   UNL     1       1.295  12.724  20.816  0.00  0.00    +0.000 A 
ATOM     22  C   UNL     1       1.840  13.947  21.200  0.00  0.00    +0.000 A 
ATOM     23  C   UNL     1       1.078  14.835  21.954  0.00  0.00    +0.000 A 
ATOM     24  C   UNL     1      -0.241  14.510  22.287  0.00  0.00    +0.000 A 
ATOM     25  C   UNL     1      -0.828  13.286  21.887  0.00  0.00    +0.000 A 
BRANCH  25  26
ATOM     26  C   UNL     1      -2.204  13.036  22.323  0.00  0.00    +0.000 A 
ATOM     27  C   UNL     1      -3.444  13.148  21.715  0.00  0.00    +0.000 A 
ATOM     28  C   UNL     1      -4.411  12.777  22.683  0.00  0.00    +0.000 A 
ATOM     29  C   UNL     1      -3.708  12.436  23.811  0.00  0.00    +0.000 A 
ATOM     30  O   UNL     1      -2.376  12.564  23.591  0.00  0.00    +0.000 OA
ENDBRANCH  25  26
BRANCH  23  31
ATOM     31  C   UNL     1       1.651  16.062  22.410  0.00  0.00    +0.000 C 
ATOM     32  N   UNL     1       2.106  17.072  22.765  0.00  0.00    +0.000 NA
ENDBRANCH  23  31
ENDBRANCH   9  20
BRANCH   1  34
ATOM     33  C   UNL     1      -2.901  11.337  18.372  0.00  0.00    +0.000 C 
ATOM     34  C   UNL     1      -1.421  11.613  18.509  0.00  0.00    +0.000 C 
ATOM     35  O   UNL     1      -0.942  12.616  17.978  0.00  0.00    +0.000 OA
ENDBRANCH   1  34
TORSDOF 6
ENDMDL
MODEL 8
REMARK VINA RESULT:      -6.0      5.579      7.392
REMARK  Name = 
REMARK  9 active torsions:
REMARK  status: ('A' for Active; 'I' for Inactive)
REMARK    1  A    between atoms: C_1  and  C_2
REMARK    2  A    between atoms: C_2  and  C_4
REMARK    3  A    between atoms: C_5  and  C_6
REMARK    4  A    between atoms: N_7  and  C_8
REMARK    5  A    between atoms: C_12  and  C_13
REMARK    6  A    between atoms: N_20  and  C_21
REMARK    7  A    between atoms: C_22  and  C_23
REMARK    8  A    between atoms: C_26  and  C_27
REMARK    9  A    between atoms: C_30  and  C_31
REMARK                            x       y       z     vdW  Elec       q    Type
REMARK                         _______ _______ _______ _____ _____    ______ ____
ROOT
ATOM      1  C   UNL     1       4.100  15.676  20.887  0.00  0.00    +0.000 C 
ATOM      2  C   UNL     1       5.423  15.418  21.008  0.00  0.00    +0.000 C 
ATOM      3  C   UNL     1       6.166  15.410  22.332  0.00  0.00    +0.000 C 
ATOM      4  N   UNL     1       6.199  15.204  19.849  0.00  0.00    +0.000 N 
ATOM      5  C   UNL     1       5.677  15.306  18.548  0.00  0.00    +0.000 C 
ATOM      6  O   UNL     1       6.375  15.153  17.539  0.00  0.00    +0.000 OA
ATOM      7  N   UNL     1       4.331  15.580  18.426  0.00  0.00    +0.000 N 
ATOM      8  C   UNL     1       3.793  15.763  17.080  0.00  0.00    +0.000 C 
ATOM      9  C   UNL     1       3.399  15.698  19.551  0.00  0.00    +0.000 C 
ENDROOT
BRANCH   4  10
ATOM     10  C   UNL     1       7.602  14.887  19.917  0.00  0.00    +0.000 A 
ATOM     11  C   UNL     1       8.568  15.888  19.776  0.00  0.00    +0.000 A 
ATOM     12  C   UNL     1       9.925  15.575  19.851  0.00  0.00    +0.000 A 
ATOM     13  C   UNL     1      10.330  14.253  20.052  0.00  0.00    +0.000 A 
ATOM     14  C   UNL     1       9.381  13.233  20.195  0.00  0.00    +0.000 A 
ATOM     15  C   UNL     1       8.015  13.565  20.146  0.00  0.00    +0.000 A 
BRANCH  14  16
ATOM     16  C   UNL     1       9.800  11.796  20.369  0.00  0.00    +0.000 C 
ATOM     17  F   UNL     1       8.963  11.077  21.169  0.00  0.00    +0.000 F 
ATOM     18  F   UNL     1       9.864  11.109  19.192  0.00  0.00    +0.000 F 
ATOM     19  F   UNL     1      11.033  11.680  20.933  0.00  0.00    +0.000 F 
ENDBRANCH  14  16
ENDBRANCH   4  10
BRANCH   9  20
ATOM     20  C   UNL     1       2.277  14.646  19.428  0.00  0.00    +0.000 A 
ATOM     21  C   UNL     1       2.645  13.279  19.475  0.00  0.00    +0.000 A 
ATOM     22  C   UNL     1       1.717  12.264  19.257  0.00  0.00    +0.000 A 
ATOM     23  C   UNL     1       0.396  12.589  18.963  0.00  0.00    +0.000 A 
ATOM     24  C   UNL     1       0.001  13.930  18.928  0.00  0.00    +0.000 A 
ATOM     25  C   UNL     1       0.917  14.980  19.172  0.00  0.00    +0.000 A 
BRANCH  25  26
ATOM     26  C   UNL     1       0.401  16.348  19.074  0.00  0.00    +0.000 A 
ATOM     27  C   UNL     1      -0.033  17.143  18.026  0.00  0.00    +0.000 A 
ATOM     28  C   UNL     1      -0.390  18.397  18.582  0.00  0.00    +0.000 A 
ATOM     29  C   UNL     1      -0.181  18.287  19.934  0.00  0.00    +0.000 A 
ATOM     30  O   UNL     1       0.270  17.045  20.240  0.00  0.00    +0.000 OA
ENDBRANCH  25  26
BRANCH  23  31
ATOM     31  C   UNL     1      -0.548  11.557  18.671  0.00  0.00    +0.000 C 
ATOM     32  N   UNL     1      -1.306  10.702  18.448  0.00  0.00    +0.000 NA
ENDBRANCH  23  31
ENDBRANCH   9  20
BRANCH   1  34
ATOM     33  C   UNL     1       2.867  17.261  22.568  0.00  0.00    +0.000 C 
ATOM     34  C   UNL     1       3.210  15.865  22.098  0.00  0.00    +0.000 C 
ATOM     35  O   UNL     1       2.745  14.895  22.698  0.00  0.00    +0.000 OA
ENDBRANCH   1  34
TORSDOF 6
ENDMDL
MODEL 9
REMARK VINA RESULT:      -5.9      3.133      4.796
REMARK  Name = 
REMARK  9 active torsions:
REMARK  status: ('A' for Active; 'I' for Inactive)
REMARK    1  A    between atoms: C_1  and  C_2
REMARK    2  A    between atoms: C_2  and  C_4
REMARK    3  A    between atoms: C_5  and  C_6
REMARK    4  A    between atoms: N_7  and  C_8
REMARK    5  A    between atoms: C_12  and  C_13
REMARK    6  A    between atoms: N_20  and  C_21
REMARK    7  A    between atoms: C_22  and  C_23
REMARK    8  A    between atoms: C_26  and  C_27
REMARK    9  A    between atoms: C_30  and  C_31
REMARK                            x       y       z     vdW  Elec       q    Type
REMARK                         _______ _______ _______ _____ _____    ______ ____
ROOT
ATOM      1  C   UNL     1      -1.738  11.066  18.967  0.00  0.00    +0.000 C 
ATOM      2  C   UNL     1      -0.837  10.127  18.595  0.00  0.00    +0.000 C 
ATOM      3  C   UNL     1      -0.933   9.327  17.307  0.00  0.00    +0.000 C 
ATOM      4  N   UNL     1       0.229   9.804  19.460  0.00  0.00    +0.000 N 
ATOM      5  C   UNL     1       0.377  10.369  20.738  0.00  0.00    +0.000 C 
ATOM      6  O   UNL     1       1.294  10.051  21.502  0.00  0.00    +0.000 OA
ATOM      7  N   UNL     1      -0.549  11.318  21.121  0.00  0.00    +0.000 N 
ATOM      8  C   UNL     1      -0.450  11.856  22.476  0.00  0.00    +0.000 C 
ATOM      9  C   UNL     1      -1.624  11.827  20.265  0.00  0.00    +0.000 C 
ENDROOT
BRANCH   4  10
ATOM     10  C   UNL     1       1.240   8.844  19.101  0.00  0.00    +0.000 A 
ATOM     11  C   UNL     1       2.176   9.132  18.102  0.00  0.00    +0.000 A 
ATOM     12  C   UNL     1       3.158   8.200  17.765  0.00  0.00    +0.000 A 
ATOM     13  C   UNL     1       3.204   6.963  18.413  0.00  0.00    +0.000 A 
ATOM     14  C   UNL     1       2.276   6.652  19.416  0.00  0.00    +0.000 A 
ATOM     15  C   UNL     1       1.308   7.610  19.767  0.00  0.00    +0.000 A 
BRANCH  14  16
ATOM     16  C   UNL     1       2.284   5.306  20.095  0.00  0.00    +0.000 C 
ATOM     17  F   UNL     1       1.191   4.544  19.808  0.00  0.00    +0.000 F 
ATOM     18  F   UNL     1       3.364   4.542  19.760  0.00  0.00    +0.000 F 
ATOM     19  F   UNL     1       2.310   5.410  21.452  0.00  0.00    +0.000 F 
ENDBRANCH  14  16
ENDBRANCH   4  10
BRANCH   9  20
ATOM     20  C   UNL     1      -1.479  13.351  20.074  0.00  0.00    +0.000 A 
ATOM     21  C   UNL     1      -0.410  13.816  19.270  0.00  0.00    +0.000 A 
ATOM     22  C   UNL     1      -0.134  15.175  19.137  0.00  0.00    +0.000 A 
ATOM     23  C   UNL     1      -0.907  16.106  19.823  0.00  0.00    +0.000 A 
ATOM     24  C   UNL     1      -1.979  15.675  20.610  0.00  0.00    +0.000 A 
ATOM     25  C   UNL     1      -2.299  14.303  20.742  0.00  0.00    +0.000 A 
BRANCH  25  26
ATOM     26  C   UNL     1      -3.422  13.964  21.620  0.00  0.00    +0.000 A 
ATOM     27  C   UNL     1      -3.536  13.658  22.966  0.00  0.00    +0.000 A 
ATOM     28  C   UNL     1      -4.907  13.395  23.213  0.00  0.00    +0.000 A 
ATOM     29  C   UNL     1      -5.552  13.582  22.016  0.00  0.00    +0.000 A 
ATOM     30  O   UNL     1      -4.665  13.951  21.058  0.00  0.00    +0.000 OA
ENDBRANCH  25  26
BRANCH  23  31
ATOM     31  C   UNL     1      -0.588  17.497  19.747  0.00  0.00    +0.000 C 
ATOM     32  N   UNL     1      -0.333  18.629  19.662  0.00  0.00    +0.000 NA
ENDBRANCH  23  31
ENDBRANCH   9  20
BRANCH   1  34
ATOM     33  C   UNL     1      -4.277  11.600  18.610  0.00  0.00    +0.000 C 
ATOM     34  C   UNL     1      -2.874  11.487  18.057  0.00  0.00    +0.000 C 
ATOM     35  O   UNL     1      -2.668  11.758  16.874  0.00  0.00    +0.000 OA
ENDBRANCH   1  34
TORSDOF 6
ENDMDL
