MODEL 1
REMARK VINA RESULT:      -9.2      0.000      0.000
REMARK  Name = 
REMARK  7 active torsions:
REMARK  status: ('A' for Active; 'I' for Inactive)
REMARK    1  A    between atoms: C_1  and  C_2
REMARK    2  A    between atoms: C_2  and  C_3
REMARK    3  A    between atoms: C_6  and  C_7
REMARK    4  A    between atoms: N_8  and  N_9
REMARK    5  A    between atoms: C_10  and  C_12
REMARK    6  A    between atoms: C_14  and  C_15
REMARK    7  A    between atoms: C_25  and  O_26
REMARK                            x       y       z     vdW  Elec       q    Type
REMARK                         _______ _______ _______ _____ _____    ______ ____
ROOT
ATOM      1  C   UNL     1       6.512   5.850  17.555  0.00  0.00    +0.000 A 
ATOM      2  C   UNL     1       5.532   5.393  18.465  0.00  0.00    +0.000 A 
ATOM      3  C   UNL     1       4.550   4.447  18.110  0.00  0.00    +0.000 A 
ATOM      4  C   UNL     1       4.585   3.970  16.791  0.00  0.00    +0.000 A 
ATOM      5  C   UNL     1       5.550   4.403  15.874  0.00  0.00    +0.000 A 
ATOM      6  C   UNL     1       6.510   5.341  16.256  0.00  0.00    +0.000 A 
ENDROOT
BRANCH   3   7
ATOM      7  C   UNL     1       3.531   3.980  19.085  0.00  0.00    +0.000 A 
ATOM      8  C   UNL     1       2.254   4.580  19.154  0.00  0.00    +0.000 A 
ATOM      9  C   UNL     1       1.291   4.144  20.069  0.00  0.00    +0.000 A 
ATOM     10  C   UNL     1       1.584   3.091  20.924  0.00  0.00    +0.000 A 
ATOM     11  F   UNL     1       0.658   2.671  21.796  0.00  0.00    +0.000 F 
ATOM     12  C   UNL     1       2.820   2.472  20.889  0.00  0.00    +0.000 A 
ATOM     13  C   UNL     1       3.777   2.923  19.983  0.00  0.00    +0.000 A 
ATOM     14  F   UNL     1       4.970   2.306  20.006  0.00  0.00    +0.000 F 
ENDBRANCH   3   7
BRANCH   1  16
ATOM     15  N   UNL     1       7.526   8.101  17.496  0.00  0.00    +0.000 N 
ATOM     16  C   UNL     1       7.504   6.840  18.077  0.00  0.00    +0.000 C 
ATOM     17  O   UNL     1       8.257   6.494  18.990  0.00  0.00    +0.000 OA
ATOM     18  H   UNL     1       6.888   8.324  16.736  0.00  0.00    +0.000 HD
BRANCH  15  20
ATOM     19  C   UNL     1       8.197  10.259  17.853  0.00  0.00    +0.000 C 
ATOM     20  N   UNL     1       8.450   8.996  17.944  0.00  0.00    +0.000 NA
BRANCH  19  24
ATOM     21  C   UNL     1      10.669  13.153  18.659  0.00  0.00    +0.000 A 
ATOM     22  C   UNL     1      11.081  12.058  19.390  0.00  0.00    +0.000 A 
ATOM     23  C   UNL     1      10.245  10.931  19.185  0.00  0.00    +0.000 A 
ATOM     24  C   UNL     1       9.207  11.190  18.310  0.00  0.00    +0.000 A 
ATOM     25  S   UNL     1       9.239  12.811  17.770  0.00  0.00    +0.000 S 
BRANCH  21  27
ATOM     26  C   UNL     1      11.385  15.014  17.156  0.00  0.00    +0.000 C 
ATOM     27  C   UNL     1      11.341  14.493  18.586  0.00  0.00    +0.000 C 
ENDBRANCH  21  27
ENDBRANCH  19  24
ENDBRANCH  15  20
ENDBRANCH   1  16
BRANCH   6  28
ATOM     28  O   UNL     1       7.446   5.739  15.338  0.00  0.00    +0.000 OA
ATOM     29  H   UNL     1       8.163   5.079  15.330  0.00  0.00    +0.000 HD
ENDBRANCH   6  28
TORSDOF 6
ENDMDL
MODEL 2
REMARK VINA RESULT:      -9.1      0.989      1.346
REMARK  Name = 
REMARK  7 active torsions:
REMARK  status: ('A' for Active; 'I' for Inactive)
REMARK    1  A    between atoms: C_1  and  C_2
REMARK    2  A    between atoms: C_2  and  C_3
REMARK    3  A    between atoms: C_6  and  C_7
REMARK    4  A    between atoms: N_8  and  N_9
REMARK    5  A    between atoms: C_10  and  C_12
REMARK    6  A    between atoms: C_14  and  C_15
REMARK    7  A    between atoms: C_25  and  O_26
REMARK                            x       y       z     vdW  Elec       q    Type
REMARK                         _______ _______ _______ _____ _____    ______ ____
ROOT
ATOM      1  C   UNL     1       6.541   5.889  17.507  0.00  0.00    +0.000 A 
ATOM      2  C   UNL     1       5.539   5.420  18.386  0.00  0.00    +0.000 A 
ATOM      3  C   UNL     1       4.584   4.458  18.003  0.00  0.00    +0.000 A 
ATOM      4  C   UNL     1       4.670   3.976  16.687  0.00  0.00    +0.000 A 
ATOM      5  C   UNL     1       5.657   4.421  15.801  0.00  0.00    +0.000 A 
ATOM      6  C   UNL     1       6.589   5.376  16.210  0.00  0.00    +0.000 A 
ENDROOT
BRANCH   3   7
ATOM      7  C   UNL     1       3.541   3.978  18.946  0.00  0.00    +0.000 A 
ATOM      8  C   UNL     1       3.861   3.108  20.012  0.00  0.00    +0.000 A 
ATOM      9  C   UNL     1       2.883   2.655  20.903  0.00  0.00    +0.000 A 
ATOM     10  C   UNL     1       1.569   3.073  20.749  0.00  0.00    +0.000 A 
ATOM     11  F   UNL     1       0.635   2.642  21.607  0.00  0.00    +0.000 F 
ATOM     12  C   UNL     1       1.211   3.926  19.722  0.00  0.00    +0.000 A 
ATOM     13  C   UNL     1       2.190   4.361  18.833  0.00  0.00    +0.000 A 
ATOM     14  F   UNL     1       1.788   5.168  17.836  0.00  0.00    +0.000 F 
ENDBRANCH   3   7
BRANCH   1  16
ATOM     15  N   UNL     1       7.486   8.170  17.505  0.00  0.00    +0.000 N 
ATOM     16  C   UNL     1       7.500   6.896  18.056  0.00  0.00    +0.000 C 
ATOM     17  O   UNL     1       8.259   6.552  18.965  0.00  0.00    +0.000 OA
ATOM     18  H   UNL     1       6.845   8.392  16.747  0.00  0.00    +0.000 HD
BRANCH  15  20
ATOM     19  C   UNL     1       8.202  10.334  17.712  0.00  0.00    +0.000 C 
ATOM     20  N   UNL     1       8.380   9.083  17.978  0.00  0.00    +0.000 NA
BRANCH  19  24
ATOM     21  C   UNL     1      10.465  13.313  18.779  0.00  0.00    +0.000 A 
ATOM     22  C   UNL     1      11.142  12.158  19.110  0.00  0.00    +0.000 A 
ATOM     23  C   UNL     1      10.407  10.991  18.774  0.00  0.00    +0.000 A 
ATOM     24  C   UNL     1       9.181  11.280  18.204  0.00  0.00    +0.000 A 
ATOM     25  S   UNL     1       8.921  12.966  18.110  0.00  0.00    +0.000 S 
BRANCH  21  27
ATOM     26  C   UNL     1      10.414  15.625  17.838  0.00  0.00    +0.000 C 
ATOM     27  C   UNL     1      10.957  14.723  18.937  0.00  0.00    +0.000 C 
ENDBRANCH  21  27
ENDBRANCH  19  24
ENDBRANCH  15  20
ENDBRANCH   1  16
BRANCH   6  28
ATOM     28  O   UNL     1       7.548   5.785  15.321  0.00  0.00    +0.000 OA
ATOM     29  H   UNL     1       7.710   6.735  15.467  0.00  0.00    +0.000 HD
ENDBRANCH   6  28
TORSDOF 6
ENDMDL
MODEL 3
REMARK VINA RESULT:      -9.0      0.888      1.084
REMARK  Name = 
REMARK  7 active torsions:
REMARK  status: ('A' for Active; 'I' for Inactive)
REMARK    1  A    between atoms: C_1  and  C_2
REMARK    2  A    between atoms: C_2  and  C_3
REMARK    3  A    between atoms: C_6  and  C_7
REMARK    4  A    between atoms: N_8  and  N_9
REMARK    5  A    between atoms: C_10  and  C_12
REMARK    6  A    between atoms: C_14  and  C_15
REMARK    7  A    between atoms: C_25  and  O_26
REMARK                            x       y       z     vdW  Elec       q    Type
REMARK                         _______ _______ _______ _____ _____    ______ ____
ROOT
ATOM      1  C   UNL     1       6.520   5.859  17.595  0.00  0.00    +0.000 A 
ATOM      2  C   UNL     1       5.547   5.400  18.511  0.00  0.00    +0.000 A 
ATOM      3  C   UNL     1       4.549   4.471  18.156  0.00  0.00    +0.000 A 
ATOM      4  C   UNL     1       4.560   4.013  16.830  0.00  0.00    +0.000 A 
ATOM      5  C   UNL     1       5.517   4.448  15.906  0.00  0.00    +0.000 A 
ATOM      6  C   UNL     1       6.493   5.368  16.288  0.00  0.00    +0.000 A 
ENDROOT
BRANCH   3   7
ATOM      7  C   UNL     1       3.538   4.002  19.138  0.00  0.00    +0.000 A 
ATOM      8  C   UNL     1       2.273   4.622  19.241  0.00  0.00    +0.000 A 
ATOM      9  C   UNL     1       1.318   4.183  20.163  0.00  0.00    +0.000 A 
ATOM     10  C   UNL     1       1.606   3.109  20.991  0.00  0.00    +0.000 A 
ATOM     11  F   UNL     1       0.687   2.686  21.870  0.00  0.00    +0.000 F 
ATOM     12  C   UNL     1       2.830   2.469  20.923  0.00  0.00    +0.000 A 
ATOM     13  C   UNL     1       3.780   2.921  20.010  0.00  0.00    +0.000 A 
ATOM     14  F   UNL     1       4.962   2.284  20.000  0.00  0.00    +0.000 F 
ENDBRANCH   3   7
BRANCH   1  16
ATOM     15  N   UNL     1       7.587   8.084  17.526  0.00  0.00    +0.000 N 
ATOM     16  C   UNL     1       7.530   6.829  18.116  0.00  0.00    +0.000 C 
ATOM     17  O   UNL     1       8.267   6.473  19.039  0.00  0.00    +0.000 OA
ATOM     18  H   UNL     1       6.961   8.316  16.759  0.00  0.00    +0.000 HD
BRANCH  15  20
ATOM     19  C   UNL     1       8.335  10.227  17.814  0.00  0.00    +0.000 C 
ATOM     20  N   UNL     1       8.528   8.960  17.975  0.00  0.00    +0.000 NA
BRANCH  19  24
ATOM     21  C   UNL     1      10.687  12.829  19.496  0.00  0.00    +0.000 A 
ATOM     22  C   UNL     1      11.320  12.400  18.349  0.00  0.00    +0.000 A 
ATOM     23  C   UNL     1      10.557  11.433  17.645  0.00  0.00    +0.000 A 
ATOM     24  C   UNL     1       9.363  11.136  18.274  0.00  0.00    +0.000 A 
ATOM     25  S   UNL     1       9.194  12.013  19.732  0.00  0.00    +0.000 S 
BRANCH  21  27
ATOM     26  C   UNL     1      10.010  14.526  21.198  0.00  0.00    +0.000 C 
ATOM     27  C   UNL     1      11.170  13.880  20.453  0.00  0.00    +0.000 C 
ENDBRANCH  21  27
ENDBRANCH  19  24
ENDBRANCH  15  20
ENDBRANCH   1  16
BRANCH   6  28
ATOM     28  O   UNL     1       7.421   5.769  15.363  0.00  0.00    +0.000 OA
ATOM     29  H   UNL     1       8.308   5.627  15.742  0.00  0.00    +0.000 HD
ENDBRANCH   6  28
TORSDOF 6
ENDMDL
MODEL 4
REMARK VINA RESULT:      -8.9      1.286      1.472
REMARK  Name = 
REMARK  7 active torsions:
REMARK  status: ('A' for Active; 'I' for Inactive)
REMARK    1  A    between atoms: C_1  and  C_2
REMARK    2  A    between atoms: C_2  and  C_3
REMARK    3  A    between atoms: C_6  and  C_7
REMARK    4  A    between atoms: N_8  and  N_9
REMARK    5  A    between atoms: C_10  and  C_12
REMARK    6  A    between atoms: C_14  and  C_15
REMARK    7  A    between atoms: C_25  and  O_26
REMARK                            x       y       z     vdW  Elec       q    Type
REMARK                         _______ _______ _______ _____ _____    ______ ____
ROOT
ATOM      1  C   UNL     1       6.523   5.836  17.185  0.00  0.00    +0.000 A 
ATOM      2  C   UNL     1       5.383   5.380  17.885  0.00  0.00    +0.000 A 
ATOM      3  C   UNL     1       4.423   4.531  17.300  0.00  0.00    +0.000 A 
ATOM      4  C   UNL     1       4.649   4.150  15.968  0.00  0.00    +0.000 A 
ATOM      5  C   UNL     1       5.774   4.584  15.257  0.00  0.00    +0.000 A 
ATOM      6  C   UNL     1       6.707   5.425  15.865  0.00  0.00    +0.000 A 
ENDROOT
BRANCH   3   7
ATOM      7  C   UNL     1       3.233   4.063  18.057  0.00  0.00    +0.000 A 
ATOM      8  C   UNL     1       2.565   2.868  17.708  0.00  0.00    +0.000 A 
ATOM      9  C   UNL     1       1.446   2.424  18.418  0.00  0.00    +0.000 A 
ATOM     10  C   UNL     1       0.981   3.160  19.497  0.00  0.00    +0.000 A 
ATOM     11  F   UNL     1      -0.088   2.729  20.179  0.00  0.00    +0.000 F 
ATOM     12  C   UNL     1       1.605   4.335  19.876  0.00  0.00    +0.000 A 
ATOM     13  C   UNL     1       2.711   4.776  19.155  0.00  0.00    +0.000 A 
ATOM     14  F   UNL     1       3.267   5.935  19.547  0.00  0.00    +0.000 F 
ENDBRANCH   3   7
BRANCH   1  16
ATOM     15  N   UNL     1       7.656   8.011  17.474  0.00  0.00    +0.000 N 
ATOM     16  C   UNL     1       7.467   6.716  17.939  0.00  0.00    +0.000 C 
ATOM     17  O   UNL     1       8.036   6.256  18.931  0.00  0.00    +0.000 OA
ATOM     18  H   UNL     1       7.167   8.330  16.641  0.00  0.00    +0.000 HD
BRANCH  15  20
ATOM     19  C   UNL     1       8.445  10.089  18.016  0.00  0.00    +0.000 C 
ATOM     20  N   UNL     1       8.540   8.807  18.137  0.00  0.00    +0.000 NA
BRANCH  19  24
ATOM     21  C   UNL     1      11.216  12.495  19.306  0.00  0.00    +0.000 A 
ATOM     22  C   UNL     1      10.752  11.796  20.400  0.00  0.00    +0.000 A 
ATOM     23  C   UNL     1       9.722  10.883  20.055  0.00  0.00    +0.000 A 
ATOM     24  C   UNL     1       9.414  10.912  18.709  0.00  0.00    +0.000 A 
ATOM     25  S   UNL     1      10.358  12.070  17.880  0.00  0.00    +0.000 S 
BRANCH  21  27
ATOM     26  C   UNL     1      11.905  14.789  18.601  0.00  0.00    +0.000 C 
ATOM     27  C   UNL     1      12.333  13.498  19.285  0.00  0.00    +0.000 C 
ENDBRANCH  21  27
ENDBRANCH  19  24
ENDBRANCH  15  20
ENDBRANCH   1  16
BRANCH   6  28
ATOM     28  O   UNL     1       7.802   5.825  15.145  0.00  0.00    +0.000 OA
ATOM     29  H   UNL     1       7.698   6.772  14.937  0.00  0.00    +0.000 HD
ENDBRANCH   6  28
TORSDOF 6
ENDMDL
MODEL 5
REMARK VINA RESULT:      -8.7      1.225      1.623
REMARK  Name = 
REMARK  7 active torsions:
REMARK  status: ('A' for Active; 'I' for Inactive)
REMARK    1  A    between atoms: C_1  and  C_2
REMARK    2  A    between atoms: C_2  and  C_3
REMARK    3  A    between atoms: C_6  and  C_7
REMARK    4  A    between atoms: N_8  and  N_9
REMARK    5  A    between atoms: C_10  and  C_12
REMARK    6  A    between atoms: C_14  and  C_15
REMARK    7  A    between atoms: C_25  and  O_26
REMARK                            x       y       z     vdW  Elec       q    Type
REMARK                         _______ _______ _______ _____ _____    ______ ____
ROOT
ATOM      1  C   UNL     1       6.627   6.021  17.382  0.00  0.00    +0.000 A 
ATOM      2  C   UNL     1       5.646   5.576  18.297  0.00  0.00    +0.000 A 
ATOM      3  C   UNL     1       4.742   4.539  17.995  0.00  0.00    +0.000 A 
ATOM      4  C   UNL     1       4.857   3.956  16.724  0.00  0.00    +0.000 A 
ATOM      5  C   UNL     1       5.824   4.375  15.803  0.00  0.00    +0.000 A 
ATOM      6  C   UNL     1       6.706   5.405  16.133  0.00  0.00    +0.000 A 
ENDROOT
BRANCH   3   7
ATOM      7  C   UNL     1       3.720   4.087  18.974  0.00  0.00    +0.000 A 
ATOM      8  C   UNL     1       3.972   3.010  19.853  0.00  0.00    +0.000 A 
ATOM      9  C   UNL     1       3.014   2.583  20.777  0.00  0.00    +0.000 A 
ATOM     10  C   UNL     1       1.790   3.232  20.846  0.00  0.00    +0.000 A 
ATOM     11  F   UNL     1       0.875   2.824  21.736  0.00  0.00    +0.000 F 
ATOM     12  C   UNL     1       1.501   4.293  20.008  0.00  0.00    +0.000 A 
ATOM     13  C   UNL     1       2.457   4.703  19.083  0.00  0.00    +0.000 A 
ATOM     14  F   UNL     1       2.119   5.721  18.273  0.00  0.00    +0.000 F 
ENDBRANCH   3   7
BRANCH   1  16
ATOM     15  N   UNL     1       7.360   8.377  17.292  0.00  0.00    +0.000 N 
ATOM     16  C   UNL     1       7.532   7.116  17.847  0.00  0.00    +0.000 C 
ATOM     17  O   UNL     1       8.390   6.853  18.693  0.00  0.00    +0.000 OA
ATOM     18  H   UNL     1       6.643   8.531  16.588  0.00  0.00    +0.000 HD
BRANCH  15  20
ATOM     19  C   UNL     1       8.600   9.409  18.916  0.00  0.00    +0.000 C 
ATOM     20  N   UNL     1       8.203   9.371  17.687  0.00  0.00    +0.000 NA
BRANCH  19  24
ATOM     21  C   UNL     1      11.202  12.256  19.422  0.00  0.00    +0.000 A 
ATOM     22  C   UNL     1      10.560  12.080  20.631  0.00  0.00    +0.000 A 
ATOM     23  C   UNL     1       9.573  11.063  20.570  0.00  0.00    +0.000 A 
ATOM     24  C   UNL     1       9.473  10.492  19.316  0.00  0.00    +0.000 A 
ATOM     25  S   UNL     1      10.559  11.218  18.214  0.00  0.00    +0.000 S 
BRANCH  21  27
ATOM     26  C   UNL     1      12.021  14.606  19.623  0.00  0.00    +0.000 C 
ATOM     27  C   UNL     1      12.333  13.199  19.131  0.00  0.00    +0.000 C 
ENDBRANCH  21  27
ENDBRANCH  19  24
ENDBRANCH  15  20
ENDBRANCH   1  16
BRANCH   6  28
ATOM     28  O   UNL     1       7.647   5.787  15.213  0.00  0.00    +0.000 OA
ATOM     29  H   UNL     1       7.612   5.163  14.466  0.00  0.00    +0.000 HD
ENDBRANCH   6  28
TORSDOF 6
ENDMDL
MODEL 6
REMARK VINA RESULT:      -8.3      1.556      1.865
REMARK  Name = 
REMARK  7 active torsions:
REMARK  status: ('A' for Active; 'I' for Inactive)
REMARK    1  A    between atoms: C_1  and  C_2
REMARK    2  A    between atoms: C_2  and  C_3
REMARK    3  A    between atoms: C_6  and  C_7
REMARK    4  A    between atoms: N_8  and  N_9
REMARK    5  A    between atoms: C_10  and  C_12
REMARK    6  A    between atoms: C_14  and  C_15
REMARK    7  A    between atoms: C_25  and  O_26
REMARK                            x       y       z     vdW  Elec       q    Type
REMARK                         _______ _______ _______ _____ _____    ______ ____
ROOT
ATOM      1  C   UNL     1       6.538   5.741  17.039  0.00  0.00    +0.000 A 
ATOM      2  C   UNL     1       5.432   5.251  17.770  0.00  0.00    +0.000 A 
ATOM      3  C   UNL     1       4.506   4.339  17.224  0.00  0.00    +0.000 A 
ATOM      4  C   UNL     1       4.731   3.933  15.900  0.00  0.00    +0.000 A 
ATOM      5  C   UNL     1       5.823   4.400  15.159  0.00  0.00    +0.000 A 
ATOM      6  C   UNL     1       6.722   5.302  15.728  0.00  0.00    +0.000 A 
ENDROOT
BRANCH   3   7
ATOM      7  C   UNL     1       3.352   3.836  18.012  0.00  0.00    +0.000 A 
ATOM      8  C   UNL     1       3.183   2.457  18.266  0.00  0.00    +0.000 A 
ATOM      9  C   UNL     1       2.099   1.979  19.008  0.00  0.00    +0.000 A 
ATOM     10  C   UNL     1       1.170   2.873  19.520  0.00  0.00    +0.000 A 
ATOM     11  F   UNL     1       0.135   2.413  20.236  0.00  0.00    +0.000 F 
ATOM     12  C   UNL     1       1.297   4.232  19.299  0.00  0.00    +0.000 A 
ATOM     13  C   UNL     1       2.373   4.697  18.548  0.00  0.00    +0.000 A 
ATOM     14  F   UNL     1       2.438   6.023  18.339  0.00  0.00    +0.000 F 
ENDBRANCH   3   7
BRANCH   1  16
ATOM     15  N   UNL     1       7.584   7.969  17.238  0.00  0.00    +0.000 N 
ATOM     16  C   UNL     1       7.448   6.687  17.753  0.00  0.00    +0.000 C 
ATOM     17  O   UNL     1       8.040   6.289  18.760  0.00  0.00    +0.000 OA
ATOM     18  H   UNL     1       7.079   8.236  16.396  0.00  0.00    +0.000 HD
BRANCH  15  20
ATOM     19  C   UNL     1       8.278  10.097  17.711  0.00  0.00    +0.000 C 
ATOM     20  N   UNL     1       8.438   8.825  17.864  0.00  0.00    +0.000 NA
BRANCH  19  24
ATOM     21  C   UNL     1      10.349  12.558  19.898  0.00  0.00    +0.000 A 
ATOM     22  C   UNL     1      11.086  12.320  18.757  0.00  0.00    +0.000 A 
ATOM     23  C   UNL     1      10.431  11.422  17.875  0.00  0.00    +0.000 A 
ATOM     24  C   UNL     1       9.216  10.985  18.365  0.00  0.00    +0.000 A 
ATOM     25  S   UNL     1       8.894  11.646  19.908  0.00  0.00    +0.000 S 
BRANCH  21  27
ATOM     26  C   UNL     1      10.071  14.864  20.817  0.00  0.00    +0.000 C 
ATOM     27  C   UNL     1      10.701  13.493  21.020  0.00  0.00    +0.000 C 
ENDBRANCH  21  27
ENDBRANCH  19  24
ENDBRANCH  15  20
ENDBRANCH   1  16
BRANCH   6  28
ATOM     28  O   UNL     1       7.785   5.734  14.980  0.00  0.00    +0.000 OA
ATOM     29  H   UNL     1       8.346   6.296  15.546  0.00  0.00    +0.000 HD
ENDBRANCH   6  28
TORSDOF 6
ENDMDL
MODEL 7
REMARK VINA RESULT:      -8.2      5.843      8.019
REMARK  Name = 
REMARK  7 active torsions:
REMARK  status: ('A' for Active; 'I' for Inactive)
REMARK    1  A    between atoms: C_1  and  C_2
REMARK    2  A    between atoms: C_2  and  C_3
REMARK    3  A    between atoms: C_6  and  C_7
REMARK    4  A    between atoms: N_8  and  N_9
REMARK    5  A    between atoms: C_10  and  C_12
REMARK    6  A    between atoms: C_14  and  C_15
REMARK    7  A    between atoms: C_25  and  O_26
REMARK                            x       y       z     vdW  Elec       q    Type
REMARK                         _______ _______ _______ _____ _____    ______ ____
ROOT
ATOM      1  C   UNL     1       2.524   4.014  19.365  0.00  0.00    +0.000 A 
ATOM      2  C   UNL     1       3.466   4.456  18.407  0.00  0.00    +0.000 A 
ATOM      3  C   UNL     1       4.217   3.565  17.616  0.00  0.00    +0.000 A 
ATOM      4  C   UNL     1       3.989   2.196  17.822  0.00  0.00    +0.000 A 
ATOM      5  C   UNL     1       3.058   1.735  18.759  0.00  0.00    +0.000 A 
ATOM      6  C   UNL     1       2.329   2.642  19.528  0.00  0.00    +0.000 A 
ENDROOT
BRANCH   3   7
ATOM      7  C   UNL     1       5.200   4.053  16.614  0.00  0.00    +0.000 A 
ATOM      8  C   UNL     1       4.899   4.059  15.234  0.00  0.00    +0.000 A 
ATOM      9  C   UNL     1       5.820   4.519  14.288  0.00  0.00    +0.000 A 
ATOM     10  C   UNL     1       7.055   4.991  14.706  0.00  0.00    +0.000 A 
ATOM     11  F   UNL     1       7.934   5.437  13.799  0.00  0.00    +0.000 F 
ATOM     12  C   UNL     1       7.392   5.007  16.047  0.00  0.00    +0.000 A 
ATOM     13  C   UNL     1       6.472   4.536  16.981  0.00  0.00    +0.000 A 
ATOM     14  F   UNL     1       6.856   4.548  18.268  0.00  0.00    +0.000 F 
ENDBRANCH   3   7
BRANCH   1  16
ATOM     15  N   UNL     1       2.396   6.309  20.266  0.00  0.00    +0.000 N 
ATOM     16  C   UNL     1       1.785   5.072  20.118  0.00  0.00    +0.000 C 
ATOM     17  O   UNL     1       0.672   4.800  20.577  0.00  0.00    +0.000 OA
ATOM     18  H   UNL     1       3.322   6.471  19.875  0.00  0.00    +0.000 HD
BRANCH  15  20
ATOM     19  C   UNL     1       1.279   8.304  20.364  0.00  0.00    +0.000 C 
ATOM     20  N   UNL     1       1.742   7.267  20.979  0.00  0.00    +0.000 NA
BRANCH  19  24
ATOM     21  C   UNL     1      -0.280  11.439  22.059  0.00  0.00    +0.000 A 
ATOM     22  C   UNL     1      -0.535  10.367  22.888  0.00  0.00    +0.000 A 
ATOM     23  C   UNL     1      -0.017   9.152  22.369  0.00  0.00    +0.000 A 
ATOM     24  C   UNL     1       0.612   9.320  21.150  0.00  0.00    +0.000 A 
ATOM     25  S   UNL     1       0.542  10.947  20.632  0.00  0.00    +0.000 S 
BRANCH  21  27
ATOM     26  C   UNL     1      -1.894  13.001  23.149  0.00  0.00    +0.000 C 
ATOM     27  C   UNL     1      -0.629  12.877  22.312  0.00  0.00    +0.000 C 
ENDBRANCH  21  27
ENDBRANCH  19  24
ENDBRANCH  15  20
ENDBRANCH   1  16
BRANCH   6  28
ATOM     28  O   UNL     1       1.419   2.160  20.432  0.00  0.00    +0.000 OA
ATOM     29  H   UNL     1       1.755   1.312  20.778  0.00  0.00    +0.000 HD
ENDBRANCH   6  28
TORSDOF 6
ENDMDL
MODEL 8
REMARK VINA RESULT:      -8.2      1.714      2.138
REMARK  Name = 
REMARK  7 active torsions:
REMARK  status: ('A' for Active; 'I' for Inactive)
REMARK    1  A    between atoms: C_1  and  C_2
REMARK    2  A    between atoms: C_2  and  C_3
REMARK    3  A    between atoms: C_6  and  C_7
REMARK    4  A    between atoms: N_8  and  N_9
REMARK    5  A    between atoms: C_10  and  C_12
REMARK    6  A    between atoms: C_14  and  C_15
REMARK    7  A    between atoms: C_25  and  O_26
REMARK                            x       y       z     vdW  Elec       q    Type
REMARK                         _______ _______ _______ _____ _____    ______ ____
ROOT
ATOM      1  C   UNL     1       5.581   6.011  17.076  0.00  0.00    +0.000 A 
ATOM      2  C   UNL     1       4.708   5.524  18.075  0.00  0.00    +0.000 A 
ATOM      3  C   UNL     1       4.123   4.244  18.013  0.00  0.00    +0.000 A 
ATOM      4  C   UNL     1       4.449   3.457  16.897  0.00  0.00    +0.000 A 
ATOM      5  C   UNL     1       5.317   3.915  15.899  0.00  0.00    +0.000 A 
ATOM      6  C   UNL     1       5.880   5.188  15.989  0.00  0.00    +0.000 A 
ENDROOT
BRANCH   3   7
ATOM      7  C   UNL     1       3.209   3.753  19.076  0.00  0.00    +0.000 A 
ATOM      8  C   UNL     1       3.704   3.090  20.221  0.00  0.00    +0.000 A 
ATOM      9  C   UNL     1       2.848   2.627  21.224  0.00  0.00    +0.000 A 
ATOM     10  C   UNL     1       1.481   2.831  21.107  0.00  0.00    +0.000 A 
ATOM     11  F   UNL     1       0.662   2.392  22.073  0.00  0.00    +0.000 F 
ATOM     12  C   UNL     1       0.951   3.478  20.005  0.00  0.00    +0.000 A 
ATOM     13  C   UNL     1       1.812   3.924  19.005  0.00  0.00    +0.000 A 
ATOM     14  F   UNL     1       1.247   4.524  17.944  0.00  0.00    +0.000 F 
ENDBRANCH   3   7
BRANCH   1  16
ATOM     15  N   UNL     1       7.523   7.525  17.250  0.00  0.00    +0.000 N 
ATOM     16  C   UNL     1       6.143   7.380  17.283  0.00  0.00    +0.000 C 
ATOM     17  O   UNL     1       5.362   8.314  17.478  0.00  0.00    +0.000 OA
ATOM     18  H   UNL     1       8.118   6.714  17.098  0.00  0.00    +0.000 HD
BRANCH  15  20
ATOM     19  C   UNL     1       8.641   9.006  18.591  0.00  0.00    +0.000 C 
ATOM     20  N   UNL     1       8.042   8.765  17.471  0.00  0.00    +0.000 NA
BRANCH  19  24
ATOM     21  C   UNL     1       9.967  12.459  19.794  0.00  0.00    +0.000 A 
ATOM     22  C   UNL     1       9.872  12.523  18.419  0.00  0.00    +0.000 A 
ATOM     23  C   UNL     1       9.402  11.308  17.857  0.00  0.00    +0.000 A 
ATOM     24  C   UNL     1       9.159  10.339  18.812  0.00  0.00    +0.000 A 
ATOM     25  S   UNL     1       9.532  10.904  20.381  0.00  0.00    +0.000 S 
BRANCH  21  27
ATOM     26  C   UNL     1       9.411  13.685  21.897  0.00  0.00    +0.000 C 
ATOM     27  C   UNL     1      10.372  13.567  20.722  0.00  0.00    +0.000 C 
ENDBRANCH  21  27
ENDBRANCH  19  24
ENDBRANCH  15  20
ENDBRANCH   1  16
BRANCH   6  28
ATOM     28  O   UNL     1       6.732   5.604  15.000  0.00  0.00    +0.000 OA
ATOM     29  H   UNL     1       7.254   6.352  15.344  0.00  0.00    +0.000 HD
ENDBRANCH   6  28
TORSDOF 6
ENDMDL
MODEL 9
REMARK VINA RESULT:      -8.1      1.391      1.491
REMARK  Name = 
REMARK  7 active torsions:
REMARK  status: ('A' for Active; 'I' for Inactive)
REMARK    1  A    between atoms: C_1  and  C_2
REMARK    2  A    between atoms: C_2  and  C_3
REMARK    3  A    between atoms: C_6  and  C_7
REMARK    4  A    between atoms: N_8  and  N_9
REMARK    5  A    between atoms: C_10  and  C_12
REMARK    6  A    between atoms: C_14  and  C_15
REMARK    7  A    between atoms: C_25  and  O_26
REMARK                            x       y       z     vdW  Elec       q    Type
REMARK                         _______ _______ _______ _____ _____    ______ ____
ROOT
ATOM      1  C   UNL     1       5.518   6.047  17.136  0.00  0.00    +0.000 A 
ATOM      2  C   UNL     1       4.678   5.575  18.169  0.00  0.00    +0.000 A 
ATOM      3  C   UNL     1       4.068   4.306  18.131  0.00  0.00    +0.000 A 
ATOM      4  C   UNL     1       4.333   3.515  17.003  0.00  0.00    +0.000 A 
ATOM      5  C   UNL     1       5.167   3.958  15.970  0.00  0.00    +0.000 A 
ATOM      6  C   UNL     1       5.757   5.220  16.037  0.00  0.00    +0.000 A 
ENDROOT
BRANCH   3   7
ATOM      7  C   UNL     1       3.190   3.831  19.232  0.00  0.00    +0.000 A 
ATOM      8  C   UNL     1       1.876   4.328  19.387  0.00  0.00    +0.000 A 
ATOM      9  C   UNL     1       1.046   3.883  20.421  0.00  0.00    +0.000 A 
ATOM     10  C   UNL     1       1.510   2.925  21.310  0.00  0.00    +0.000 A 
ATOM     11  F   UNL     1       0.711   2.496  22.296  0.00  0.00    +0.000 F 
ATOM     12  C   UNL     1       2.788   2.409  21.194  0.00  0.00    +0.000 A 
ATOM     13  C   UNL     1       3.612   2.868  20.169  0.00  0.00    +0.000 A 
ATOM     14  F   UNL     1       4.853   2.355  20.114  0.00  0.00    +0.000 F 
ENDBRANCH   3   7
BRANCH   1  16
ATOM     15  N   UNL     1       7.496   7.503  17.395  0.00  0.00    +0.000 N 
ATOM     16  C   UNL     1       6.113   7.406  17.320  0.00  0.00    +0.000 C 
ATOM     17  O   UNL     1       5.354   8.375  17.402  0.00  0.00    +0.000 OA
ATOM     18  H   UNL     1       8.070   6.665  17.333  0.00  0.00    +0.000 HD
BRANCH  15  20
ATOM     19  C   UNL     1       8.670   8.971  18.699  0.00  0.00    +0.000 C 
ATOM     20  N   UNL     1       8.042   8.734  17.596  0.00  0.00    +0.000 NA
BRANCH  19  24
ATOM     21  C   UNL     1       9.989  12.448  19.840  0.00  0.00    +0.000 A 
ATOM     22  C   UNL     1      10.075  12.419  18.464  0.00  0.00    +0.000 A 
ATOM     23  C   UNL     1       9.626  11.186  17.925  0.00  0.00    +0.000 A 
ATOM     24  C   UNL     1       9.216  10.296  18.900  0.00  0.00    +0.000 A 
ATOM     25  S   UNL     1       9.410  10.956  20.465  0.00  0.00    +0.000 S 
BRANCH  21  27
ATOM     26  C   UNL     1      11.341  14.531  20.096  0.00  0.00    +0.000 C 
ATOM     27  C   UNL     1      10.322  13.603  20.740  0.00  0.00    +0.000 C 
ENDBRANCH  21  27
ENDBRANCH  19  24
ENDBRANCH  15  20
ENDBRANCH   1  16
BRANCH   6  28
ATOM     28  O   UNL     1       6.574   5.622  15.014  0.00  0.00    +0.000 OA
ATOM     29  H   UNL     1       7.303   4.979  14.937  0.00  0.00    +0.000 HD
ENDBRANCH   6  28
TORSDOF 6
ENDMDL
