MODEL 1
REMARK VINA RESULT:      -8.7      0.000      0.000
REMARK  Name = 
REMARK  2 active torsions:
REMARK  status: ('A' for Active; 'I' for Inactive)
REMARK    1  A    between atoms: C_7  and  C_8
REMARK    2  A    between atoms: C_14  and  C_15
REMARK                            x       y       z     vdW  Elec       q    Type
REMARK                         _______ _______ _______ _____ _____    ______ ____
ROOT
ATOM      1 CL   UNL     1       6.221   3.267  15.217  0.00  0.00    +0.000 Cl
ATOM      2  C   UNL     1       5.413   4.618  15.920  0.00  0.00    +0.000 A 
ATOM      3  C   UNL     1       5.663   5.897  15.428  0.00  0.00    +0.000 A 
ATOM      4  C   UNL     1       5.021   7.011  15.977  0.00  0.00    +0.000 A 
ATOM      5  C   UNL     1       4.125   6.767  17.019  0.00  0.00    +0.000 A 
ATOM      6  O   UNL     1       3.415   7.715  17.675  0.00  0.00    +0.000 OA
ATOM      7  C   UNL     1       2.655   7.092  18.628  0.00  0.00    +0.000 A 
ATOM      8  C   UNL     1       2.887   5.713  18.590  0.00  0.00    +0.000 A 
ATOM      9  C   UNL     1       3.844   5.508  17.536  0.00  0.00    +0.000 A 
ATOM     10  C   UNL     1       4.518   4.401  16.977  0.00  0.00    +0.000 A 
ENDROOT
BRANCH   7  11
ATOM     11  C   UNL     1       1.850   8.003  19.446  0.00  0.00    +0.000 A 
ATOM     12  C   UNL     1       1.643   7.767  20.811  0.00  0.00    +0.000 A 
ATOM     13  C   UNL     1       1.051   8.740  21.625  0.00  0.00    +0.000 A 
ATOM     14  C   UNL     1       0.598   9.933  21.068  0.00  0.00    +0.000 A 
ATOM     15  C   UNL     1       0.719  10.145  19.697  0.00  0.00    +0.000 A 
ATOM     16  C   UNL     1       1.343   9.187  18.891  0.00  0.00    +0.000 A 
ENDBRANCH   7  11
BRANCH   8  17
ATOM     17  C   UNL     1       2.259   4.725  19.472  0.00  0.00    +0.000 A 
ATOM     18  C   UNL     1       2.664   4.610  20.809  0.00  0.00    +0.000 A 
ATOM     19  C   UNL     1       2.128   3.620  21.640  0.00  0.00    +0.000 A 
ATOM     20  C   UNL     1       1.209   2.705  21.134  0.00  0.00    +0.000 A 
ATOM     21  C   UNL     1       0.780   2.816  19.815  0.00  0.00    +0.000 A 
ATOM     22  C   UNL     1       1.270   3.847  19.007  0.00  0.00    +0.000 A 
ENDBRANCH   8  17
TORSDOF 2
ENDMDL
MODEL 2
REMARK VINA RESULT:      -8.7      0.221      1.050
REMARK  Name = 
REMARK  2 active torsions:
REMARK  status: ('A' for Active; 'I' for Inactive)
REMARK    1  A    between atoms: C_7  and  C_8
REMARK    2  A    between atoms: C_14  and  C_15
REMARK                            x       y       z     vdW  Elec       q    Type
REMARK                         _______ _______ _______ _____ _____    ______ ____
ROOT
ATOM      1 CL   UNL     1       6.178   3.398  15.175  0.00  0.00    +0.000 Cl
ATOM      2  C   UNL     1       5.372   4.738  15.902  0.00  0.00    +0.000 A 
ATOM      3  C   UNL     1       5.613   6.024  15.423  0.00  0.00    +0.000 A 
ATOM      4  C   UNL     1       4.972   7.129  15.992  0.00  0.00    +0.000 A 
ATOM      5  C   UNL     1       4.087   6.869  17.039  0.00  0.00    +0.000 A 
ATOM      6  O   UNL     1       3.379   7.806  17.713  0.00  0.00    +0.000 OA
ATOM      7  C   UNL     1       2.630   7.169  18.664  0.00  0.00    +0.000 A 
ATOM      8  C   UNL     1       2.866   5.791  18.608  0.00  0.00    +0.000 A 
ATOM      9  C   UNL     1       3.814   5.602  17.543  0.00  0.00    +0.000 A 
ATOM     10  C   UNL     1       4.487   4.506  16.964  0.00  0.00    +0.000 A 
ENDROOT
BRANCH   7  11
ATOM     11  C   UNL     1       1.829   8.067  19.501  0.00  0.00    +0.000 A 
ATOM     12  C   UNL     1       1.246   9.228  18.975  0.00  0.00    +0.000 A 
ATOM     13  C   UNL     1       0.320   9.966  19.722  0.00  0.00    +0.000 A 
ATOM     14  C   UNL     1       0.019   9.589  21.027  0.00  0.00    +0.000 A 
ATOM     15  C   UNL     1       0.656   8.488  21.593  0.00  0.00    +0.000 A 
ATOM     16  C   UNL     1       1.553   7.730  20.834  0.00  0.00    +0.000 A 
ENDBRANCH   7  11
BRANCH   8  17
ATOM     17  C   UNL     1       2.249   4.790  19.482  0.00  0.00    +0.000 A 
ATOM     18  C   UNL     1       2.703   4.624  20.799  0.00  0.00    +0.000 A 
ATOM     19  C   UNL     1       2.175   3.620  21.620  0.00  0.00    +0.000 A 
ATOM     20  C   UNL     1       1.216   2.743  21.121  0.00  0.00    +0.000 A 
ATOM     21  C   UNL     1       0.740   2.905  19.825  0.00  0.00    +0.000 A 
ATOM     22  C   UNL     1       1.222   3.949  19.030  0.00  0.00    +0.000 A 
ENDBRANCH   8  17
TORSDOF 2
ENDMDL
MODEL 3
REMARK VINA RESULT:      -8.6      0.120      1.030
REMARK  Name = 
REMARK  2 active torsions:
REMARK  status: ('A' for Active; 'I' for Inactive)
REMARK    1  A    between atoms: C_7  and  C_8
REMARK    2  A    between atoms: C_14  and  C_15
REMARK                            x       y       z     vdW  Elec       q    Type
REMARK                         _______ _______ _______ _____ _____    ______ ____
ROOT
ATOM      1 CL   UNL     1       6.280   3.371  15.114  0.00  0.00    +0.000 Cl
ATOM      2  C   UNL     1       5.453   4.692  15.852  0.00  0.00    +0.000 A 
ATOM      3  C   UNL     1       5.665   5.984  15.375  0.00  0.00    +0.000 A 
ATOM      4  C   UNL     1       5.006   7.074  15.952  0.00  0.00    +0.000 A 
ATOM      5  C   UNL     1       4.135   6.794  17.006  0.00  0.00    +0.000 A 
ATOM      6  O   UNL     1       3.414   7.715  17.688  0.00  0.00    +0.000 OA
ATOM      7  C   UNL     1       2.686   7.059  18.644  0.00  0.00    +0.000 A 
ATOM      8  C   UNL     1       2.949   5.687  18.581  0.00  0.00    +0.000 A 
ATOM      9  C   UNL     1       3.892   5.520  17.508  0.00  0.00    +0.000 A 
ATOM     10  C   UNL     1       4.582   4.439  16.921  0.00  0.00    +0.000 A 
ENDROOT
BRANCH   7  11
ATOM     11  C   UNL     1       1.874   7.939  19.490  0.00  0.00    +0.000 A 
ATOM     12  C   UNL     1       1.651   7.648  20.842  0.00  0.00    +0.000 A 
ATOM     13  C   UNL     1       1.053   8.590  21.688  0.00  0.00    +0.000 A 
ATOM     14  C   UNL     1       0.609   9.805  21.175  0.00  0.00    +0.000 A 
ATOM     15  C   UNL     1       0.745  10.072  19.815  0.00  0.00    +0.000 A 
ATOM     16  C   UNL     1       1.375   9.146  18.978  0.00  0.00    +0.000 A 
ENDBRANCH   7  11
BRANCH   8  17
ATOM     17  C   UNL     1       2.360   4.671  19.458  0.00  0.00    +0.000 A 
ATOM     18  C   UNL     1       1.288   3.886  19.012  0.00  0.00    +0.000 A 
ATOM     19  C   UNL     1       0.667   2.966  19.864  0.00  0.00    +0.000 A 
ATOM     20  C   UNL     1       1.083   2.848  21.187  0.00  0.00    +0.000 A 
ATOM     21  C   UNL     1       2.158   3.604  21.642  0.00  0.00    +0.000 A 
ATOM     22  C   UNL     1       2.818   4.475  20.769  0.00  0.00    +0.000 A 
ENDBRANCH   8  17
TORSDOF 2
ENDMDL
MODEL 4
REMARK VINA RESULT:      -8.6      0.251      1.470
REMARK  Name = 
REMARK  2 active torsions:
REMARK  status: ('A' for Active; 'I' for Inactive)
REMARK    1  A    between atoms: C_7  and  C_8
REMARK    2  A    between atoms: C_14  and  C_15
REMARK                            x       y       z     vdW  Elec       q    Type
REMARK                         _______ _______ _______ _____ _____    ______ ____
ROOT
ATOM      1 CL   UNL     1       6.306   3.285  15.068  0.00  0.00    +0.000 Cl
ATOM      2  C   UNL     1       5.487   4.622  15.787  0.00  0.00    +0.000 A 
ATOM      3  C   UNL     1       5.703   5.905  15.289  0.00  0.00    +0.000 A 
ATOM      4  C   UNL     1       5.051   7.007  15.851  0.00  0.00    +0.000 A 
ATOM      5  C   UNL     1       4.182   6.748  16.911  0.00  0.00    +0.000 A 
ATOM      6  O   UNL     1       3.468   7.683  17.581  0.00  0.00    +0.000 OA
ATOM      7  C   UNL     1       2.739   7.047  18.549  0.00  0.00    +0.000 A 
ATOM      8  C   UNL     1       2.996   5.672  18.508  0.00  0.00    +0.000 A 
ATOM      9  C   UNL     1       3.935   5.484  17.435  0.00  0.00    +0.000 A 
ATOM     10  C   UNL     1       4.618   4.390  16.862  0.00  0.00    +0.000 A 
ENDROOT
BRANCH   7  11
ATOM     11  C   UNL     1       1.934   7.943  19.383  0.00  0.00    +0.000 A 
ATOM     12  C   UNL     1       1.369   9.114  18.861  0.00  0.00    +0.000 A 
ATOM     13  C   UNL     1       0.439   9.853  19.602  0.00  0.00    +0.000 A 
ATOM     14  C   UNL     1       0.116   9.466  20.899  0.00  0.00    +0.000 A 
ATOM     15  C   UNL     1       0.736   8.354  21.463  0.00  0.00    +0.000 A 
ATOM     16  C   UNL     1       1.638   7.596  20.709  0.00  0.00    +0.000 A 
ENDBRANCH   7  11
BRANCH   8  17
ATOM     17  C   UNL     1       2.405   4.674  19.402  0.00  0.00    +0.000 A 
ATOM     18  C   UNL     1       1.314   3.901  18.979  0.00  0.00    +0.000 A 
ATOM     19  C   UNL     1       0.692   2.998  19.849  0.00  0.00    +0.000 A 
ATOM     20  C   UNL     1       1.126   2.886  21.167  0.00  0.00    +0.000 A 
ATOM     21  C   UNL     1       2.220   3.629  21.599  0.00  0.00    +0.000 A 
ATOM     22  C   UNL     1       2.879   4.481  20.708  0.00  0.00    +0.000 A 
ENDBRANCH   8  17
TORSDOF 2
ENDMDL
MODEL 5
REMARK VINA RESULT:      -8.5      3.257      5.253
REMARK  Name = 
REMARK  2 active torsions:
REMARK  status: ('A' for Active; 'I' for Inactive)
REMARK    1  A    between atoms: C_7  and  C_8
REMARK    2  A    between atoms: C_14  and  C_15
REMARK                            x       y       z     vdW  Elec       q    Type
REMARK                         _______ _______ _______ _____ _____    ______ ____
ROOT
ATOM      1 CL   UNL     1       4.712   2.341  11.095  0.00  0.00    +0.000 Cl
ATOM      2  C   UNL     1       5.607   3.313  12.203  0.00  0.00    +0.000 A 
ATOM      3  C   UNL     1       6.832   3.847  11.810  0.00  0.00    +0.000 A 
ATOM      4  C   UNL     1       7.578   4.641  12.686  0.00  0.00    +0.000 A 
ATOM      5  C   UNL     1       7.027   4.869  13.948  0.00  0.00    +0.000 A 
ATOM      6  O   UNL     1       7.602   5.607  14.927  0.00  0.00    +0.000 OA
ATOM      7  C   UNL     1       6.765   5.596  16.011  0.00  0.00    +0.000 A 
ATOM      8  C   UNL     1       5.632   4.829  15.726  0.00  0.00    +0.000 A 
ATOM      9  C   UNL     1       5.807   4.360  14.377  0.00  0.00    +0.000 A 
ATOM     10  C   UNL     1       5.081   3.548  13.481  0.00  0.00    +0.000 A 
ENDROOT
BRANCH   7  11
ATOM     11  C   UNL     1       7.275   6.333  17.171  0.00  0.00    +0.000 A 
ATOM     12  C   UNL     1       7.585   5.680  18.371  0.00  0.00    +0.000 A 
ATOM     13  C   UNL     1       8.260   6.352  19.398  0.00  0.00    +0.000 A 
ATOM     14  C   UNL     1       8.569   7.702  19.262  0.00  0.00    +0.000 A 
ATOM     15  C   UNL     1       8.189   8.385  18.110  0.00  0.00    +0.000 A 
ATOM     16  C   UNL     1       7.548   7.706  17.070  0.00  0.00    +0.000 A 
ENDBRANCH   7  11
BRANCH   8  17
ATOM     17  C   UNL     1       4.523   4.580  16.652  0.00  0.00    +0.000 A 
ATOM     18  C   UNL     1       4.162   3.268  16.989  0.00  0.00    +0.000 A 
ATOM     19  C   UNL     1       3.058   3.014  17.811  0.00  0.00    +0.000 A 
ATOM     20  C   UNL     1       2.275   4.068  18.273  0.00  0.00    +0.000 A 
ATOM     21  C   UNL     1       2.629   5.378  17.966  0.00  0.00    +0.000 A 
ATOM     22  C   UNL     1       3.771   5.630  17.198  0.00  0.00    +0.000 A 
ENDBRANCH   8  17
TORSDOF 2
ENDMDL
MODEL 6
REMARK VINA RESULT:      -8.5      3.759      7.105
REMARK  Name = 
REMARK  2 active torsions:
REMARK  status: ('A' for Active; 'I' for Inactive)
REMARK    1  A    between atoms: C_7  and  C_8
REMARK    2  A    between atoms: C_14  and  C_15
REMARK                            x       y       z     vdW  Elec       q    Type
REMARK                         _______ _______ _______ _____ _____    ______ ____
ROOT
ATOM      1 CL   UNL     1       2.149   3.528  21.667  0.00  0.00    +0.000 Cl
ATOM      2  C   UNL     1       2.653   3.417  20.021  0.00  0.00    +0.000 A 
ATOM      3  C   UNL     1       1.991   2.544  19.161  0.00  0.00    +0.000 A 
ATOM      4  C   UNL     1       2.376   2.435  17.821  0.00  0.00    +0.000 A 
ATOM      5  C   UNL     1       3.435   3.243  17.405  0.00  0.00    +0.000 A 
ATOM      6  O   UNL     1       3.948   3.273  16.153  0.00  0.00    +0.000 OA
ATOM      7  C   UNL     1       4.972   4.182  16.136  0.00  0.00    +0.000 A 
ATOM      8  C   UNL     1       5.127   4.743  17.407  0.00  0.00    +0.000 A 
ATOM      9  C   UNL     1       4.119   4.129  18.230  0.00  0.00    +0.000 A 
ATOM     10  C   UNL     1       3.723   4.209  19.581  0.00  0.00    +0.000 A 
ENDROOT
BRANCH   7  11
ATOM     11  C   UNL     1       5.650   4.300  14.842  0.00  0.00    +0.000 A 
ATOM     12  C   UNL     1       6.880   4.960  14.721  0.00  0.00    +0.000 A 
ATOM     13  C   UNL     1       7.616   4.891  13.532  0.00  0.00    +0.000 A 
ATOM     14  C   UNL     1       7.098   4.218  12.430  0.00  0.00    +0.000 A 
ATOM     15  C   UNL     1       5.838   3.631  12.508  0.00  0.00    +0.000 A 
ATOM     16  C   UNL     1       5.119   3.670  13.707  0.00  0.00    +0.000 A 
ENDBRANCH   7  11
BRANCH   8  17
ATOM     17  C   UNL     1       6.131   5.745  17.774  0.00  0.00    +0.000 A 
ATOM     18  C   UNL     1       6.125   7.010  17.167  0.00  0.00    +0.000 A 
ATOM     19  C   UNL     1       7.124   7.948  17.451  0.00  0.00    +0.000 A 
ATOM     20  C   UNL     1       8.165   7.620  18.314  0.00  0.00    +0.000 A 
ATOM     21  C   UNL     1       8.177   6.379  18.941  0.00  0.00    +0.000 A 
ATOM     22  C   UNL     1       7.142   5.468  18.705  0.00  0.00    +0.000 A 
ENDBRANCH   8  17
TORSDOF 2
ENDMDL
MODEL 7
REMARK VINA RESULT:      -8.4      3.092      5.208
REMARK  Name = 
REMARK  2 active torsions:
REMARK  status: ('A' for Active; 'I' for Inactive)
REMARK    1  A    between atoms: C_7  and  C_8
REMARK    2  A    between atoms: C_14  and  C_15
REMARK                            x       y       z     vdW  Elec       q    Type
REMARK                         _______ _______ _______ _____ _____    ______ ____
ROOT
ATOM      1 CL   UNL     1       4.493   2.454  11.076  0.00  0.00    +0.000 Cl
ATOM      2  C   UNL     1       5.440   3.355  12.201  0.00  0.00    +0.000 A 
ATOM      3  C   UNL     1       6.723   3.765  11.842  0.00  0.00    +0.000 A 
ATOM      4  C   UNL     1       7.512   4.499  12.734  0.00  0.00    +0.000 A 
ATOM      5  C   UNL     1       6.945   4.797  13.974  0.00  0.00    +0.000 A 
ATOM      6  O   UNL     1       7.555   5.491  14.963  0.00  0.00    +0.000 OA
ATOM      7  C   UNL     1       6.688   5.575  16.018  0.00  0.00    +0.000 A 
ATOM      8  C   UNL     1       5.496   4.913  15.705  0.00  0.00    +0.000 A 
ATOM      9  C   UNL     1       5.669   4.411  14.368  0.00  0.00    +0.000 A 
ATOM     10  C   UNL     1       4.899   3.657  13.458  0.00  0.00    +0.000 A 
ENDROOT
BRANCH   7  11
ATOM     11  C   UNL     1       7.227   6.278  17.186  0.00  0.00    +0.000 A 
ATOM     12  C   UNL     1       7.548   5.594  18.365  0.00  0.00    +0.000 A 
ATOM     13  C   UNL     1       8.250   6.232  19.396  0.00  0.00    +0.000 A 
ATOM     14  C   UNL     1       8.576   7.580  19.285  0.00  0.00    +0.000 A 
ATOM     15  C   UNL     1       8.187   8.295  18.156  0.00  0.00    +0.000 A 
ATOM     16  C   UNL     1       7.518   7.648  17.112  0.00  0.00    +0.000 A 
ENDBRANCH   7  11
BRANCH   8  17
ATOM     17  C   UNL     1       4.340   4.784  16.596  0.00  0.00    +0.000 A 
ATOM     18  C   UNL     1       3.804   5.914  17.230  0.00  0.00    +0.000 A 
ATOM     19  C   UNL     1       2.749   5.794  18.142  0.00  0.00    +0.000 A 
ATOM     20  C   UNL     1       2.244   4.537  18.464  0.00  0.00    +0.000 A 
ATOM     21  C   UNL     1       2.749   3.407  17.831  0.00  0.00    +0.000 A 
ATOM     22  C   UNL     1       3.759   3.538  16.872  0.00  0.00    +0.000 A 
ENDBRANCH   8  17
TORSDOF 2
ENDMDL
MODEL 8
REMARK VINA RESULT:      -8.4      3.770      7.111
REMARK  Name = 
REMARK  2 active torsions:
REMARK  status: ('A' for Active; 'I' for Inactive)
REMARK    1  A    between atoms: C_7  and  C_8
REMARK    2  A    between atoms: C_14  and  C_15
REMARK                            x       y       z     vdW  Elec       q    Type
REMARK                         _______ _______ _______ _____ _____    ______ ____
ROOT
ATOM      1 CL   UNL     1       2.271   3.622  21.553  0.00  0.00    +0.000 Cl
ATOM      2  C   UNL     1       2.748   3.510  19.899  0.00  0.00    +0.000 A 
ATOM      3  C   UNL     1       2.034   2.682  19.036  0.00  0.00    +0.000 A 
ATOM      4  C   UNL     1       2.397   2.574  17.690  0.00  0.00    +0.000 A 
ATOM      5  C   UNL     1       3.488   3.337  17.271  0.00  0.00    +0.000 A 
ATOM      6  O   UNL     1       3.987   3.360  16.013  0.00  0.00    +0.000 OA
ATOM      7  C   UNL     1       5.052   4.220  15.995  0.00  0.00    +0.000 A 
ATOM      8  C   UNL     1       5.249   4.755  17.272  0.00  0.00    +0.000 A 
ATOM      9  C   UNL     1       4.224   4.178  18.099  0.00  0.00    +0.000 A 
ATOM     10  C   UNL     1       3.848   4.257  19.457  0.00  0.00    +0.000 A 
ENDROOT
BRANCH   7  11
ATOM     11  C   UNL     1       5.719   4.324  14.694  0.00  0.00    +0.000 A 
ATOM     12  C   UNL     1       6.951   4.977  14.556  0.00  0.00    +0.000 A 
ATOM     13  C   UNL     1       7.676   4.895  13.361  0.00  0.00    +0.000 A 
ATOM     14  C   UNL     1       7.144   4.215  12.269  0.00  0.00    +0.000 A 
ATOM     15  C   UNL     1       5.882   3.635  12.364  0.00  0.00    +0.000 A 
ATOM     16  C   UNL     1       5.174   3.687  13.569  0.00  0.00    +0.000 A 
ENDBRANCH   7  11
BRANCH   8  17
ATOM     17  C   UNL     1       6.305   5.703  17.638  0.00  0.00    +0.000 A 
ATOM     18  C   UNL     1       7.271   5.354  18.592  0.00  0.00    +0.000 A 
ATOM     19  C   UNL     1       8.238   6.276  19.007  0.00  0.00    +0.000 A 
ATOM     20  C   UNL     1       8.227   7.574  18.504  0.00  0.00    +0.000 A 
ATOM     21  C   UNL     1       7.288   7.934  17.543  0.00  0.00    +0.000 A 
ATOM     22  C   UNL     1       6.364   6.989  17.083  0.00  0.00    +0.000 A 
ENDBRANCH   8  17
TORSDOF 2
ENDMDL
MODEL 9
REMARK VINA RESULT:      -8.4      3.545      7.133
REMARK  Name = 
REMARK  2 active torsions:
REMARK  status: ('A' for Active; 'I' for Inactive)
REMARK    1  A    between atoms: C_7  and  C_8
REMARK    2  A    between atoms: C_14  and  C_15
REMARK                            x       y       z     vdW  Elec       q    Type
REMARK                         _______ _______ _______ _____ _____    ______ ____
ROOT
ATOM      1 CL   UNL     1       1.796   4.335  21.234  0.00  0.00    +0.000 Cl
ATOM      2  C   UNL     1       2.421   4.052  19.652  0.00  0.00    +0.000 A 
ATOM      3  C   UNL     1       1.739   3.196  18.791  0.00  0.00    +0.000 A 
ATOM      4  C   UNL     1       2.221   2.949  17.501  0.00  0.00    +0.000 A 
ATOM      5  C   UNL     1       3.397   3.606  17.135  0.00  0.00    +0.000 A 
ATOM      6  O   UNL     1       4.014   3.490  15.936  0.00  0.00    +0.000 OA
ATOM      7  C   UNL     1       5.132   4.280  15.957  0.00  0.00    +0.000 A 
ATOM      8  C   UNL     1       5.242   4.911  17.200  0.00  0.00    +0.000 A 
ATOM      9  C   UNL     1       4.104   4.471  17.963  0.00  0.00    +0.000 A 
ATOM     10  C   UNL     1       3.607   4.690  19.264  0.00  0.00    +0.000 A 
ENDROOT
BRANCH   7  11
ATOM     11  C   UNL     1       5.926   4.230  14.727  0.00  0.00    +0.000 A 
ATOM     12  C   UNL     1       5.498   3.499  13.610  0.00  0.00    +0.000 A 
ATOM     13  C   UNL     1       6.153   3.622  12.379  0.00  0.00    +0.000 A 
ATOM     14  C   UNL     1       7.284   4.425  12.269  0.00  0.00    +0.000 A 
ATOM     15  C   UNL     1       7.772   5.089  13.391  0.00  0.00    +0.000 A 
ATOM     16  C   UNL     1       7.097   4.994  14.612  0.00  0.00    +0.000 A 
ENDBRANCH   7  11
BRANCH   8  17
ATOM     17  C   UNL     1       6.319   5.823  17.594  0.00  0.00    +0.000 A 
ATOM     18  C   UNL     1       7.246   5.443  18.575  0.00  0.00    +0.000 A 
ATOM     19  C   UNL     1       8.233   6.332  19.015  0.00  0.00    +0.000 A 
ATOM     20  C   UNL     1       8.281   7.628  18.509  0.00  0.00    +0.000 A 
ATOM     21  C   UNL     1       7.383   8.017  17.521  0.00  0.00    +0.000 A 
ATOM     22  C   UNL     1       6.440   7.105  17.037  0.00  0.00    +0.000 A 
ENDBRANCH   8  17
TORSDOF 2
ENDMDL
