MODEL 1
REMARK VINA RESULT:      -8.1      0.000      0.000
REMARK  Name = 
REMARK  8 active torsions:
REMARK  status: ('A' for Active; 'I' for Inactive)
REMARK    1  A    between atoms: C_1  and  C_2
REMARK    2  A    between atoms: C_2  and  N_3
REMARK    3  A    between atoms: N_3  and  C_4
REMARK    4  A    between atoms: N_3  and  C_5
REMARK    5  A    between atoms: C_5  and  C_6
REMARK    6  A    between atoms: C_5  and  C_7
REMARK    7  A    between atoms: C_5  and  C_8
REMARK    8  A    between atoms: C_8  and  N_9
REMARK                            x       y       z     vdW  Elec       q    Type
REMARK                         _______ _______ _______ _____ _____    ______ ____
ROOT
ATOM      1  N   UNL     1       2.592   6.208  20.380  0.00  0.00    +0.000 N 
ATOM      2  C   UNL     1       1.972   7.425  20.340  0.00  0.00    +0.000 A 
ATOM      3  N   UNL     1       1.736   8.059  19.237  0.00  0.00    +0.000 NA
ATOM      4  C   UNL     1       1.139   9.296  19.322  0.00  0.00    +0.000 A 
ATOM      5  C   UNL     1       0.882   9.935  20.472  0.00  0.00    +0.000 A 
ATOM      6  C   UNL     1       1.161   9.210  21.719  0.00  0.00    +0.000 A 
ATOM      7  O   UNL     1       0.994   9.705  22.830  0.00  0.00    +0.000 OA
ATOM      8  N   UNL     1       1.636   7.944  21.558  0.00  0.00    +0.000 N 
ATOM      9  C   UNL     1       0.329  11.319  20.516  0.00  0.00    +0.000 C 
ATOM     10  C   UNL     1      -1.023  11.465  19.858  0.00  0.00    +0.000 A 
ATOM     11  C   UNL     1      -1.970  12.273  20.523  0.00  0.00    +0.000 A 
ATOM     12  C   UNL     1      -3.248  12.472  20.006  0.00  0.00    +0.000 A 
ATOM     13  C   UNL     1      -3.604  11.872  18.806  0.00  0.00    +0.000 A 
ATOM     14  C   UNL     1      -2.679  11.079  18.130  0.00  0.00    +0.000 A 
ATOM     15  C   UNL     1      -1.385  10.877  18.634  0.00  0.00    +0.000 A 
ATOM     16  O   UNL     1      -0.636  10.050  17.840  0.00  0.00    +0.000 OA
ATOM     17  C   UNL     1       0.779   9.979  18.027  0.00  0.00    +0.000 C 
ATOM     18  H   UNL     1       2.877   5.928  21.304  0.00  0.00    +0.000 HD
ATOM     19  H   UNL     1       1.822   7.438  22.405  0.00  0.00    +0.000 HD
ENDROOT
BRANCH   1  20
ATOM     20  C   UNL     1       3.527   5.816  19.315  0.00  0.00    +0.000 C 
BRANCH  20  21
ATOM     21  C   UNL     1       3.269   4.361  18.749  0.00  0.00    +0.000 C 
ATOM     22  C   UNL     1       4.338   4.053  17.675  0.00  0.00    +0.000 C 
ATOM     23  C   UNL     1       1.871   4.378  18.068  0.00  0.00    +0.000 C 
BRANCH  21  24
ATOM     24  N   UNL     1       3.252   3.328  19.858  0.00  0.00    +0.000 NA
ATOM     25  C   UNL     1       4.316   2.320  19.733  0.00  0.00    +0.000 C 
BRANCH  24  27
ATOM     26  C   UNL     1       1.366   2.725  21.455  0.00  0.00    +0.000 C 
ATOM     27  C   UNL     1       1.941   2.662  20.039  0.00  0.00    +0.000 C 
ENDBRANCH  24  27
ENDBRANCH  21  24
ENDBRANCH  20  21
ENDBRANCH   1  20
TORSDOF 4
ENDMDL
MODEL 2
REMARK VINA RESULT:      -7.6      0.822      1.955
REMARK  Name = 
REMARK  8 active torsions:
REMARK  status: ('A' for Active; 'I' for Inactive)
REMARK    1  A    between atoms: C_1  and  C_2
REMARK    2  A    between atoms: C_2  and  N_3
REMARK    3  A    between atoms: N_3  and  C_4
REMARK    4  A    between atoms: N_3  and  C_5
REMARK    5  A    between atoms: C_5  and  C_6
REMARK    6  A    between atoms: C_5  and  C_7
REMARK    7  A    between atoms: C_5  and  C_8
REMARK    8  A    between atoms: C_8  and  N_9
REMARK                            x       y       z     vdW  Elec       q    Type
REMARK                         _______ _______ _______ _____ _____    ______ ____
ROOT
ATOM      1  N   UNL     1       2.495   6.261  20.433  0.00  0.00    +0.000 N 
ATOM      2  C   UNL     1       1.891   7.486  20.425  0.00  0.00    +0.000 A 
ATOM      3  N   UNL     1       1.664   8.154  19.340  0.00  0.00    +0.000 NA
ATOM      4  C   UNL     1       1.084   9.395  19.458  0.00  0.00    +0.000 A 
ATOM      5  C   UNL     1       0.832  10.006  20.625  0.00  0.00    +0.000 A 
ATOM      6  C   UNL     1       1.100   9.243  21.852  0.00  0.00    +0.000 A 
ATOM      7  O   UNL     1       0.937   9.710  22.976  0.00  0.00    +0.000 OA
ATOM      8  N   UNL     1       1.559   7.976  21.657  0.00  0.00    +0.000 N 
ATOM      9  C   UNL     1       0.297  11.394  20.706  0.00  0.00    +0.000 C 
ATOM     10  C   UNL     1      -1.052  11.575  20.050  0.00  0.00    +0.000 A 
ATOM     11  C   UNL     1      -1.990  12.377  20.736  0.00  0.00    +0.000 A 
ATOM     12  C   UNL     1      -3.264  12.607  20.223  0.00  0.00    +0.000 A 
ATOM     13  C   UNL     1      -3.626  12.045  19.007  0.00  0.00    +0.000 A 
ATOM     14  C   UNL     1      -2.709  11.259  18.310  0.00  0.00    +0.000 A 
ATOM     15  C   UNL     1      -1.419  11.027  18.810  0.00  0.00    +0.000 A 
ATOM     16  O   UNL     1      -0.679  10.212  17.995  0.00  0.00    +0.000 OA
ATOM     17  C   UNL     1       0.734  10.118  18.182  0.00  0.00    +0.000 C 
ATOM     18  H   UNL     1       2.775   5.952  21.349  0.00  0.00    +0.000 HD
ATOM     19  H   UNL     1       1.736   7.445  22.490  0.00  0.00    +0.000 HD
ENDROOT
BRANCH   1  20
ATOM     20  C   UNL     1       3.426   5.886  19.359  0.00  0.00    +0.000 C 
BRANCH  20  21
ATOM     21  C   UNL     1       3.183   4.431  18.788  0.00  0.00    +0.000 C 
ATOM     22  C   UNL     1       1.943   4.463  17.864  0.00  0.00    +0.000 C 
ATOM     23  C   UNL     1       2.873   3.511  20.002  0.00  0.00    +0.000 C 
BRANCH  21  24
ATOM     24  N   UNL     1       4.414   3.898  18.081  0.00  0.00    +0.000 NA
ATOM     25  C   UNL     1       5.674   4.433  18.620  0.00  0.00    +0.000 C 
BRANCH  24  27
ATOM     26  C   UNL     1       5.480   4.954  16.027  0.00  0.00    +0.000 C 
ATOM     27  C   UNL     1       4.381   4.065  16.610  0.00  0.00    +0.000 C 
ENDBRANCH  24  27
ENDBRANCH  21  24
ENDBRANCH  20  21
ENDBRANCH   1  20
TORSDOF 4
ENDMDL
MODEL 3
REMARK VINA RESULT:      -7.5      1.059      1.314
REMARK  Name = 
REMARK  8 active torsions:
REMARK  status: ('A' for Active; 'I' for Inactive)
REMARK    1  A    between atoms: C_1  and  C_2
REMARK    2  A    between atoms: C_2  and  N_3
REMARK    3  A    between atoms: N_3  and  C_4
REMARK    4  A    between atoms: N_3  and  C_5
REMARK    5  A    between atoms: C_5  and  C_6
REMARK    6  A    between atoms: C_5  and  C_7
REMARK    7  A    between atoms: C_5  and  C_8
REMARK    8  A    between atoms: C_8  and  N_9
REMARK                            x       y       z     vdW  Elec       q    Type
REMARK                         _______ _______ _______ _____ _____    ______ ____
ROOT
ATOM      1  N   UNL     1       2.300   6.766  20.176  0.00  0.00    +0.000 N 
ATOM      2  C   UNL     1       1.687   7.964  20.410  0.00  0.00    +0.000 A 
ATOM      3  N   UNL     1       1.408   8.809  19.471  0.00  0.00    +0.000 NA
ATOM      4  C   UNL     1       0.825  10.001  19.830  0.00  0.00    +0.000 A 
ATOM      5  C   UNL     1       0.621  10.393  21.096  0.00  0.00    +0.000 A 
ATOM      6  C   UNL     1       0.949   9.431  22.156  0.00  0.00    +0.000 A 
ATOM      7  O   UNL     1       0.832   9.690  23.351  0.00  0.00    +0.000 OA
ATOM      8  N   UNL     1       1.407   8.225  21.722  0.00  0.00    +0.000 N 
ATOM      9  C   UNL     1       0.081  11.738  21.443  0.00  0.00    +0.000 C 
ATOM     10  C   UNL     1      -1.297  12.012  20.887  0.00  0.00    +0.000 A 
ATOM     11  C   UNL     1      -2.209  12.667  21.743  0.00  0.00    +0.000 A 
ATOM     12  C   UNL     1      -3.506  12.965  21.332  0.00  0.00    +0.000 A 
ATOM     13  C   UNL     1      -3.918  12.620  20.053  0.00  0.00    +0.000 A 
ATOM     14  C   UNL     1      -3.027  11.983  19.191  0.00  0.00    +0.000 A 
ATOM     15  C   UNL     1      -1.715  11.685  19.586  0.00  0.00    +0.000 A 
ATOM     16  O   UNL     1      -1.006  11.037  18.610  0.00  0.00    +0.000 OA
ATOM     17  C   UNL     1       0.414  10.932  18.717  0.00  0.00    +0.000 C 
ATOM     18  H   UNL     1       2.622   6.304  21.011  0.00  0.00    +0.000 HD
ATOM     19  H   UNL     1       1.625   7.558  22.440  0.00  0.00    +0.000 HD
ENDROOT
BRANCH   1  20
ATOM     20  C   UNL     1       3.185   6.599  19.015  0.00  0.00    +0.000 C 
BRANCH  20  21
ATOM     21  C   UNL     1       3.668   5.109  18.794  0.00  0.00    +0.000 C 
ATOM     22  C   UNL     1       5.092   4.959  19.379  0.00  0.00    +0.000 C 
ATOM     23  C   UNL     1       3.736   4.875  17.258  0.00  0.00    +0.000 C 
BRANCH  21  24
ATOM     24  N   UNL     1       2.693   4.114  19.390  0.00  0.00    +0.000 NA
ATOM     25  C   UNL     1       3.340   2.892  19.894  0.00  0.00    +0.000 C 
BRANCH  24  27
ATOM     26  C   UNL     1       0.909   2.409  18.771  0.00  0.00    +0.000 C 
ATOM     27  C   UNL     1       1.571   3.759  18.490  0.00  0.00    +0.000 C 
ENDBRANCH  24  27
ENDBRANCH  21  24
ENDBRANCH  20  21
ENDBRANCH   1  20
TORSDOF 4
ENDMDL
MODEL 4
REMARK VINA RESULT:      -7.5      0.924      1.474
REMARK  Name = 
REMARK  8 active torsions:
REMARK  status: ('A' for Active; 'I' for Inactive)
REMARK    1  A    between atoms: C_1  and  C_2
REMARK    2  A    between atoms: C_2  and  N_3
REMARK    3  A    between atoms: N_3  and  C_4
REMARK    4  A    between atoms: N_3  and  C_5
REMARK    5  A    between atoms: C_5  and  C_6
REMARK    6  A    between atoms: C_5  and  C_7
REMARK    7  A    between atoms: C_5  and  C_8
REMARK    8  A    between atoms: C_8  and  N_9
REMARK                            x       y       z     vdW  Elec       q    Type
REMARK                         _______ _______ _______ _____ _____    ______ ____
ROOT
ATOM      1  N   UNL     1       2.089   6.503  20.791  0.00  0.00    +0.000 N 
ATOM      2  C   UNL     1       1.514   7.742  20.765  0.00  0.00    +0.000 A 
ATOM      3  N   UNL     1       1.280   8.387  19.668  0.00  0.00    +0.000 NA
ATOM      4  C   UNL     1       0.733   9.645  19.765  0.00  0.00    +0.000 A 
ATOM      5  C   UNL     1       0.522  10.292  20.921  0.00  0.00    +0.000 A 
ATOM      6  C   UNL     1       0.798   9.554  22.161  0.00  0.00    +0.000 A 
ATOM      7  O   UNL     1       0.671  10.054  23.275  0.00  0.00    +0.000 OA
ATOM      8  N   UNL     1       1.222   8.272  21.990  0.00  0.00    +0.000 N 
ATOM      9  C   UNL     1       0.023  11.695  20.976  0.00  0.00    +0.000 C 
ATOM     10  C   UNL     1      -1.336  11.893  20.345  0.00  0.00    +0.000 A 
ATOM     11  C   UNL     1      -2.238  12.735  21.030  0.00  0.00    +0.000 A 
ATOM     12  C   UNL     1      -3.518  12.983  20.537  0.00  0.00    +0.000 A 
ATOM     13  C   UNL     1      -3.919  12.399  19.345  0.00  0.00    +0.000 A 
ATOM     14  C   UNL     1      -3.038  11.573  18.650  0.00  0.00    +0.000 A 
ATOM     15  C   UNL     1      -1.743  11.321  19.128  0.00  0.00    +0.000 A 
ATOM     16  O   UNL     1      -1.041  10.468  18.319  0.00  0.00    +0.000 OA
ATOM     17  C   UNL     1       0.373  10.344  18.478  0.00  0.00    +0.000 C 
ATOM     18  H   UNL     1       2.381   6.211  21.710  0.00  0.00    +0.000 HD
ATOM     19  H   UNL     1       1.404   7.758  22.833  0.00  0.00    +0.000 HD
ENDROOT
BRANCH   1  20
ATOM     20  C   UNL     1       2.987   6.078  19.708  0.00  0.00    +0.000 C 
BRANCH  20  21
ATOM     21  C   UNL     1       2.681   4.624  19.165  0.00  0.00    +0.000 C 
ATOM     22  C   UNL     1       1.917   4.747  17.826  0.00  0.00    +0.000 C 
ATOM     23  C   UNL     1       1.752   3.935  20.205  0.00  0.00    +0.000 C 
BRANCH  21  24
ATOM     24  N   UNL     1       3.948   3.802  19.032  0.00  0.00    +0.000 NA
ATOM     25  C   UNL     1       5.169   4.619  18.969  0.00  0.00    +0.000 C 
BRANCH  24  27
ATOM     26  C   UNL     1       3.589   1.396  18.288  0.00  0.00    +0.000 C 
ATOM     27  C   UNL     1       3.923   2.839  17.906  0.00  0.00    +0.000 C 
ENDBRANCH  24  27
ENDBRANCH  21  24
ENDBRANCH  20  21
ENDBRANCH   1  20
TORSDOF 4
ENDMDL
MODEL 5
REMARK VINA RESULT:      -7.5      2.349      7.658
REMARK  Name = 
REMARK  8 active torsions:
REMARK  status: ('A' for Active; 'I' for Inactive)
REMARK    1  A    between atoms: C_1  and  C_2
REMARK    2  A    between atoms: C_2  and  N_3
REMARK    3  A    between atoms: N_3  and  C_4
REMARK    4  A    between atoms: N_3  and  C_5
REMARK    5  A    between atoms: C_5  and  C_6
REMARK    6  A    between atoms: C_5  and  C_7
REMARK    7  A    between atoms: C_5  and  C_8
REMARK    8  A    between atoms: C_8  and  N_9
REMARK                            x       y       z     vdW  Elec       q    Type
REMARK                         _______ _______ _______ _____ _____    ______ ____
ROOT
ATOM      1  N   UNL     1       1.430  10.233  17.938  0.00  0.00    +0.000 N 
ATOM      2  C   UNL     1       1.948   9.011  18.261  0.00  0.00    +0.000 A 
ATOM      3  N   UNL     1       1.650   8.386  19.353  0.00  0.00    +0.000 NA
ATOM      4  C   UNL     1       2.263   7.178  19.590  0.00  0.00    +0.000 A 
ATOM      5  C   UNL     1       3.226   6.653  18.819  0.00  0.00    +0.000 A 
ATOM      6  C   UNL     1       3.563   7.375  17.585  0.00  0.00    +0.000 A 
ATOM      7  O   UNL     1       4.449   7.006  16.818  0.00  0.00    +0.000 OA
ATOM      8  N   UNL     1       2.831   8.499  17.353  0.00  0.00    +0.000 N 
ATOM      9  C   UNL     1       3.937   5.390  19.169  0.00  0.00    +0.000 C 
ATOM     10  C   UNL     1       3.035   4.182  19.272  0.00  0.00    +0.000 A 
ATOM     11  C   UNL     1       3.519   2.978  18.718  0.00  0.00    +0.000 A 
ATOM     12  C   UNL     1       2.767   1.806  18.756  0.00  0.00    +0.000 A 
ATOM     13  C   UNL     1       1.516   1.812  19.357  0.00  0.00    +0.000 A 
ATOM     14  C   UNL     1       1.027   2.989  19.920  0.00  0.00    +0.000 A 
ATOM     15  C   UNL     1       1.776   4.175  19.897  0.00  0.00    +0.000 A 
ATOM     16  O   UNL     1       1.115   5.225  20.476  0.00  0.00    +0.000 OA
ATOM     17  C   UNL     1       1.832   6.413  20.816  0.00  0.00    +0.000 C 
ATOM     18  H   UNL     1       1.892  10.678  17.162  0.00  0.00    +0.000 HD
ATOM     19  H   UNL     1       3.049   8.993  16.507  0.00  0.00    +0.000 HD
ENDROOT
BRANCH   1  20
ATOM     20  C   UNL     1       0.999  11.160  18.995  0.00  0.00    +0.000 C 
BRANCH  20  21
ATOM     21  C   UNL     1      -0.567  11.380  19.046  0.00  0.00    +0.000 C 
ATOM     22  C   UNL     1      -1.239  10.367  18.090  0.00  0.00    +0.000 C 
ATOM     23  C   UNL     1      -0.842  12.817  18.520  0.00  0.00    +0.000 C 
BRANCH  21  24
ATOM     24  N   UNL     1      -1.097  11.275  20.462  0.00  0.00    +0.000 NA
ATOM     25  C   UNL     1      -1.803  12.484  20.912  0.00  0.00    +0.000 C 
BRANCH  24  27
ATOM     26  C   UNL     1      -0.317   9.545  22.156  0.00  0.00    +0.000 C 
ATOM     27  C   UNL     1      -0.073  10.885  21.460  0.00  0.00    +0.000 C 
ENDBRANCH  24  27
ENDBRANCH  21  24
ENDBRANCH  20  21
ENDBRANCH   1  20
TORSDOF 4
ENDMDL
MODEL 6
REMARK VINA RESULT:      -7.4      1.351      2.207
REMARK  Name = 
REMARK  8 active torsions:
REMARK  status: ('A' for Active; 'I' for Inactive)
REMARK    1  A    between atoms: C_1  and  C_2
REMARK    2  A    between atoms: C_2  and  N_3
REMARK    3  A    between atoms: N_3  and  C_4
REMARK    4  A    between atoms: N_3  and  C_5
REMARK    5  A    between atoms: C_5  and  C_6
REMARK    6  A    between atoms: C_5  and  C_7
REMARK    7  A    between atoms: C_5  and  C_8
REMARK    8  A    between atoms: C_8  and  N_9
REMARK                            x       y       z     vdW  Elec       q    Type
REMARK                         _______ _______ _______ _____ _____    ______ ____
ROOT
ATOM      1  N   UNL     1       2.161   6.809  20.247  0.00  0.00    +0.000 N 
ATOM      2  C   UNL     1       1.555   8.009  20.486  0.00  0.00    +0.000 A 
ATOM      3  N   UNL     1       1.284   8.860  19.550  0.00  0.00    +0.000 NA
ATOM      4  C   UNL     1       0.706  10.054  19.913  0.00  0.00    +0.000 A 
ATOM      5  C   UNL     1       0.502  10.441  21.181  0.00  0.00    +0.000 A 
ATOM      6  C   UNL     1       0.821   9.472  22.237  0.00  0.00    +0.000 A 
ATOM      7  O   UNL     1       0.703   9.726  23.433  0.00  0.00    +0.000 OA
ATOM      8  N   UNL     1       1.274   8.265  21.798  0.00  0.00    +0.000 N 
ATOM      9  C   UNL     1      -0.032  11.788  21.533  0.00  0.00    +0.000 C 
ATOM     10  C   UNL     1      -1.407  12.072  20.976  0.00  0.00    +0.000 A 
ATOM     11  C   UNL     1      -2.317  12.729  21.832  0.00  0.00    +0.000 A 
ATOM     12  C   UNL     1      -3.612  13.036  21.420  0.00  0.00    +0.000 A 
ATOM     13  C   UNL     1      -4.022  12.700  20.138  0.00  0.00    +0.000 A 
ATOM     14  C   UNL     1      -3.133  12.061  19.274  0.00  0.00    +0.000 A 
ATOM     15  C   UNL     1      -1.823  11.754  19.672  0.00  0.00    +0.000 A 
ATOM     16  O   UNL     1      -1.116  11.106  18.694  0.00  0.00    +0.000 OA
ATOM     17  C   UNL     1       0.304  10.993  18.804  0.00  0.00    +0.000 C 
ATOM     18  H   UNL     1       2.479   6.341  21.081  0.00  0.00    +0.000 HD
ATOM     19  H   UNL     1       1.486   7.594  22.514  0.00  0.00    +0.000 HD
ENDROOT
BRANCH   1  20
ATOM     20  C   UNL     1       3.049   6.642  19.087  0.00  0.00    +0.000 C 
BRANCH  20  21
ATOM     21  C   UNL     1       3.251   5.134  18.654  0.00  0.00    +0.000 C 
ATOM     22  C   UNL     1       2.018   4.685  17.837  0.00  0.00    +0.000 C 
ATOM     23  C   UNL     1       3.316   4.291  19.959  0.00  0.00    +0.000 C 
BRANCH  21  24
ATOM     24  N   UNL     1       4.548   4.944  17.892  0.00  0.00    +0.000 NA
ATOM     25  C   UNL     1       4.412   4.067  16.720  0.00  0.00    +0.000 C 
BRANCH  24  27
ATOM     26  C   UNL     1       6.915   5.393  18.708  0.00  0.00    +0.000 C 
ATOM     27  C   UNL     1       5.679   4.492  18.735  0.00  0.00    +0.000 C 
ENDBRANCH  24  27
ENDBRANCH  21  24
ENDBRANCH  20  21
ENDBRANCH   1  20
TORSDOF 4
ENDMDL
MODEL 7
REMARK VINA RESULT:      -7.3      1.354      2.311
REMARK  Name = 
REMARK  8 active torsions:
REMARK  status: ('A' for Active; 'I' for Inactive)
REMARK    1  A    between atoms: C_1  and  C_2
REMARK    2  A    between atoms: C_2  and  N_3
REMARK    3  A    between atoms: N_3  and  C_4
REMARK    4  A    between atoms: N_3  and  C_5
REMARK    5  A    between atoms: C_5  and  C_6
REMARK    6  A    between atoms: C_5  and  C_7
REMARK    7  A    between atoms: C_5  and  C_8
REMARK    8  A    between atoms: C_8  and  N_9
REMARK                            x       y       z     vdW  Elec       q    Type
REMARK                         _______ _______ _______ _____ _____    ______ ____
ROOT
ATOM      1  N   UNL     1       2.298   6.764  20.164  0.00  0.00    +0.000 N 
ATOM      2  C   UNL     1       1.687   7.964  20.398  0.00  0.00    +0.000 A 
ATOM      3  N   UNL     1       1.409   8.808  19.458  0.00  0.00    +0.000 NA
ATOM      4  C   UNL     1       0.828  10.002  19.816  0.00  0.00    +0.000 A 
ATOM      5  C   UNL     1       0.624  10.395  21.083  0.00  0.00    +0.000 A 
ATOM      6  C   UNL     1       0.950   9.432  22.143  0.00  0.00    +0.000 A 
ATOM      7  O   UNL     1       0.834   9.692  23.338  0.00  0.00    +0.000 OA
ATOM      8  N   UNL     1       1.407   8.225  21.709  0.00  0.00    +0.000 N 
ATOM      9  C   UNL     1       0.086  11.741  21.429  0.00  0.00    +0.000 C 
ATOM     10  C   UNL     1      -1.292  12.017  20.873  0.00  0.00    +0.000 A 
ATOM     11  C   UNL     1      -2.203  12.673  21.728  0.00  0.00    +0.000 A 
ATOM     12  C   UNL     1      -3.499  12.973  21.317  0.00  0.00    +0.000 A 
ATOM     13  C   UNL     1      -3.911  12.628  20.038  0.00  0.00    +0.000 A 
ATOM     14  C   UNL     1      -3.022  11.989  19.176  0.00  0.00    +0.000 A 
ATOM     15  C   UNL     1      -1.710  11.689  19.572  0.00  0.00    +0.000 A 
ATOM     16  O   UNL     1      -1.002  11.040  18.596  0.00  0.00    +0.000 OA
ATOM     17  C   UNL     1       0.419  10.934  18.703  0.00  0.00    +0.000 C 
ATOM     18  H   UNL     1       2.619   6.303  20.999  0.00  0.00    +0.000 HD
ATOM     19  H   UNL     1       1.624   7.558  22.428  0.00  0.00    +0.000 HD
ENDROOT
BRANCH   1  20
ATOM     20  C   UNL     1       3.183   6.596  19.003  0.00  0.00    +0.000 C 
BRANCH  20  21
ATOM     21  C   UNL     1       3.824   5.154  18.898  0.00  0.00    +0.000 C 
ATOM     22  C   UNL     1       3.128   4.228  19.922  0.00  0.00    +0.000 C 
ATOM     23  C   UNL     1       5.322   5.292  19.292  0.00  0.00    +0.000 C 
BRANCH  21  24
ATOM     24  N   UNL     1       3.746   4.611  17.484  0.00  0.00    +0.000 NA
ATOM     25  C   UNL     1       3.725   3.142  17.424  0.00  0.00    +0.000 C 
BRANCH  24  27
ATOM     26  C   UNL     1       5.525   4.093  15.742  0.00  0.00    +0.000 C 
ATOM     27  C   UNL     1       4.791   5.142  16.578  0.00  0.00    +0.000 C 
ENDBRANCH  24  27
ENDBRANCH  21  24
ENDBRANCH  20  21
ENDBRANCH   1  20
TORSDOF 4
ENDMDL
MODEL 8
REMARK VINA RESULT:      -7.3      1.238      1.916
REMARK  Name = 
REMARK  8 active torsions:
REMARK  status: ('A' for Active; 'I' for Inactive)
REMARK    1  A    between atoms: C_1  and  C_2
REMARK    2  A    between atoms: C_2  and  N_3
REMARK    3  A    between atoms: N_3  and  C_4
REMARK    4  A    between atoms: N_3  and  C_5
REMARK    5  A    between atoms: C_5  and  C_6
REMARK    6  A    between atoms: C_5  and  C_7
REMARK    7  A    between atoms: C_5  and  C_8
REMARK    8  A    between atoms: C_8  and  N_9
REMARK                            x       y       z     vdW  Elec       q    Type
REMARK                         _______ _______ _______ _____ _____    ______ ____
ROOT
ATOM      1  N   UNL     1       2.149   6.767  20.475  0.00  0.00    +0.000 N 
ATOM      2  C   UNL     1       1.540   7.977  20.651  0.00  0.00    +0.000 A 
ATOM      3  N   UNL     1       1.301   8.794  19.676  0.00  0.00    +0.000 NA
ATOM      4  C   UNL     1       0.718  10.002  19.978  0.00  0.00    +0.000 A 
ATOM      5  C   UNL     1       0.475  10.436  21.224  0.00  0.00    +0.000 A 
ATOM      6  C   UNL     1       0.757   9.504  22.324  0.00  0.00    +0.000 A 
ATOM      7  O   UNL     1       0.602   9.803  23.505  0.00  0.00    +0.000 OA
ATOM      8  N   UNL     1       1.218   8.282  21.944  0.00  0.00    +0.000 N 
ATOM      9  C   UNL     1      -0.064  11.796  21.509  0.00  0.00    +0.000 C 
ATOM     10  C   UNL     1      -1.420  12.064  20.899  0.00  0.00    +0.000 A 
ATOM     11  C   UNL     1      -2.354  12.753  21.702  0.00  0.00    +0.000 A 
ATOM     12  C   UNL     1      -3.633  13.049  21.238  0.00  0.00    +0.000 A 
ATOM     13  C   UNL     1      -4.004  12.668  19.956  0.00  0.00    +0.000 A 
ATOM     14  C   UNL     1      -3.092  11.996  19.145  0.00  0.00    +0.000 A 
ATOM     15  C   UNL     1      -1.796  11.699  19.595  0.00  0.00    +0.000 A 
ATOM     16  O   UNL     1      -1.061  11.015  18.664  0.00  0.00    +0.000 OA
ATOM     17  C   UNL     1       0.354  10.902  18.823  0.00  0.00    +0.000 C 
ATOM     18  H   UNL     1       2.438   6.330  21.335  0.00  0.00    +0.000 HD
ATOM     19  H   UNL     1       1.405   7.636  22.689  0.00  0.00    +0.000 HD
ENDROOT
BRANCH   1  20
ATOM     20  C   UNL     1       3.071   6.556  19.351  0.00  0.00    +0.000 C 
BRANCH  20  21
ATOM     21  C   UNL     1       3.525   5.051  19.176  0.00  0.00    +0.000 C 
ATOM     22  C   UNL     1       3.044   4.244  20.405  0.00  0.00    +0.000 C 
ATOM     23  C   UNL     1       5.080   5.043  19.155  0.00  0.00    +0.000 C 
BRANCH  21  24
ATOM     24  N   UNL     1       3.022   4.466  17.871  0.00  0.00    +0.000 NA
ATOM     25  C   UNL     1       1.586   4.149  17.889  0.00  0.00    +0.000 C 
BRANCH  24  27
ATOM     26  C   UNL     1       3.284   1.936  17.889  0.00  0.00    +0.000 C 
ATOM     27  C   UNL     1       3.795   3.293  17.401  0.00  0.00    +0.000 C 
ENDBRANCH  24  27
ENDBRANCH  21  24
ENDBRANCH  20  21
ENDBRANCH   1  20
TORSDOF 4
ENDMDL
MODEL 9
REMARK VINA RESULT:      -7.3      1.494      1.966
REMARK  Name = 
REMARK  8 active torsions:
REMARK  status: ('A' for Active; 'I' for Inactive)
REMARK    1  A    between atoms: C_1  and  C_2
REMARK    2  A    between atoms: C_2  and  N_3
REMARK    3  A    between atoms: N_3  and  C_4
REMARK    4  A    between atoms: N_3  and  C_5
REMARK    5  A    between atoms: C_5  and  C_6
REMARK    6  A    between atoms: C_5  and  C_7
REMARK    7  A    between atoms: C_5  and  C_8
REMARK    8  A    between atoms: C_8  and  N_9
REMARK                            x       y       z     vdW  Elec       q    Type
REMARK                         _______ _______ _______ _____ _____    ______ ____
ROOT
ATOM      1  N   UNL     1       2.008   7.329  20.062  0.00  0.00    +0.000 N 
ATOM      2  C   UNL     1       1.348   8.451  20.475  0.00  0.00    +0.000 A 
ATOM      3  N   UNL     1       1.031   9.417  19.674  0.00  0.00    +0.000 NA
ATOM      4  C   UNL     1       0.401  10.516  20.209  0.00  0.00    +0.000 A 
ATOM      5  C   UNL     1       0.185  10.702  21.520  0.00  0.00    +0.000 A 
ATOM      6  C   UNL     1       0.556   9.603  22.422  0.00  0.00    +0.000 A 
ATOM      7  O   UNL     1       0.433   9.672  23.642  0.00  0.00    +0.000 OA
ATOM      8  N   UNL     1       1.062   8.497  21.810  0.00  0.00    +0.000 N 
ATOM      9  C   UNL     1      -0.409  11.955  22.066  0.00  0.00    +0.000 C 
ATOM     10  C   UNL     1      -1.799  12.254  21.555  0.00  0.00    +0.000 A 
ATOM     11  C   UNL     1      -2.734  12.733  22.498  0.00  0.00    +0.000 A 
ATOM     12  C   UNL     1      -4.043  13.036  22.133  0.00  0.00    +0.000 A 
ATOM     13  C   UNL     1      -4.445  12.874  20.815  0.00  0.00    +0.000 A 
ATOM     14  C   UNL     1      -3.532  12.412  19.868  0.00  0.00    +0.000 A 
ATOM     15  C   UNL     1      -2.207  12.112  20.218  0.00  0.00    +0.000 A 
ATOM     16  O   UNL     1      -1.476  11.650  19.156  0.00  0.00    +0.000 OA
ATOM     17  C   UNL     1      -0.051  11.589  19.250  0.00  0.00    +0.000 C 
ATOM     18  H   UNL     1       2.352   6.759  20.818  0.00  0.00    +0.000 HD
ATOM     19  H   UNL     1       1.309   7.738  22.419  0.00  0.00    +0.000 HD
ENDROOT
BRANCH   1  20
ATOM     20  C   UNL     1       2.895   7.378  18.891  0.00  0.00    +0.000 C 
BRANCH  20  21
ATOM     21  C   UNL     1       3.378   5.953  18.401  0.00  0.00    +0.000 C 
ATOM     22  C   UNL     1       4.271   6.137  17.152  0.00  0.00    +0.000 C 
ATOM     23  C   UNL     1       2.107   5.158  17.990  0.00  0.00    +0.000 C 
BRANCH  21  24
ATOM     24  N   UNL     1       4.084   5.194  19.507  0.00  0.00    +0.000 NA
ATOM     25  C   UNL     1       5.521   5.001  19.257  0.00  0.00    +0.000 C 
BRANCH  24  27
ATOM     26  C   UNL     1       4.362   2.677  19.741  0.00  0.00    +0.000 C 
ATOM     27  C   UNL     1       3.450   3.900  19.848  0.00  0.00    +0.000 C 
ENDBRANCH  24  27
ENDBRANCH  21  24
ENDBRANCH  20  21
ENDBRANCH   1  20
TORSDOF 4
ENDMDL
