MODEL 1
REMARK VINA RESULT:      -9.0      0.000      0.000
REMARK  Name = 
REMARK  5 active torsions:
REMARK  status: ('A' for Active; 'I' for Inactive)
REMARK    1  A    between atoms: O_1  and  C_2
REMARK    2  A    between atoms: C_14  and  N_15
REMARK    3  A    between atoms: N_15  and  C_16
REMARK    4  A    between atoms: C_16  and  C_17
REMARK    5  A    between atoms: C_20  and  C_21
REMARK                            x       y       z     vdW  Elec       q    Type
REMARK                         _______ _______ _______ _____ _____    ______ ____
ROOT
ATOM      1  C   UNL     1       1.706   4.885  20.073  0.00  0.00    +0.000 C 
ATOM      2  C   UNL     1       0.825   3.665  20.373  0.00  0.00    +0.000 C 
ATOM      3  C   UNL     1       1.653   2.388  20.358  0.00  0.00    +0.000 C 
ATOM      4  C   UNL     1       2.252   2.190  18.972  0.00  0.00    +0.000 C 
ATOM      5  C   UNL     1       2.920   3.421  18.418  0.00  0.00    +0.000 A 
ATOM      6  N   UNL     1       3.735   3.191  17.371  0.00  0.00    +0.000 NA
ATOM      7  C   UNL     1       4.353   4.218  16.780  0.00  0.00    +0.000 A 
ATOM      8  C   UNL     1       5.187   3.883  15.720  0.00  0.00    +0.000 A 
ATOM      9  C   UNL     1       5.922   4.833  15.016  0.00  0.00    +0.000 A 
ATOM     10  C   UNL     1       5.819   6.158  15.377  0.00  0.00    +0.000 A 
ATOM     11  C   UNL     1       4.975   6.511  16.433  0.00  0.00    +0.000 A 
ATOM     12  C   UNL     1       4.201   5.564  17.180  0.00  0.00    +0.000 A 
ATOM     13  C   UNL     1       3.314   5.810  18.293  0.00  0.00    +0.000 A 
ATOM     14  C   UNL     1       2.656   4.702  18.904  0.00  0.00    +0.000 A 
ENDROOT
BRANCH   1  15
ATOM     15  O   UNL     1       2.492   5.197  21.228  0.00  0.00    +0.000 OA
ATOM     16  H   UNL     1       2.839   6.096  21.110  0.00  0.00    +0.000 HD
ENDBRANCH   1  15
BRANCH  13  17
ATOM     17  N   UNL     1       2.964   7.076  18.812  0.00  0.00    +0.000 N 
ATOM     18  H   UNL     1       3.788   7.510  19.238  0.00  0.00    +0.000 HD
BRANCH  17  19
ATOM     19  C   UNL     1       2.124   8.039  18.138  0.00  0.00    +0.000 C 
BRANCH  19  20
ATOM     20  C   UNL     1       1.353   8.878  19.125  0.00  0.00    +0.000 A 
ATOM     21  C   UNL     1       1.367   8.526  20.480  0.00  0.00    +0.000 A 
ATOM     22  C   UNL     1       0.691   9.302  21.418  0.00  0.00    +0.000 A 
ATOM     23  C   UNL     1      -0.023  10.439  21.016  0.00  0.00    +0.000 A 
ATOM     24  C   UNL     1      -0.027  10.797  19.658  0.00  0.00    +0.000 A 
ATOM     25  C   UNL     1       0.651  10.019  18.717  0.00  0.00    +0.000 A 
BRANCH  23  26
ATOM     26  C   UNL     1      -0.795  11.257  22.020  0.00  0.00    +0.000 C 
ATOM     27  F   UNL     1      -2.000  11.692  21.555  0.00  0.00    +0.000 F 
ATOM     28  F   UNL     1      -1.063  10.568  23.162  0.00  0.00    +0.000 F 
ATOM     29  F   UNL     1      -0.120  12.375  22.405  0.00  0.00    +0.000 F 
ENDBRANCH  23  26
ENDBRANCH  19  20
ENDBRANCH  17  19
ENDBRANCH  13  17
TORSDOF 5
ENDMDL
MODEL 2
REMARK VINA RESULT:      -9.0      0.094      1.174
REMARK  Name = 
REMARK  5 active torsions:
REMARK  status: ('A' for Active; 'I' for Inactive)
REMARK    1  A    between atoms: O_1  and  C_2
REMARK    2  A    between atoms: C_14  and  N_15
REMARK    3  A    between atoms: N_15  and  C_16
REMARK    4  A    between atoms: C_16  and  C_17
REMARK    5  A    between atoms: C_20  and  C_21
REMARK                            x       y       z     vdW  Elec       q    Type
REMARK                         _______ _______ _______ _____ _____    ______ ____
ROOT
ATOM      1  C   UNL     1       1.702   4.944  20.122  0.00  0.00    +0.000 C 
ATOM      2  C   UNL     1       0.809   3.732  20.422  0.00  0.00    +0.000 C 
ATOM      3  C   UNL     1       1.622   2.446  20.397  0.00  0.00    +0.000 C 
ATOM      4  C   UNL     1       2.211   2.247  19.007  0.00  0.00    +0.000 C 
ATOM      5  C   UNL     1       2.890   3.473  18.453  0.00  0.00    +0.000 A 
ATOM      6  N   UNL     1       3.696   3.239  17.401  0.00  0.00    +0.000 NA
ATOM      7  C   UNL     1       4.321   4.261  16.810  0.00  0.00    +0.000 A 
ATOM      8  C   UNL     1       5.145   3.921  15.744  0.00  0.00    +0.000 A 
ATOM      9  C   UNL     1       5.887   4.866  15.039  0.00  0.00    +0.000 A 
ATOM     10  C   UNL     1       5.801   6.190  15.407  0.00  0.00    +0.000 A 
ATOM     11  C   UNL     1       4.968   6.548  16.470  0.00  0.00    +0.000 A 
ATOM     12  C   UNL     1       4.187   5.607  17.218  0.00  0.00    +0.000 A 
ATOM     13  C   UNL     1       3.309   5.859  18.336  0.00  0.00    +0.000 A 
ATOM     14  C   UNL     1       2.643   4.755  18.947  0.00  0.00    +0.000 A 
ENDROOT
BRANCH   1  15
ATOM     15  O   UNL     1       2.498   5.242  21.274  0.00  0.00    +0.000 OA
ATOM     16  H   UNL     1       3.399   4.924  21.095  0.00  0.00    +0.000 HD
ENDBRANCH   1  15
BRANCH  13  17
ATOM     17  N   UNL     1       2.977   7.126  18.863  0.00  0.00    +0.000 N 
ATOM     18  H   UNL     1       3.812   7.555  19.272  0.00  0.00    +0.000 HD
BRANCH  17  19
ATOM     19  C   UNL     1       2.129   8.094  18.206  0.00  0.00    +0.000 C 
BRANCH  19  20
ATOM     20  C   UNL     1       1.359   8.916  19.208  0.00  0.00    +0.000 A 
ATOM     21  C   UNL     1       0.678  10.061  18.774  0.00  0.00    +0.000 A 
ATOM     22  C   UNL     1      -0.068  10.821  19.670  0.00  0.00    +0.000 A 
ATOM     23  C   UNL     1      -0.137  10.458  21.022  0.00  0.00    +0.000 A 
ATOM     24  C   UNL     1       0.537   9.304  21.453  0.00  0.00    +0.000 A 
ATOM     25  C   UNL     1       1.286   8.541  20.554  0.00  0.00    +0.000 A 
BRANCH  23  26
ATOM     26  C   UNL     1      -0.906  11.302  22.006  0.00  0.00    +0.000 C 
ATOM     27  F   UNL     1      -1.275  10.626  23.130  0.00  0.00    +0.000 F 
ATOM     28  F   UNL     1      -0.197  12.381  22.436  0.00  0.00    +0.000 F 
ATOM     29  F   UNL     1      -2.058  11.796  21.475  0.00  0.00    +0.000 F 
ENDBRANCH  23  26
ENDBRANCH  19  20
ENDBRANCH  17  19
ENDBRANCH  13  17
TORSDOF 5
ENDMDL
MODEL 3
REMARK VINA RESULT:      -8.8      1.563      3.859
REMARK  Name = 
REMARK  5 active torsions:
REMARK  status: ('A' for Active; 'I' for Inactive)
REMARK    1  A    between atoms: O_1  and  C_2
REMARK    2  A    between atoms: C_14  and  N_15
REMARK    3  A    between atoms: N_15  and  C_16
REMARK    4  A    between atoms: C_16  and  C_17
REMARK    5  A    between atoms: C_20  and  C_21
REMARK                            x       y       z     vdW  Elec       q    Type
REMARK                         _______ _______ _______ _____ _____    ______ ____
ROOT
ATOM      1  C   UNL     1       5.580   6.338  16.450  0.00  0.00    +0.000 C 
ATOM      2  C   UNL     1       6.865   5.797  15.809  0.00  0.00    +0.000 C 
ATOM      3  C   UNL     1       6.550   4.647  14.863  0.00  0.00    +0.000 C 
ATOM      4  C   UNL     1       5.915   3.507  15.647  0.00  0.00    +0.000 C 
ATOM      5  C   UNL     1       4.797   3.944  16.557  0.00  0.00    +0.000 A 
ATOM      6  N   UNL     1       4.009   2.944  16.995  0.00  0.00    +0.000 NA
ATOM      7  C   UNL     1       3.007   3.215  17.835  0.00  0.00    +0.000 A 
ATOM      8  C   UNL     1       2.238   2.123  18.220  0.00  0.00    +0.000 A 
ATOM      9  C   UNL     1       1.141   2.241  19.070  0.00  0.00    +0.000 A 
ATOM     10  C   UNL     1       0.803   3.486  19.554  0.00  0.00    +0.000 A 
ATOM     11  C   UNL     1       1.575   4.591  19.185  0.00  0.00    +0.000 A 
ATOM     12  C   UNL     1       2.711   4.511  18.316  0.00  0.00    +0.000 A 
ATOM     13  C   UNL     1       3.567   5.580  17.857  0.00  0.00    +0.000 A 
ATOM     14  C   UNL     1       4.638   5.267  16.968  0.00  0.00    +0.000 A 
ENDROOT
BRANCH   1  15
ATOM     15  O   UNL     1       4.865   7.120  15.488  0.00  0.00    +0.000 OA
ATOM     16  H   UNL     1       4.842   8.035  15.815  0.00  0.00    +0.000 HD
ENDBRANCH   1  15
BRANCH  13  17
ATOM     17  N   UNL     1       3.496   6.931  18.260  0.00  0.00    +0.000 N 
ATOM     18  H   UNL     1       4.421   7.362  18.174  0.00  0.00    +0.000 HD
BRANCH  17  19
ATOM     19  C   UNL     1       2.432   7.841  17.905  0.00  0.00    +0.000 C 
BRANCH  19  20
ATOM     20  C   UNL     1       1.752   8.393  19.132  0.00  0.00    +0.000 A 
ATOM     21  C   UNL     1       1.919   7.740  20.360  0.00  0.00    +0.000 A 
ATOM     22  C   UNL     1       1.330   8.246  21.515  0.00  0.00    +0.000 A 
ATOM     23  C   UNL     1       0.551   9.410  21.462  0.00  0.00    +0.000 A 
ATOM     24  C   UNL     1       0.393  10.070  20.233  0.00  0.00    +0.000 A 
ATOM     25  C   UNL     1       0.984   9.562  19.074  0.00  0.00    +0.000 A 
BRANCH  23  26
ATOM     26  C   UNL     1      -0.127   9.937  22.701  0.00  0.00    +0.000 C 
ATOM     27  F   UNL     1      -1.425   9.537  22.822  0.00  0.00    +0.000 F 
ATOM     28  F   UNL     1       0.492   9.541  23.847  0.00  0.00    +0.000 F 
ATOM     29  F   UNL     1      -0.153  11.297  22.738  0.00  0.00    +0.000 F 
ENDBRANCH  23  26
ENDBRANCH  19  20
ENDBRANCH  17  19
ENDBRANCH  13  17
TORSDOF 5
ENDMDL
MODEL 4
REMARK VINA RESULT:      -8.6      1.437      3.958
REMARK  Name = 
REMARK  5 active torsions:
REMARK  status: ('A' for Active; 'I' for Inactive)
REMARK    1  A    between atoms: O_1  and  C_2
REMARK    2  A    between atoms: C_14  and  N_15
REMARK    3  A    between atoms: N_15  and  C_16
REMARK    4  A    between atoms: C_16  and  C_17
REMARK    5  A    between atoms: C_20  and  C_21
REMARK                            x       y       z     vdW  Elec       q    Type
REMARK                         _______ _______ _______ _____ _____    ______ ____
ROOT
ATOM      1  C   UNL     1       5.603   6.350  16.489  0.00  0.00    +0.000 C 
ATOM      2  C   UNL     1       6.914   5.810  15.901  0.00  0.00    +0.000 C 
ATOM      3  C   UNL     1       6.645   4.616  14.996  0.00  0.00    +0.000 C 
ATOM      4  C   UNL     1       6.013   3.496  15.810  0.00  0.00    +0.000 C 
ATOM      5  C   UNL     1       4.864   3.946  16.674  0.00  0.00    +0.000 A 
ATOM      6  N   UNL     1       4.085   2.949  17.134  0.00  0.00    +0.000 NA
ATOM      7  C   UNL     1       3.057   3.234  17.938  0.00  0.00    +0.000 A 
ATOM      8  C   UNL     1       2.300   2.143  18.348  0.00  0.00    +0.000 A 
ATOM      9  C   UNL     1       1.181   2.273  19.166  0.00  0.00    +0.000 A 
ATOM     10  C   UNL     1       0.807   3.529  19.590  0.00  0.00    +0.000 A 
ATOM     11  C   UNL     1       1.565   4.633  19.195  0.00  0.00    +0.000 A 
ATOM     12  C   UNL     1       2.724   4.541  18.357  0.00  0.00    +0.000 A 
ATOM     13  C   UNL     1       3.570   5.608  17.876  0.00  0.00    +0.000 A 
ATOM     14  C   UNL     1       4.669   5.282  17.027  0.00  0.00    +0.000 A 
ENDROOT
BRANCH   1  15
ATOM     15  O   UNL     1       4.897   7.078  15.478  0.00  0.00    +0.000 OA
ATOM     16  H   UNL     1       5.556   7.563  14.954  0.00  0.00    +0.000 HD
ENDBRANCH   1  15
BRANCH  13  17
ATOM     17  N   UNL     1       3.463   6.974  18.222  0.00  0.00    +0.000 N 
ATOM     18  H   UNL     1       4.400   7.381  18.296  0.00  0.00    +0.000 HD
BRANCH  17  19
ATOM     19  C   UNL     1       2.507   7.894  17.652  0.00  0.00    +0.000 C 
BRANCH  19  20
ATOM     20  C   UNL     1       1.774   8.656  18.726  0.00  0.00    +0.000 A 
ATOM     21  C   UNL     1       1.091   9.831  18.386  0.00  0.00    +0.000 A 
ATOM     22  C   UNL     1       0.377  10.538  19.351  0.00  0.00    +0.000 A 
ATOM     23  C   UNL     1       0.344  10.089  20.678  0.00  0.00    +0.000 A 
ATOM     24  C   UNL     1       1.019   8.905  21.015  0.00  0.00    +0.000 A 
ATOM     25  C   UNL     1       1.736   8.196  20.048  0.00  0.00    +0.000 A 
BRANCH  23  26
ATOM     26  C   UNL     1      -0.388  10.874  21.736  0.00  0.00    +0.000 C 
ATOM     27  F   UNL     1      -0.560  10.188  22.901  0.00  0.00    +0.000 F 
ATOM     28  F   UNL     1       0.254  12.025  22.073  0.00  0.00    +0.000 F 
ATOM     29  F   UNL     1      -1.636  11.243  21.335  0.00  0.00    +0.000 F 
ENDBRANCH  23  26
ENDBRANCH  19  20
ENDBRANCH  17  19
ENDBRANCH  13  17
TORSDOF 5
ENDMDL
MODEL 5
REMARK VINA RESULT:      -8.4      0.791      1.228
REMARK  Name = 
REMARK  5 active torsions:
REMARK  status: ('A' for Active; 'I' for Inactive)
REMARK    1  A    between atoms: O_1  and  C_2
REMARK    2  A    between atoms: C_14  and  N_15
REMARK    3  A    between atoms: N_15  and  C_16
REMARK    4  A    between atoms: C_16  and  C_17
REMARK    5  A    between atoms: C_20  and  C_21
REMARK                            x       y       z     vdW  Elec       q    Type
REMARK                         _______ _______ _______ _____ _____    ______ ____
ROOT
ATOM      1  C   UNL     1       1.529   4.355  19.536  0.00  0.00    +0.000 C 
ATOM      2  C   UNL     1       0.658   3.115  19.294  0.00  0.00    +0.000 C 
ATOM      3  C   UNL     1       1.515   1.858  19.247  0.00  0.00    +0.000 C 
ATOM      4  C   UNL     1       2.497   1.959  18.088  0.00  0.00    +0.000 C 
ATOM      5  C   UNL     1       3.238   3.270  18.032  0.00  0.00    +0.000 A 
ATOM      6  N   UNL     1       4.330   3.263  17.245  0.00  0.00    +0.000 NA
ATOM      7  C   UNL     1       5.042   4.383  17.095  0.00  0.00    +0.000 A 
ATOM      8  C   UNL     1       6.161   4.275  16.279  0.00  0.00    +0.000 A 
ATOM      9  C   UNL     1       7.022   5.343  16.042  0.00  0.00    +0.000 A 
ATOM     10  C   UNL     1       6.756   6.558  16.635  0.00  0.00    +0.000 A 
ATOM     11  C   UNL     1       5.628   6.684  17.449  0.00  0.00    +0.000 A 
ATOM     12  C   UNL     1       4.717   5.610  17.715  0.00  0.00    +0.000 A 
ATOM     13  C   UNL     1       3.536   5.621  18.546  0.00  0.00    +0.000 A 
ATOM     14  C   UNL     1       2.784   4.417  18.684  0.00  0.00    +0.000 A 
ENDROOT
BRANCH   1  15
ATOM     15  O   UNL     1       1.932   4.391  20.909  0.00  0.00    +0.000 OA
ATOM     16  H   UNL     1       1.663   3.549  21.313  0.00  0.00    +0.000 HD
ENDBRANCH   1  15
BRANCH  13  17
ATOM     17  N   UNL     1       2.991   6.748  19.201  0.00  0.00    +0.000 N 
ATOM     18  H   UNL     1       3.640   7.068  19.925  0.00  0.00    +0.000 HD
BRANCH  17  19
ATOM     19  C   UNL     1       2.326   7.844  18.536  0.00  0.00    +0.000 C 
BRANCH  19  20
ATOM     20  C   UNL     1       1.540   8.681  19.514  0.00  0.00    +0.000 A 
ATOM     21  C   UNL     1       0.998   9.901  19.089  0.00  0.00    +0.000 A 
ATOM     22  C   UNL     1       0.240  10.679  19.960  0.00  0.00    +0.000 A 
ATOM     23  C   UNL     1       0.021  10.257  21.278  0.00  0.00    +0.000 A 
ATOM     24  C   UNL     1       0.555   9.029  21.700  0.00  0.00    +0.000 A 
ATOM     25  C   UNL     1       1.316   8.248  20.826  0.00  0.00    +0.000 A 
BRANCH  23  26
ATOM     26  C   UNL     1      -0.760  11.117  22.239  0.00  0.00    +0.000 C 
ATOM     27  F   UNL     1      -2.006  11.440  21.790  0.00  0.00    +0.000 F 
ATOM     28  F   UNL     1      -0.943  10.518  23.448  0.00  0.00    +0.000 F 
ATOM     29  F   UNL     1      -0.139  12.301  22.496  0.00  0.00    +0.000 F 
ENDBRANCH  23  26
ENDBRANCH  19  20
ENDBRANCH  17  19
ENDBRANCH  13  17
TORSDOF 5
ENDMDL
MODEL 6
REMARK VINA RESULT:      -8.4      1.321      1.798
REMARK  Name = 
REMARK  5 active torsions:
REMARK  status: ('A' for Active; 'I' for Inactive)
REMARK    1  A    between atoms: O_1  and  C_2
REMARK    2  A    between atoms: C_14  and  N_15
REMARK    3  A    between atoms: N_15  and  C_16
REMARK    4  A    between atoms: C_16  and  C_17
REMARK    5  A    between atoms: C_20  and  C_21
REMARK                            x       y       z     vdW  Elec       q    Type
REMARK                         _______ _______ _______ _____ _____    ______ ____
ROOT
ATOM      1  C   UNL     1       1.484   4.424  19.768  0.00  0.00    +0.000 C 
ATOM      2  C   UNL     1       1.154   3.022  20.297  0.00  0.00    +0.000 C 
ATOM      3  C   UNL     1       2.236   2.540  21.252  0.00  0.00    +0.000 C 
ATOM      4  C   UNL     1       3.562   2.448  20.509  0.00  0.00    +0.000 C 
ATOM      5  C   UNL     1       3.891   3.675  19.699  0.00  0.00    +0.000 A 
ATOM      6  N   UNL     1       5.178   3.763  19.314  0.00  0.00    +0.000 NA
ATOM      7  C   UNL     1       5.571   4.795  18.562  0.00  0.00    +0.000 A 
ATOM      8  C   UNL     1       6.920   4.811  18.229  0.00  0.00    +0.000 A 
ATOM      9  C   UNL     1       7.493   5.830  17.472  0.00  0.00    +0.000 A 
ATOM     10  C   UNL     1       6.695   6.863  17.031  0.00  0.00    +0.000 A 
ATOM     11  C   UNL     1       5.334   6.853  17.349  0.00  0.00    +0.000 A 
ATOM     12  C   UNL     1       4.707   5.822  18.122  0.00  0.00    +0.000 A 
ATOM     13  C   UNL     1       3.323   5.717  18.521  0.00  0.00    +0.000 A 
ATOM     14  C   UNL     1       2.922   4.603  19.316  0.00  0.00    +0.000 A 
ENDROOT
BRANCH   1  15
ATOM     15  O   UNL     1       1.227   5.389  20.794  0.00  0.00    +0.000 OA
ATOM     16  H   UNL     1       0.589   4.994  21.412  0.00  0.00    +0.000 HD
ENDBRANCH   1  15
BRANCH  13  17
ATOM     17  N   UNL     1       2.280   6.590  18.141  0.00  0.00    +0.000 N 
ATOM     18  H   UNL     1       1.438   6.372  18.681  0.00  0.00    +0.000 HD
BRANCH  17  19
ATOM     19  C   UNL     1       2.435   8.008  17.915  0.00  0.00    +0.000 C 
BRANCH  19  20
ATOM     20  C   UNL     1       1.628   8.811  18.902  0.00  0.00    +0.000 A 
ATOM     21  C   UNL     1       0.879   9.904  18.446  0.00  0.00    +0.000 A 
ATOM     22  C   UNL     1       0.098  10.644  19.330  0.00  0.00    +0.000 A 
ATOM     23  C   UNL     1       0.061  10.312  20.691  0.00  0.00    +0.000 A 
ATOM     24  C   UNL     1       0.803   9.210  21.145  0.00  0.00    +0.000 A 
ATOM     25  C   UNL     1       1.587   8.467  20.259  0.00  0.00    +0.000 A 
BRANCH  23  26
ATOM     26  C   UNL     1      -0.746  11.137  21.661  0.00  0.00    +0.000 C 
ATOM     27  F   UNL     1      -1.188  10.430  22.740  0.00  0.00    +0.000 F 
ATOM     28  F   UNL     1      -0.045  12.188  22.166  0.00  0.00    +0.000 F 
ATOM     29  F   UNL     1      -1.860  11.669  21.086  0.00  0.00    +0.000 F 
ENDBRANCH  23  26
ENDBRANCH  19  20
ENDBRANCH  17  19
ENDBRANCH  13  17
TORSDOF 5
ENDMDL
MODEL 7
REMARK VINA RESULT:      -8.3      1.856      3.996
REMARK  Name = 
REMARK  5 active torsions:
REMARK  status: ('A' for Active; 'I' for Inactive)
REMARK    1  A    between atoms: O_1  and  C_2
REMARK    2  A    between atoms: C_14  and  N_15
REMARK    3  A    between atoms: N_15  and  C_16
REMARK    4  A    between atoms: C_16  and  C_17
REMARK    5  A    between atoms: C_20  and  C_21
REMARK                            x       y       z     vdW  Elec       q    Type
REMARK                         _______ _______ _______ _____ _____    ______ ____
ROOT
ATOM      1  C   UNL     1       5.252   6.878  17.102  0.00  0.00    +0.000 C 
ATOM      2  C   UNL     1       6.770   7.056  17.245  0.00  0.00    +0.000 C 
ATOM      3  C   UNL     1       7.474   5.707  17.218  0.00  0.00    +0.000 C 
ATOM      4  C   UNL     1       6.999   4.865  18.394  0.00  0.00    +0.000 C 
ATOM      5  C   UNL     1       5.502   4.829  18.551  0.00  0.00    +0.000 A 
ATOM      6  N   UNL     1       5.046   3.846  19.350  0.00  0.00    +0.000 NA
ATOM      7  C   UNL     1       3.735   3.744  19.587  0.00  0.00    +0.000 A 
ATOM      8  C   UNL     1       3.357   2.689  20.409  0.00  0.00    +0.000 A 
ATOM      9  C   UNL     1       2.028   2.430  20.730  0.00  0.00    +0.000 A 
ATOM     10  C   UNL     1       1.045   3.249  20.220  0.00  0.00    +0.000 A 
ATOM     11  C   UNL     1       1.412   4.320  19.401  0.00  0.00    +0.000 A 
ATOM     12  C   UNL     1       2.768   4.622  19.049  0.00  0.00    +0.000 A 
ATOM     13  C   UNL     1       3.259   5.686  18.205  0.00  0.00    +0.000 A 
ATOM     14  C   UNL     1       4.663   5.784  17.973  0.00  0.00    +0.000 A 
ENDROOT
BRANCH   1  15
ATOM     15  O   UNL     1       4.938   6.567  15.741  0.00  0.00    +0.000 OA
ATOM     16  H   UNL     1       4.640   5.643  15.714  0.00  0.00    +0.000 HD
ENDBRANCH   1  15
BRANCH  13  17
ATOM     17  N   UNL     1       2.482   6.710  17.621  0.00  0.00    +0.000 N 
ATOM     18  H   UNL     1       1.500   6.421  17.597  0.00  0.00    +0.000 HD
BRANCH  17  19
ATOM     19  C   UNL     1       2.633   8.119  17.903  0.00  0.00    +0.000 C 
BRANCH  19  20
ATOM     20  C   UNL     1       1.862   8.516  19.136  0.00  0.00    +0.000 A 
ATOM     21  C   UNL     1       1.956   7.724  20.287  0.00  0.00    +0.000 A 
ATOM     22  C   UNL     1       1.281   8.085  21.451  0.00  0.00    +0.000 A 
ATOM     23  C   UNL     1       0.488   9.239  21.480  0.00  0.00    +0.000 A 
ATOM     24  C   UNL     1       0.402  10.038  20.329  0.00  0.00    +0.000 A 
ATOM     25  C   UNL     1       1.079   9.677  19.162  0.00  0.00    +0.000 A 
BRANCH  23  26
ATOM     26  C   UNL     1      -0.282   9.610  22.722  0.00  0.00    +0.000 C 
ATOM     27  F   UNL     1      -0.823  10.860  22.673  0.00  0.00    +0.000 F 
ATOM     28  F   UNL     1      -1.319   8.764  22.969  0.00  0.00    +0.000 F 
ATOM     29  F   UNL     1       0.496   9.586  23.840  0.00  0.00    +0.000 F 
ENDBRANCH  23  26
ENDBRANCH  19  20
ENDBRANCH  17  19
ENDBRANCH  13  17
TORSDOF 5
ENDMDL
MODEL 8
REMARK VINA RESULT:      -8.3      1.348      1.544
REMARK  Name = 
REMARK  5 active torsions:
REMARK  status: ('A' for Active; 'I' for Inactive)
REMARK    1  A    between atoms: O_1  and  C_2
REMARK    2  A    between atoms: C_14  and  N_15
REMARK    3  A    between atoms: N_15  and  C_16
REMARK    4  A    between atoms: C_16  and  C_17
REMARK    5  A    between atoms: C_20  and  C_21
REMARK                            x       y       z     vdW  Elec       q    Type
REMARK                         _______ _______ _______ _____ _____    ______ ____
ROOT
ATOM      1  C   UNL     1       1.489   4.425  19.798  0.00  0.00    +0.000 C 
ATOM      2  C   UNL     1       1.159   3.018  20.314  0.00  0.00    +0.000 C 
ATOM      3  C   UNL     1       2.245   2.525  21.260  0.00  0.00    +0.000 C 
ATOM      4  C   UNL     1       3.567   2.439  20.511  0.00  0.00    +0.000 C 
ATOM      5  C   UNL     1       3.894   3.672  19.711  0.00  0.00    +0.000 A 
ATOM      6  N   UNL     1       5.180   3.763  19.322  0.00  0.00    +0.000 NA
ATOM      7  C   UNL     1       5.572   4.800  18.577  0.00  0.00    +0.000 A 
ATOM      8  C   UNL     1       6.919   4.818  18.239  0.00  0.00    +0.000 A 
ATOM      9  C   UNL     1       7.490   5.843  17.490  0.00  0.00    +0.000 A 
ATOM     10  C   UNL     1       6.693   6.881  17.062  0.00  0.00    +0.000 A 
ATOM     11  C   UNL     1       5.333   6.870  17.385  0.00  0.00    +0.000 A 
ATOM     12  C   UNL     1       4.707   5.834  18.151  0.00  0.00    +0.000 A 
ATOM     13  C   UNL     1       3.325   5.727  18.555  0.00  0.00    +0.000 A 
ATOM     14  C   UNL     1       2.925   4.606  19.341  0.00  0.00    +0.000 A 
ENDROOT
BRANCH   1  15
ATOM     15  O   UNL     1       1.238   5.381  20.834  0.00  0.00    +0.000 OA
ATOM     16  H   UNL     1       1.742   5.101  21.616  0.00  0.00    +0.000 HD
ENDBRANCH   1  15
BRANCH  13  17
ATOM     17  N   UNL     1       2.282   6.605  18.187  0.00  0.00    +0.000 N 
ATOM     18  H   UNL     1       1.466   6.432  18.780  0.00  0.00    +0.000 HD
BRANCH  17  19
ATOM     19  C   UNL     1       2.454   8.007  17.885  0.00  0.00    +0.000 C 
BRANCH  19  20
ATOM     20  C   UNL     1       1.711   8.874  18.869  0.00  0.00    +0.000 A 
ATOM     21  C   UNL     1       1.570   8.441  20.193  0.00  0.00    +0.000 A 
ATOM     22  C   UNL     1       0.917   9.236  21.131  0.00  0.00    +0.000 A 
ATOM     23  C   UNL     1       0.380  10.475  20.758  0.00  0.00    +0.000 A 
ATOM     24  C   UNL     1       0.531  10.914  19.433  0.00  0.00    +0.000 A 
ATOM     25  C   UNL     1       1.187  10.116  18.491  0.00  0.00    +0.000 A 
BRANCH  23  26
ATOM     26  C   UNL     1      -0.368  11.320  21.757  0.00  0.00    +0.000 C 
ATOM     27  F   UNL     1       0.148  12.573  21.905  0.00  0.00    +0.000 F 
ATOM     28  F   UNL     1      -1.676  11.493  21.423  0.00  0.00    +0.000 F 
ATOM     29  F   UNL     1      -0.368  10.770  23.003  0.00  0.00    +0.000 F 
ENDBRANCH  23  26
ENDBRANCH  19  20
ENDBRANCH  17  19
ENDBRANCH  13  17
TORSDOF 5
ENDMDL
MODEL 9
REMARK VINA RESULT:      -8.2      1.889      4.097
REMARK  Name = 
REMARK  5 active torsions:
REMARK  status: ('A' for Active; 'I' for Inactive)
REMARK    1  A    between atoms: O_1  and  C_2
REMARK    2  A    between atoms: C_14  and  N_15
REMARK    3  A    between atoms: N_15  and  C_16
REMARK    4  A    between atoms: C_16  and  C_17
REMARK    5  A    between atoms: C_20  and  C_21
REMARK                            x       y       z     vdW  Elec       q    Type
REMARK                         _______ _______ _______ _____ _____    ______ ____
ROOT
ATOM      1  C   UNL     1       5.432   6.844  17.074  0.00  0.00    +0.000 C 
ATOM      2  C   UNL     1       6.947   6.975  17.285  0.00  0.00    +0.000 C 
ATOM      3  C   UNL     1       7.609   5.606  17.289  0.00  0.00    +0.000 C 
ATOM      4  C   UNL     1       7.057   4.780  18.444  0.00  0.00    +0.000 C 
ATOM      5  C   UNL     1       5.553   4.790  18.533  0.00  0.00    +0.000 A 
ATOM      6  N   UNL     1       5.032   3.823  19.311  0.00  0.00    +0.000 NA
ATOM      7  C   UNL     1       3.710   3.761  19.488  0.00  0.00    +0.000 A 
ATOM      8  C   UNL     1       3.263   2.720  20.292  0.00  0.00    +0.000 A 
ATOM      9  C   UNL     1       1.913   2.501  20.554  0.00  0.00    +0.000 A 
ATOM     10  C   UNL     1       0.980   3.349  19.999  0.00  0.00    +0.000 A 
ATOM     11  C   UNL     1       1.416   4.407  19.198  0.00  0.00    +0.000 A 
ATOM     12  C   UNL     1       2.795   4.667  18.907  0.00  0.00    +0.000 A 
ATOM     13  C   UNL     1       3.356   5.714  18.086  0.00  0.00    +0.000 A 
ATOM     14  C   UNL     1       4.772   5.769  17.918  0.00  0.00    +0.000 A 
ENDROOT
BRANCH   1  15
ATOM     15  O   UNL     1       5.170   6.541  15.700  0.00  0.00    +0.000 OA
ATOM     16  H   UNL     1       5.326   5.590  15.577  0.00  0.00    +0.000 HD
ENDBRANCH   1  15
BRANCH  13  17
ATOM     17  N   UNL     1       2.637   6.762  17.468  0.00  0.00    +0.000 N 
ATOM     18  H   UNL     1       1.658   6.484  17.358  0.00  0.00    +0.000 HD
BRANCH  17  19
ATOM     19  C   UNL     1       2.777   8.161  17.797  0.00  0.00    +0.000 C 
BRANCH  19  20
ATOM     20  C   UNL     1       1.975   8.519  19.022  0.00  0.00    +0.000 A 
ATOM     21  C   UNL     1       1.144   9.646  18.991  0.00  0.00    +0.000 A 
ATOM     22  C   UNL     1       0.367   9.981  20.096  0.00  0.00    +0.000 A 
ATOM     23  C   UNL     1       0.416   9.202  21.260  0.00  0.00    +0.000 A 
ATOM     24  C   UNL     1       1.241   8.066  21.286  0.00  0.00    +0.000 A 
ATOM     25  C   UNL     1       2.021   7.729  20.177  0.00  0.00    +0.000 A 
BRANCH  23  26
ATOM     26  C   UNL     1      -0.388   9.586  22.476  0.00  0.00    +0.000 C 
ATOM     27  F   UNL     1      -1.267   8.622  22.873  0.00  0.00    +0.000 F 
ATOM     28  F   UNL     1       0.392   9.849  23.559  0.00  0.00    +0.000 F 
ATOM     29  F   UNL     1      -1.135  10.706  22.270  0.00  0.00    +0.000 F 
ENDBRANCH  23  26
ENDBRANCH  19  20
ENDBRANCH  17  19
ENDBRANCH  13  17
TORSDOF 5
ENDMDL
