MODEL 1
REMARK VINA RESULT:      -9.9      0.000      0.000
REMARK  Name = 
REMARK  5 active torsions:
REMARK  status: ('A' for Active; 'I' for Inactive)
REMARK    1  A    between atoms: C_2  and  C_13
REMARK    2  A    between atoms: N_3  and  N_4
REMARK    3  A    between atoms: C_5  and  C_6
REMARK    4  A    between atoms: C_9  and  O_10
REMARK    5  A    between atoms: C_22  and  C_23
REMARK                            x       y       z     vdW  Elec       q    Type
REMARK                         _______ _______ _______ _____ _____    ______ ____
ROOT
ATOM      1  C   UNL     1       6.751   5.694  16.361  0.00  0.00    +0.000 A 
ATOM      2  N   UNL     1       7.488   5.613  15.211  0.00  0.00    +0.000 NA
ATOM      3  C   UNL     1       6.948   4.891  14.214  0.00  0.00    +0.000 A 
ATOM      4  C   UNL     1       7.641   4.741  13.019  0.00  0.00    +0.000 A 
ATOM      5  C   UNL     1       7.117   3.990  11.964  0.00  0.00    +0.000 A 
ATOM      6  C   UNL     1       5.882   3.371  12.109  0.00  0.00    +0.000 A 
ATOM      7  C   UNL     1       5.178   3.515  13.304  0.00  0.00    +0.000 A 
ATOM      8  C   UNL     1       5.683   4.270  14.354  0.00  0.00    +0.000 A 
ATOM      9  N   UNL     1       4.953   4.410  15.477  0.00  0.00    +0.000 NA
ATOM     10  C   UNL     1       5.471   5.150  16.499  0.00  0.00    +0.000 A 
ENDROOT
BRANCH  10  11
ATOM     11  C   UNL     1       4.528   5.363  17.627  0.00  0.00    +0.000 A 
ATOM     12  C   UNL     1       4.369   4.382  18.625  0.00  0.00    +0.000 A 
ATOM     13  C   UNL     1       3.471   4.549  19.685  0.00  0.00    +0.000 A 
ATOM     14  C   UNL     1       2.712   5.711  19.780  0.00  0.00    +0.000 A 
ATOM     15  C   UNL     1       2.828   6.688  18.801  0.00  0.00    +0.000 A 
ATOM     16  C   UNL     1       3.704   6.502  17.727  0.00  0.00    +0.000 A 
ENDBRANCH  10  11
BRANCH   1  18
ATOM     17  O   UNL     1       7.718   5.788  18.505  0.00  0.00    +0.000 OA
ATOM     18  C   UNL     1       7.433   6.395  17.480  0.00  0.00    +0.000 C 
ATOM     19  N   UNL     1       7.667   7.747  17.240  0.00  0.00    +0.000 N 
ATOM     20  H   UNL     1       7.733   8.041  16.266  0.00  0.00    +0.000 HD
BRANCH  19  21
ATOM     21  N   UNL     1       8.206   8.612  18.166  0.00  0.00    +0.000 NA
ATOM     22  C   UNL     1       8.562   9.775  17.710  0.00  0.00    +0.000 C 
BRANCH  22  23
ATOM     23  C   UNL     1       9.067  10.865  18.563  0.00  0.00    +0.000 A 
ATOM     24  C   UNL     1       9.243  12.160  18.069  0.00  0.00    +0.000 A 
ATOM     25  C   UNL     1       9.750  13.156  18.907  0.00  0.00    +0.000 A 
ATOM     26  C   UNL     1      10.074  12.845  20.226  0.00  0.00    +0.000 A 
ATOM     27  C   UNL     1       9.899  11.558  20.724  0.00  0.00    +0.000 A 
ATOM     28  C   UNL     1       9.395  10.561  19.890  0.00  0.00    +0.000 A 
BRANCH  26  29
ATOM     29  O   UNL     1      10.579  13.784  21.075  0.00  0.00    +0.000 OA
ATOM     30  H   UNL     1      11.533  13.870  20.912  0.00  0.00    +0.000 HD
ENDBRANCH  26  29
ENDBRANCH  22  23
ENDBRANCH  19  21
ENDBRANCH   1  18
TORSDOF 5
ENDMDL
MODEL 2
REMARK VINA RESULT:      -9.8      0.085      1.292
REMARK  Name = 
REMARK  5 active torsions:
REMARK  status: ('A' for Active; 'I' for Inactive)
REMARK    1  A    between atoms: C_2  and  C_13
REMARK    2  A    between atoms: N_3  and  N_4
REMARK    3  A    between atoms: C_5  and  C_6
REMARK    4  A    between atoms: C_9  and  O_10
REMARK    5  A    between atoms: C_22  and  C_23
REMARK                            x       y       z     vdW  Elec       q    Type
REMARK                         _______ _______ _______ _____ _____    ______ ____
ROOT
ATOM      1  C   UNL     1       6.732   5.694  16.376  0.00  0.00    +0.000 A 
ATOM      2  N   UNL     1       7.476   5.623  15.229  0.00  0.00    +0.000 NA
ATOM      3  C   UNL     1       6.937   4.920  14.218  0.00  0.00    +0.000 A 
ATOM      4  C   UNL     1       7.636   4.782  13.025  0.00  0.00    +0.000 A 
ATOM      5  C   UNL     1       7.113   4.051  11.956  0.00  0.00    +0.000 A 
ATOM      6  C   UNL     1       5.872   3.440  12.084  0.00  0.00    +0.000 A 
ATOM      7  C   UNL     1       5.161   3.573  13.277  0.00  0.00    +0.000 A 
ATOM      8  C   UNL     1       5.666   4.309  14.341  0.00  0.00    +0.000 A 
ATOM      9  N   UNL     1       4.929   4.437  15.461  0.00  0.00    +0.000 NA
ATOM     10  C   UNL     1       5.447   5.158  16.497  0.00  0.00    +0.000 A 
ENDROOT
BRANCH  10  11
ATOM     11  C   UNL     1       4.497   5.363  17.621  0.00  0.00    +0.000 A 
ATOM     12  C   UNL     1       3.753   6.555  17.724  0.00  0.00    +0.000 A 
ATOM     13  C   UNL     1       2.869   6.781  18.785  0.00  0.00    +0.000 A 
ATOM     14  C   UNL     1       2.698   5.814  19.770  0.00  0.00    +0.000 A 
ATOM     15  C   UNL     1       3.432   4.637  19.710  0.00  0.00    +0.000 A 
ATOM     16  C   UNL     1       4.338   4.429  18.665  0.00  0.00    +0.000 A 
ENDBRANCH  10  11
BRANCH   1  18
ATOM     17  O   UNL     1       7.659   5.755  18.539  0.00  0.00    +0.000 OA
ATOM     18  C   UNL     1       7.412   6.372  17.509  0.00  0.00    +0.000 C 
ATOM     19  N   UNL     1       7.691   7.717  17.277  0.00  0.00    +0.000 N 
ATOM     20  H   UNL     1       7.785   8.010  16.305  0.00  0.00    +0.000 HD
BRANCH  19  21
ATOM     21  N   UNL     1       8.238   8.564  18.215  0.00  0.00    +0.000 NA
ATOM     22  C   UNL     1       8.596   9.733  17.777  0.00  0.00    +0.000 C 
BRANCH  22  23
ATOM     23  C   UNL     1       9.109  10.806  18.646  0.00  0.00    +0.000 A 
ATOM     24  C   UNL     1       9.386  10.585  19.998  0.00  0.00    +0.000 A 
ATOM     25  C   UNL     1       9.846  11.640  20.790  0.00  0.00    +0.000 A 
ATOM     26  C   UNL     1      10.024  12.900  20.222  0.00  0.00    +0.000 A 
ATOM     27  C   UNL     1       9.753  13.125  18.876  0.00  0.00    +0.000 A 
ATOM     28  C   UNL     1       9.292  12.075  18.083  0.00  0.00    +0.000 A 
BRANCH  26  29
ATOM     29  O   UNL     1      10.463  13.958  20.960  0.00  0.00    +0.000 OA
ATOM     30  H   UNL     1      11.279  13.700  21.418  0.00  0.00    +0.000 HD
ENDBRANCH  26  29
ENDBRANCH  22  23
ENDBRANCH  19  21
ENDBRANCH   1  18
TORSDOF 5
ENDMDL
MODEL 3
REMARK VINA RESULT:      -8.4      1.413      4.629
REMARK  Name = 
REMARK  5 active torsions:
REMARK  status: ('A' for Active; 'I' for Inactive)
REMARK    1  A    between atoms: C_2  and  C_13
REMARK    2  A    between atoms: N_3  and  N_4
REMARK    3  A    between atoms: C_5  and  C_6
REMARK    4  A    between atoms: C_9  and  O_10
REMARK    5  A    between atoms: C_22  and  C_23
REMARK                            x       y       z     vdW  Elec       q    Type
REMARK                         _______ _______ _______ _____ _____    ______ ____
ROOT
ATOM      1  C   UNL     1       5.718   5.458  17.542  0.00  0.00    +0.000 A 
ATOM      2  N   UNL     1       5.086   5.418  18.755  0.00  0.00    +0.000 NA
ATOM      3  C   UNL     1       3.859   4.867  18.765  0.00  0.00    +0.000 A 
ATOM      4  C   UNL     1       3.141   4.806  19.953  0.00  0.00    +0.000 A 
ATOM      5  C   UNL     1       1.860   4.250  20.000  0.00  0.00    +0.000 A 
ATOM      6  C   UNL     1       1.284   3.753  18.837  0.00  0.00    +0.000 A 
ATOM      7  C   UNL     1       1.997   3.809  17.640  0.00  0.00    +0.000 A 
ATOM      8  C   UNL     1       3.276   4.347  17.584  0.00  0.00    +0.000 A 
ATOM      9  N   UNL     1       3.939   4.349  16.413  0.00  0.00    +0.000 NA
ATOM     10  C   UNL     1       5.192   4.890  16.379  0.00  0.00    +0.000 A 
ENDROOT
BRANCH  10  11
ATOM     11  C   UNL     1       5.890   4.708  15.080  0.00  0.00    +0.000 A 
ATOM     12  C   UNL     1       5.387   3.815  14.113  0.00  0.00    +0.000 A 
ATOM     13  C   UNL     1       6.039   3.610  12.892  0.00  0.00    +0.000 A 
ATOM     14  C   UNL     1       7.209   4.303  12.599  0.00  0.00    +0.000 A 
ATOM     15  C   UNL     1       7.743   5.174  13.539  0.00  0.00    +0.000 A 
ATOM     16  C   UNL     1       7.106   5.351  14.771  0.00  0.00    +0.000 A 
ENDBRANCH  10  11
BRANCH   1  18
ATOM     17  O   UNL     1       8.056   5.581  17.786  0.00  0.00    +0.000 OA
ATOM     18  C   UNL     1       7.014   6.182  17.548  0.00  0.00    +0.000 C 
ATOM     19  N   UNL     1       6.900   7.547  17.292  0.00  0.00    +0.000 N 
ATOM     20  H   UNL     1       6.084   7.853  16.762  0.00  0.00    +0.000 HD
BRANCH  19  21
ATOM     21  N   UNL     1       7.955   8.430  17.333  0.00  0.00    +0.000 NA
ATOM     22  C   UNL     1       7.991   9.219  18.363  0.00  0.00    +0.000 C 
BRANCH  22  23
ATOM     23  C   UNL     1       9.091  10.162  18.630  0.00  0.00    +0.000 A 
ATOM     24  C   UNL     1       9.475  10.489  19.933  0.00  0.00    +0.000 A 
ATOM     25  C   UNL     1      10.507  11.409  20.139  0.00  0.00    +0.000 A 
ATOM     26  C   UNL     1      11.139  11.989  19.041  0.00  0.00    +0.000 A 
ATOM     27  C   UNL     1      10.763  11.665  17.742  0.00  0.00    +0.000 A 
ATOM     28  C   UNL     1       9.733  10.749  17.533  0.00  0.00    +0.000 A 
BRANCH  26  29
ATOM     29  O   UNL     1      12.144  12.897  19.196  0.00  0.00    +0.000 OA
ATOM     30  H   UNL     1      11.865  13.560  19.848  0.00  0.00    +0.000 HD
ENDBRANCH  26  29
ENDBRANCH  22  23
ENDBRANCH  19  21
ENDBRANCH   1  18
TORSDOF 5
ENDMDL
MODEL 4
REMARK VINA RESULT:      -8.3      4.898      6.868
REMARK  Name = 
REMARK  5 active torsions:
REMARK  status: ('A' for Active; 'I' for Inactive)
REMARK    1  A    between atoms: C_2  and  C_13
REMARK    2  A    between atoms: N_3  and  N_4
REMARK    3  A    between atoms: C_5  and  C_6
REMARK    4  A    between atoms: C_9  and  O_10
REMARK    5  A    between atoms: C_22  and  C_23
REMARK                            x       y       z     vdW  Elec       q    Type
REMARK                         _______ _______ _______ _____ _____    ______ ____
ROOT
ATOM      1  C   UNL     1       3.513   6.056  18.024  0.00  0.00    +0.000 A 
ATOM      2  N   UNL     1       4.170   6.575  16.941  0.00  0.00    +0.000 NA
ATOM      3  C   UNL     1       4.934   5.714  16.245  0.00  0.00    +0.000 A 
ATOM      4  C   UNL     1       5.651   6.165  15.143  0.00  0.00    +0.000 A 
ATOM      5  C   UNL     1       6.463   5.303  14.403  0.00  0.00    +0.000 A 
ATOM      6  C   UNL     1       6.567   3.968  14.775  0.00  0.00    +0.000 A 
ATOM      7  C   UNL     1       5.851   3.506  15.879  0.00  0.00    +0.000 A 
ATOM      8  C   UNL     1       5.031   4.351  16.614  0.00  0.00    +0.000 A 
ATOM      9  N   UNL     1       4.332   3.852  17.652  0.00  0.00    +0.000 NA
ATOM     10  C   UNL     1       3.538   4.701  18.366  0.00  0.00    +0.000 A 
ENDROOT
BRANCH  10  11
ATOM     11  C   UNL     1       2.701   4.024  19.390  0.00  0.00    +0.000 A 
ATOM     12  C   UNL     1       3.279   3.534  20.578  0.00  0.00    +0.000 A 
ATOM     13  C   UNL     1       2.516   2.873  21.548  0.00  0.00    +0.000 A 
ATOM     14  C   UNL     1       1.150   2.694  21.360  0.00  0.00    +0.000 A 
ATOM     15  C   UNL     1       0.554   3.146  20.190  0.00  0.00    +0.000 A 
ATOM     16  C   UNL     1       1.326   3.777  19.210  0.00  0.00    +0.000 A 
ENDBRANCH  10  11
BRANCH   1  18
ATOM     17  O   UNL     1       2.606   6.875  20.035  0.00  0.00    +0.000 OA
ATOM     18  C   UNL     1       2.780   7.060  18.837  0.00  0.00    +0.000 C 
ATOM     19  N   UNL     1       2.322   8.153  18.105  0.00  0.00    +0.000 N 
ATOM     20  H   UNL     1       2.824   8.380  17.246  0.00  0.00    +0.000 HD
BRANCH  19  21
ATOM     21  N   UNL     1       1.546   9.162  18.630  0.00  0.00    +0.000 NA
ATOM     22  C   UNL     1       0.455   9.430  17.980  0.00  0.00    +0.000 C 
BRANCH  22  23
ATOM     23  C   UNL     1      -0.548  10.407  18.439  0.00  0.00    +0.000 A 
ATOM     24  C   UNL     1      -0.292  11.276  19.502  0.00  0.00    +0.000 A 
ATOM     25  C   UNL     1      -1.283  12.168  19.920  0.00  0.00    +0.000 A 
ATOM     26  C   UNL     1      -2.515  12.180  19.270  0.00  0.00    +0.000 A 
ATOM     27  C   UNL     1      -2.775  11.319  18.208  0.00  0.00    +0.000 A 
ATOM     28  C   UNL     1      -1.789  10.426  17.790  0.00  0.00    +0.000 A 
BRANCH  26  29
ATOM     29  O   UNL     1      -3.513  13.027  19.650  0.00  0.00    +0.000 OA
ATOM     30  H   UNL     1      -3.624  13.704  18.962  0.00  0.00    +0.000 HD
ENDBRANCH  26  29
ENDBRANCH  22  23
ENDBRANCH  19  21
ENDBRANCH   1  18
TORSDOF 5
ENDMDL
MODEL 5
REMARK VINA RESULT:      -8.3      1.627      4.591
REMARK  Name = 
REMARK  5 active torsions:
REMARK  status: ('A' for Active; 'I' for Inactive)
REMARK    1  A    between atoms: C_2  and  C_13
REMARK    2  A    between atoms: N_3  and  N_4
REMARK    3  A    between atoms: C_5  and  C_6
REMARK    4  A    between atoms: C_9  and  O_10
REMARK    5  A    between atoms: C_22  and  C_23
REMARK                            x       y       z     vdW  Elec       q    Type
REMARK                         _______ _______ _______ _____ _____    ______ ____
ROOT
ATOM      1  C   UNL     1       5.860   4.461  17.899  0.00  0.00    +0.000 A 
ATOM      2  N   UNL     1       5.287   4.099  19.087  0.00  0.00    +0.000 NA
ATOM      3  C   UNL     1       4.100   3.473  19.005  0.00  0.00    +0.000 A 
ATOM      4  C   UNL     1       3.441   3.090  20.167  0.00  0.00    +0.000 A 
ATOM      5  C   UNL     1       2.202   2.448  20.121  0.00  0.00    +0.000 A 
ATOM      6  C   UNL     1       1.607   2.190  18.893  0.00  0.00    +0.000 A 
ATOM      7  C   UNL     1       2.260   2.569  17.720  0.00  0.00    +0.000 A 
ATOM      8  C   UNL     1       3.498   3.197  17.754  0.00  0.00    +0.000 A 
ATOM      9  N   UNL     1       4.107   3.515  16.595  0.00  0.00    +0.000 NA
ATOM     10  C   UNL     1       5.320   4.138  16.651  0.00  0.00    +0.000 A 
ENDROOT
BRANCH  10  11
ATOM     11  C   UNL     1       5.969   4.309  15.326  0.00  0.00    +0.000 A 
ATOM     12  C   UNL     1       5.524   3.575  14.208  0.00  0.00    +0.000 A 
ATOM     13  C   UNL     1       6.134   3.702  12.955  0.00  0.00    +0.000 A 
ATOM     14  C   UNL     1       7.201   4.577  12.783  0.00  0.00    +0.000 A 
ATOM     15  C   UNL     1       7.678   5.299  13.869  0.00  0.00    +0.000 A 
ATOM     16  C   UNL     1       7.086   5.144  15.126  0.00  0.00    +0.000 A 
ENDBRANCH  10  11
BRANCH   1  18
ATOM     17  O   UNL     1       8.175   4.697  18.253  0.00  0.00    +0.000 OA
ATOM     18  C   UNL     1       7.107   5.257  18.034  0.00  0.00    +0.000 C 
ATOM     19  N   UNL     1       6.915   6.631  17.915  0.00  0.00    +0.000 N 
ATOM     20  H   UNL     1       6.102   6.942  17.383  0.00  0.00    +0.000 HD
BRANCH  19  21
ATOM     21  N   UNL     1       7.910   7.567  18.090  0.00  0.00    +0.000 NA
ATOM     22  C   UNL     1       7.547   8.807  17.963  0.00  0.00    +0.000 C 
BRANCH  22  23
ATOM     23  C   UNL     1       8.445   9.949  18.209  0.00  0.00    +0.000 A 
ATOM     24  C   UNL     1       8.352  11.127  17.464  0.00  0.00    +0.000 A 
ATOM     25  C   UNL     1       9.242  12.174  17.714  0.00  0.00    +0.000 A 
ATOM     26  C   UNL     1      10.211  12.031  18.704  0.00  0.00    +0.000 A 
ATOM     27  C   UNL     1      10.306  10.861  19.452  0.00  0.00    +0.000 A 
ATOM     28  C   UNL     1       9.421   9.813  19.203  0.00  0.00    +0.000 A 
BRANCH  26  29
ATOM     29  O   UNL     1      11.104  13.024  18.976  0.00  0.00    +0.000 OA
ATOM     30  H   UNL     1      11.492  13.330  18.139  0.00  0.00    +0.000 HD
ENDBRANCH  26  29
ENDBRANCH  22  23
ENDBRANCH  19  21
ENDBRANCH   1  18
TORSDOF 5
ENDMDL
MODEL 6
REMARK VINA RESULT:      -8.2      1.462      4.593
REMARK  Name = 
REMARK  5 active torsions:
REMARK  status: ('A' for Active; 'I' for Inactive)
REMARK    1  A    between atoms: C_2  and  C_13
REMARK    2  A    between atoms: N_3  and  N_4
REMARK    3  A    between atoms: C_5  and  C_6
REMARK    4  A    between atoms: C_9  and  O_10
REMARK    5  A    between atoms: C_22  and  C_23
REMARK                            x       y       z     vdW  Elec       q    Type
REMARK                         _______ _______ _______ _____ _____    ______ ____
ROOT
ATOM      1  C   UNL     1       5.745   5.002  17.672  0.00  0.00    +0.000 A 
ATOM      2  N   UNL     1       5.099   4.878  18.871  0.00  0.00    +0.000 NA
ATOM      3  C   UNL     1       3.839   4.411  18.818  0.00  0.00    +0.000 A 
ATOM      4  C   UNL     1       3.105   4.274  19.990  0.00  0.00    +0.000 A 
ATOM      5  C   UNL     1       1.790   3.802  19.973  0.00  0.00    +0.000 A 
ATOM      6  C   UNL     1       1.195   3.469  18.763  0.00  0.00    +0.000 A 
ATOM      7  C   UNL     1       1.924   3.602  17.580  0.00  0.00    +0.000 A 
ATOM      8  C   UNL     1       3.235   4.057  17.587  0.00  0.00    +0.000 A 
ATOM      9  N   UNL     1       3.911   4.138  16.425  0.00  0.00    +0.000 NA
ATOM     10  C   UNL     1       5.196   4.595  16.453  0.00  0.00    +0.000 A 
ENDROOT
BRANCH  10  11
ATOM     11  C   UNL     1       5.896   4.504  15.145  0.00  0.00    +0.000 A 
ATOM     12  C   UNL     1       6.985   5.350  14.854  0.00  0.00    +0.000 A 
ATOM     13  C   UNL     1       7.646   5.299  13.622  0.00  0.00    +0.000 A 
ATOM     14  C   UNL     1       7.241   4.392  12.648  0.00  0.00    +0.000 A 
ATOM     15  C   UNL     1       6.157   3.560  12.895  0.00  0.00    +0.000 A 
ATOM     16  C   UNL     1       5.480   3.636  14.116  0.00  0.00    +0.000 A 
ENDBRANCH  10  11
BRANCH   1  18
ATOM     17  O   UNL     1       8.096   4.941  17.781  0.00  0.00    +0.000 OA
ATOM     18  C   UNL     1       7.086   5.635  17.759  0.00  0.00    +0.000 C 
ATOM     19  N   UNL     1       7.051   7.025  17.834  0.00  0.00    +0.000 N 
ATOM     20  H   UNL     1       6.231   7.491  17.444  0.00  0.00    +0.000 HD
BRANCH  19  21
ATOM     21  N   UNL     1       8.164   7.817  18.008  0.00  0.00    +0.000 NA
ATOM     22  C   UNL     1       7.934   9.083  18.181  0.00  0.00    +0.000 C 
BRANCH  22  23
ATOM     23  C   UNL     1       8.987  10.070  18.478  0.00  0.00    +0.000 A 
ATOM     24  C   UNL     1       9.668  10.743  17.461  0.00  0.00    +0.000 A 
ATOM     25  C   UNL     1      10.678  11.651  17.789  0.00  0.00    +0.000 A 
ATOM     26  C   UNL     1      10.993  11.875  19.128  0.00  0.00    +0.000 A 
ATOM     27  C   UNL     1      10.315  11.210  20.145  0.00  0.00    +0.000 A 
ATOM     28  C   UNL     1       9.308  10.302  19.821  0.00  0.00    +0.000 A 
BRANCH  26  29
ATOM     29  O   UNL     1      11.975  12.746  19.492  0.00  0.00    +0.000 OA
ATOM     30  H   UNL     1      11.565  13.522  19.907  0.00  0.00    +0.000 HD
ENDBRANCH  26  29
ENDBRANCH  22  23
ENDBRANCH  19  21
ENDBRANCH   1  18
TORSDOF 5
ENDMDL
MODEL 7
REMARK VINA RESULT:      -8.2      1.589      4.726
REMARK  Name = 
REMARK  5 active torsions:
REMARK  status: ('A' for Active; 'I' for Inactive)
REMARK    1  A    between atoms: C_2  and  C_13
REMARK    2  A    between atoms: N_3  and  N_4
REMARK    3  A    between atoms: C_5  and  C_6
REMARK    4  A    between atoms: C_9  and  O_10
REMARK    5  A    between atoms: C_22  and  C_23
REMARK                            x       y       z     vdW  Elec       q    Type
REMARK                         _______ _______ _______ _____ _____    ______ ____
ROOT
ATOM      1  C   UNL     1       5.278   5.419  17.007  0.00  0.00    +0.000 A 
ATOM      2  N   UNL     1       4.786   5.303  18.278  0.00  0.00    +0.000 NA
ATOM      3  C   UNL     1       4.119   4.168  18.552  0.00  0.00    +0.000 A 
ATOM      4  C   UNL     1       3.569   3.979  19.814  0.00  0.00    +0.000 A 
ATOM      5  C   UNL     1       2.861   2.818  20.133  0.00  0.00    +0.000 A 
ATOM      6  C   UNL     1       2.691   1.831  19.170  0.00  0.00    +0.000 A 
ATOM      7  C   UNL     1       3.239   2.010  17.899  0.00  0.00    +0.000 A 
ATOM      8  C   UNL     1       3.957   3.155  17.577  0.00  0.00    +0.000 A 
ATOM      9  N   UNL     1       4.496   3.269  16.348  0.00  0.00    +0.000 NA
ATOM     10  C   UNL     1       5.191   4.405  16.049  0.00  0.00    +0.000 A 
ENDROOT
BRANCH  10  11
ATOM     11  C   UNL     1       5.868   4.366  14.727  0.00  0.00    +0.000 A 
ATOM     12  C   UNL     1       5.286   3.679  13.643  0.00  0.00    +0.000 A 
ATOM     13  C   UNL     1       5.913   3.609  12.394  0.00  0.00    +0.000 A 
ATOM     14  C   UNL     1       7.139   4.234  12.192  0.00  0.00    +0.000 A 
ATOM     15  C   UNL     1       7.750   4.902  13.246  0.00  0.00    +0.000 A 
ATOM     16  C   UNL     1       7.134   4.941  14.501  0.00  0.00    +0.000 A 
ENDBRANCH  10  11
BRANCH   1  18
ATOM     17  O   UNL     1       5.398   7.477  15.871  0.00  0.00    +0.000 OA
ATOM     18  C   UNL     1       5.900   6.734  16.706  0.00  0.00    +0.000 C 
ATOM     19  N   UNL     1       7.064   6.986  17.427  0.00  0.00    +0.000 N 
ATOM     20  H   UNL     1       7.173   6.500  18.318  0.00  0.00    +0.000 HD
BRANCH  19  21
ATOM     21  N   UNL     1       7.855   8.099  17.251  0.00  0.00    +0.000 NA
ATOM     22  C   UNL     1       7.800   8.985  18.199  0.00  0.00    +0.000 C 
BRANCH  22  23
ATOM     23  C   UNL     1       8.643  10.193  18.236  0.00  0.00    +0.000 A 
ATOM     24  C   UNL     1       9.836  10.231  18.961  0.00  0.00    +0.000 A 
ATOM     25  C   UNL     1      10.590  11.408  18.989  0.00  0.00    +0.000 A 
ATOM     26  C   UNL     1      10.142  12.528  18.292  0.00  0.00    +0.000 A 
ATOM     27  C   UNL     1       8.956  12.494  17.566  0.00  0.00    +0.000 A 
ATOM     28  C   UNL     1       8.200  11.323  17.537  0.00  0.00    +0.000 A 
BRANCH  26  29
ATOM     29  O   UNL     1      10.842  13.697  18.299  0.00  0.00    +0.000 OA
ATOM     30  H   UNL     1      10.499  14.261  19.012  0.00  0.00    +0.000 HD
ENDBRANCH  26  29
ENDBRANCH  22  23
ENDBRANCH  19  21
ENDBRANCH   1  18
TORSDOF 5
ENDMDL
MODEL 8
REMARK VINA RESULT:      -8.0      5.973     10.094
REMARK  Name = 
REMARK  5 active torsions:
REMARK  status: ('A' for Active; 'I' for Inactive)
REMARK    1  A    between atoms: C_2  and  C_13
REMARK    2  A    between atoms: N_3  and  N_4
REMARK    3  A    between atoms: C_5  and  C_6
REMARK    4  A    between atoms: C_9  and  O_10
REMARK    5  A    between atoms: C_22  and  C_23
REMARK                            x       y       z     vdW  Elec       q    Type
REMARK                         _______ _______ _______ _____ _____    ______ ____
ROOT
ATOM      1  C   UNL     1       1.620  11.563  18.898  0.00  0.00    +0.000 A 
ATOM      2  N   UNL     1       2.375  12.309  18.034  0.00  0.00    +0.000 NA
ATOM      3  C   UNL     1       2.591  13.587  18.391  0.00  0.00    +0.000 A 
ATOM      4  C   UNL     1       3.330  14.420  17.559  0.00  0.00    +0.000 A 
ATOM      5  C   UNL     1       3.567  15.755  17.892  0.00  0.00    +0.000 A 
ATOM      6  C   UNL     1       3.050  16.271  19.073  0.00  0.00    +0.000 A 
ATOM      7  C   UNL     1       2.307  15.444  19.916  0.00  0.00    +0.000 A 
ATOM      8  C   UNL     1       2.077  14.112  19.602  0.00  0.00    +0.000 A 
ATOM      9  N   UNL     1       1.382  13.343  20.462  0.00  0.00    +0.000 NA
ATOM     10  C   UNL     1       1.161  12.037  20.130  0.00  0.00    +0.000 A 
ENDROOT
BRANCH  10  11
ATOM     11  C   UNL     1       0.518  11.243  21.209  0.00  0.00    +0.000 A 
ATOM     12  C   UNL     1      -0.575  11.764  21.929  0.00  0.00    +0.000 A 
ATOM     13  C   UNL     1      -1.184  11.045  22.964  0.00  0.00    +0.000 A 
ATOM     14  C   UNL     1      -0.720   9.777  23.300  0.00  0.00    +0.000 A 
ATOM     15  C   UNL     1       0.370   9.244  22.625  0.00  0.00    +0.000 A 
ATOM     16  C   UNL     1       0.995   9.980  21.613  0.00  0.00    +0.000 A 
ENDBRANCH  10  11
BRANCH   1  18
ATOM     17  O   UNL     1       0.167   9.928  18.029  0.00  0.00    +0.000 OA
ATOM     18  C   UNL     1       1.300  10.197  18.412  0.00  0.00    +0.000 C 
ATOM     19  N   UNL     1       2.374   9.311  18.469  0.00  0.00    +0.000 N 
ATOM     20  H   UNL     1       3.310   9.714  18.443  0.00  0.00    +0.000 HD
BRANCH  19  21
ATOM     21  N   UNL     1       2.288   7.974  18.152  0.00  0.00    +0.000 NA
ATOM     22  C   UNL     1       2.311   7.154  19.159  0.00  0.00    +0.000 C 
BRANCH  22  23
ATOM     23  C   UNL     1       2.133   5.697  19.028  0.00  0.00    +0.000 A 
ATOM     24  C   UNL     1       2.309   5.045  17.805  0.00  0.00    +0.000 A 
ATOM     25  C   UNL     1       2.104   3.665  17.722  0.00  0.00    +0.000 A 
ATOM     26  C   UNL     1       1.727   2.956  18.861  0.00  0.00    +0.000 A 
ATOM     27  C   UNL     1       1.554   3.600  20.082  0.00  0.00    +0.000 A 
ATOM     28  C   UNL     1       1.755   4.977  20.168  0.00  0.00    +0.000 A 
BRANCH  26  29
ATOM     29  O   UNL     1       1.509   1.612  18.823  0.00  0.00    +0.000 OA
ATOM     30  H   UNL     1       2.228   1.194  18.320  0.00  0.00    +0.000 HD
ENDBRANCH  26  29
ENDBRANCH  22  23
ENDBRANCH  19  21
ENDBRANCH   1  18
TORSDOF 5
ENDMDL
MODEL 9
REMARK VINA RESULT:      -7.9      5.975     10.099
REMARK  Name = 
REMARK  5 active torsions:
REMARK  status: ('A' for Active; 'I' for Inactive)
REMARK    1  A    between atoms: C_2  and  C_13
REMARK    2  A    between atoms: N_3  and  N_4
REMARK    3  A    between atoms: C_5  and  C_6
REMARK    4  A    between atoms: C_9  and  O_10
REMARK    5  A    between atoms: C_22  and  C_23
REMARK                            x       y       z     vdW  Elec       q    Type
REMARK                         _______ _______ _______ _____ _____    ______ ____
ROOT
ATOM      1  C   UNL     1       1.609  11.573  18.930  0.00  0.00    +0.000 A 
ATOM      2  N   UNL     1       2.378  12.288  18.052  0.00  0.00    +0.000 NA
ATOM      3  C   UNL     1       2.638  13.561  18.396  0.00  0.00    +0.000 A 
ATOM      4  C   UNL     1       3.394  14.363  17.550  0.00  0.00    +0.000 A 
ATOM      5  C   UNL     1       3.677  15.693  17.869  0.00  0.00    +0.000 A 
ATOM      6  C   UNL     1       3.189  16.234  19.051  0.00  0.00    +0.000 A 
ATOM      7  C   UNL     1       2.429  15.438  19.909  0.00  0.00    +0.000 A 
ATOM      8  C   UNL     1       2.153  14.111  19.607  0.00  0.00    +0.000 A 
ATOM      9  N   UNL     1       1.444  13.371  20.481  0.00  0.00    +0.000 NA
ATOM     10  C   UNL     1       1.178  12.071  20.162  0.00  0.00    +0.000 A 
ENDROOT
BRANCH  10  11
ATOM     11  C   UNL     1       0.522  11.306  21.254  0.00  0.00    +0.000 A 
ATOM     12  C   UNL     1       0.991  10.027  21.616  0.00  0.00    +0.000 A 
ATOM     13  C   UNL     1       0.377   9.277  22.625  0.00  0.00    +0.000 A 
ATOM     14  C   UNL     1      -0.720   9.792  23.309  0.00  0.00    +0.000 A 
ATOM     15  C   UNL     1      -1.220  11.040  22.962  0.00  0.00    +0.000 A 
ATOM     16  C   UNL     1      -0.623  11.772  21.930  0.00  0.00    +0.000 A 
ENDBRANCH  10  11
BRANCH   1  18
ATOM     17  O   UNL     1       0.100   9.981  18.075  0.00  0.00    +0.000 OA
ATOM     18  C   UNL     1       1.241  10.213  18.458  0.00  0.00    +0.000 C 
ATOM     19  N   UNL     1       2.281   9.290  18.527  0.00  0.00    +0.000 N 
ATOM     20  H   UNL     1       3.232   9.659  18.499  0.00  0.00    +0.000 HD
BRANCH  19  21
ATOM     21  N   UNL     1       2.148   7.954  18.225  0.00  0.00    +0.000 NA
ATOM     22  C   UNL     1       2.279   7.134  19.224  0.00  0.00    +0.000 C 
BRANCH  22  23
ATOM     23  C   UNL     1       2.075   5.679  19.117  0.00  0.00    +0.000 A 
ATOM     24  C   UNL     1       1.700   4.909  20.221  0.00  0.00    +0.000 A 
ATOM     25  C   UNL     1       1.544   3.527  20.078  0.00  0.00    +0.000 A 
ATOM     26  C   UNL     1       1.764   2.935  18.836  0.00  0.00    +0.000 A 
ATOM     27  C   UNL     1       2.134   3.698  17.733  0.00  0.00    +0.000 A 
ATOM     28  C   UNL     1       2.293   5.076  17.872  0.00  0.00    +0.000 A 
BRANCH  26  29
ATOM     29  O   UNL     1       1.631   1.591  18.655  0.00  0.00    +0.000 OA
ATOM     30  H   UNL     1       0.689   1.386  18.535  0.00  0.00    +0.000 HD
ENDBRANCH  26  29
ENDBRANCH  22  23
ENDBRANCH  19  21
ENDBRANCH   1  18
TORSDOF 5
ENDMDL
