MODEL 1
REMARK VINA RESULT:      -9.2      0.000      0.000
REMARK  Name = 
REMARK  15 active torsions:
REMARK  status: ('A' for Active; 'I' for Inactive)
REMARK    1  A    between atoms: C_1  and  C_2
REMARK    2  A    between atoms: C_5  and  O_6
REMARK    3  A    between atoms: C_7  and  C_8
REMARK    4  A    between atoms: C_8  and  C_10
REMARK    5  A    between atoms: C_12  and  C_13
REMARK    6  A    between atoms: N_15  and  C_16
REMARK    7  A    between atoms: C_16  and  C_17
REMARK    8  A    between atoms: C_17  and  C_18
REMARK    9  A    between atoms: C_18  and  C_19
REMARK   10  A    between atoms: C_18  and  C_20
REMARK   11  A    between atoms: N_23  and  C_24
REMARK   12  A    between atoms: C_24  and  C_25
REMARK   13  A    between atoms: C_25  and  C_26
REMARK   14  A    between atoms: C_26  and  C_27
REMARK   15  A    between atoms: C_26  and  C_28
REMARK                            x       y       z     vdW  Elec       q    Type
REMARK                         _______ _______ _______ _____ _____    ______ ____
ROOT
ATOM      1  C   UNL     1       4.887   3.779  17.273  0.00  0.00    +0.000 A 
ATOM      2  C   UNL     1       5.700   4.737  17.984  0.00  0.00    +0.000 A 
ATOM      3  C   UNL     1       6.671   5.439  17.377  0.00  0.00    +0.000 A 
ATOM      4  C   UNL     1       6.864   5.285  15.902  0.00  0.00    +0.000 A 
ATOM      5  O   UNL     1       7.778   5.884  15.335  0.00  0.00    +0.000 OA
ATOM      6  N   UNL     1       5.961   4.441  15.241  0.00  0.00    +0.000 N 
ATOM      7  C   UNL     1       5.016   3.691  15.936  0.00  0.00    +0.000 A 
ENDROOT
BRANCH   3   8
ATOM      8  C   UNL     1       7.507   6.323  18.243  0.00  0.00    +0.000 C 
ATOM      9  O   UNL     1       8.039   5.898  19.266  0.00  0.00    +0.000 OA
ATOM     10  N   UNL     1       7.652   7.617  17.815  0.00  0.00    +0.000 N 
ATOM     11  H   UNL     1       7.258   7.876  16.909  0.00  0.00    +0.000 HD
BRANCH  10  12
ATOM     12  C   UNL     1       8.481   8.574  18.511  0.00  0.00    +0.000 C 
BRANCH  12  13
ATOM     13  C   UNL     1       8.572   9.913  17.776  0.00  0.00    +0.000 C 
BRANCH  13  14
ATOM     14  C   UNL     1       9.231  11.050  18.583  0.00  0.00    +0.000 C 
ATOM     15  C   UNL     1       9.553  10.634  20.019  0.00  0.00    +0.000 C 
ATOM     16  C   UNL     1      10.511  11.510  17.880  0.00  0.00    +0.000 C 
ENDBRANCH  13  14
ENDBRANCH  12  13
ENDBRANCH  10  12
ENDBRANCH   3   8
BRANCH   1  17
ATOM     17  C   UNL     1       3.903   2.853  17.952  0.00  0.00    +0.000 C 
ATOM     18  O   UNL     1       4.004   1.637  17.821  0.00  0.00    +0.000 OA
BRANCH  17  24
ATOM     19  C   UNL     1       1.974   6.817  20.383  0.00  0.00    +0.000 C 
ATOM     20  C   UNL     1       1.924   5.352  20.056  0.00  0.00    +0.000 A 
ATOM     21  C   UNL     1       0.873   4.551  20.509  0.00  0.00    +0.000 A 
ATOM     22  C   UNL     1       0.806   3.206  20.145  0.00  0.00    +0.000 A 
ATOM     23  C   UNL     1       1.776   2.658  19.299  0.00  0.00    +0.000 A 
ATOM     24  C   UNL     1       2.844   3.437  18.839  0.00  0.00    +0.000 A 
ATOM     25  C   UNL     1       2.924   4.779  19.255  0.00  0.00    +0.000 A 
BRANCH  23  26
ATOM     26  O   UNL     1       1.638   1.358  18.898  0.00  0.00    +0.000 OA
ATOM     27  H   UNL     1       1.292   1.330  17.993  0.00  0.00    +0.000 HD
ENDBRANCH  23  26
ENDBRANCH  17  24
ENDBRANCH   1  17
BRANCH   6  28
ATOM     28  C   UNL     1       6.106   4.253  13.794  0.00  0.00    +0.000 C 
BRANCH  28  29
ATOM     29  C   UNL     1       4.993   3.432  13.128  0.00  0.00    +0.000 C 
BRANCH  29  30
ATOM     30  C   UNL     1       5.179   3.132  11.628  0.00  0.00    +0.000 C 
ATOM     31  C   UNL     1       5.785   1.753  11.364  0.00  0.00    +0.000 C 
ATOM     32  C   UNL     1       3.824   3.232  10.918  0.00  0.00    +0.000 C 
ENDBRANCH  29  30
ENDBRANCH  28  29
ENDBRANCH   6  28
TORSDOF 10
ENDMDL
MODEL 2
REMARK VINA RESULT:      -8.9      0.896      1.109
REMARK  Name = 
REMARK  15 active torsions:
REMARK  status: ('A' for Active; 'I' for Inactive)
REMARK    1  A    between atoms: C_1  and  C_2
REMARK    2  A    between atoms: C_5  and  O_6
REMARK    3  A    between atoms: C_7  and  C_8
REMARK    4  A    between atoms: C_8  and  C_10
REMARK    5  A    between atoms: C_12  and  C_13
REMARK    6  A    between atoms: N_15  and  C_16
REMARK    7  A    between atoms: C_16  and  C_17
REMARK    8  A    between atoms: C_17  and  C_18
REMARK    9  A    between atoms: C_18  and  C_19
REMARK   10  A    between atoms: C_18  and  C_20
REMARK   11  A    between atoms: N_23  and  C_24
REMARK   12  A    between atoms: C_24  and  C_25
REMARK   13  A    between atoms: C_25  and  C_26
REMARK   14  A    between atoms: C_26  and  C_27
REMARK   15  A    between atoms: C_26  and  C_28
REMARK                            x       y       z     vdW  Elec       q    Type
REMARK                         _______ _______ _______ _____ _____    ______ ____
ROOT
ATOM      1  C   UNL     1       4.389   4.259  16.699  0.00  0.00    +0.000 A 
ATOM      2  C   UNL     1       5.268   5.131  17.440  0.00  0.00    +0.000 A 
ATOM      3  C   UNL     1       6.465   5.512  16.962  0.00  0.00    +0.000 A 
ATOM      4  C   UNL     1       6.866   5.086  15.587  0.00  0.00    +0.000 A 
ATOM      5  O   UNL     1       7.977   5.385  15.149  0.00  0.00    +0.000 OA
ATOM      6  N   UNL     1       5.918   4.351  14.861  0.00  0.00    +0.000 N 
ATOM      7  C   UNL     1       4.720   3.932  15.435  0.00  0.00    +0.000 A 
ENDROOT
BRANCH   3   8
ATOM      8  C   UNL     1       7.322   6.333  17.869  0.00  0.00    +0.000 C 
ATOM      9  O   UNL     1       7.847   5.845  18.867  0.00  0.00    +0.000 OA
ATOM     10  N   UNL     1       7.495   7.642  17.505  0.00  0.00    +0.000 N 
ATOM     11  H   UNL     1       7.104   7.955  16.615  0.00  0.00    +0.000 HD
BRANCH  10  12
ATOM     12  C   UNL     1       8.347   8.545  18.245  0.00  0.00    +0.000 C 
BRANCH  12  13
ATOM     13  C   UNL     1       8.446   9.925  17.591  0.00  0.00    +0.000 C 
BRANCH  13  14
ATOM     14  C   UNL     1       9.106  11.009  18.465  0.00  0.00    +0.000 C 
ATOM     15  C   UNL     1       9.495  10.485  19.849  0.00  0.00    +0.000 C 
ATOM     16  C   UNL     1      10.345  11.564  17.757  0.00  0.00    +0.000 C 
ENDBRANCH  13  14
ENDBRANCH  12  13
ENDBRANCH  10  12
ENDBRANCH   3   8
BRANCH   1  17
ATOM     17  C   UNL     1       3.115   3.677  17.269  0.00  0.00    +0.000 C 
ATOM     18  O   UNL     1       2.408   2.944  16.584  0.00  0.00    +0.000 OA
BRANCH  17  24
ATOM     19  C   UNL     1       1.466   6.865  20.798  0.00  0.00    +0.000 C 
ATOM     20  C   UNL     1       2.000   5.511  20.427  0.00  0.00    +0.000 A 
ATOM     21  C   UNL     1       2.104   4.496  21.381  0.00  0.00    +0.000 A 
ATOM     22  C   UNL     1       2.543   3.224  21.009  0.00  0.00    +0.000 A 
ATOM     23  C   UNL     1       2.851   2.950  19.673  0.00  0.00    +0.000 A 
ATOM     24  C   UNL     1       2.763   3.953  18.700  0.00  0.00    +0.000 A 
ATOM     25  C   UNL     1       2.367   5.243  19.100  0.00  0.00    +0.000 A 
BRANCH  23  26
ATOM     26  O   UNL     1       3.201   1.674  19.329  0.00  0.00    +0.000 OA
ATOM     27  H   UNL     1       4.167   1.599  19.286  0.00  0.00    +0.000 HD
ENDBRANCH  23  26
ENDBRANCH  17  24
ENDBRANCH   1  17
BRANCH   6  28
ATOM     28  C   UNL     1       6.260   3.907  13.506  0.00  0.00    +0.000 C 
BRANCH  28  29
ATOM     29  C   UNL     1       5.186   4.170  12.443  0.00  0.00    +0.000 C 
BRANCH  29  30
ATOM     30  C   UNL     1       4.545   2.922  11.806  0.00  0.00    +0.000 C 
ATOM     31  C   UNL     1       3.630   3.255  10.627  0.00  0.00    +0.000 C 
ATOM     32  C   UNL     1       5.648   1.967  11.334  0.00  0.00    +0.000 C 
ENDBRANCH  29  30
ENDBRANCH  28  29
ENDBRANCH   6  28
TORSDOF 10
ENDMDL
MODEL 3
REMARK VINA RESULT:      -8.5      3.404      7.183
REMARK  Name = 
REMARK  15 active torsions:
REMARK  status: ('A' for Active; 'I' for Inactive)
REMARK    1  A    between atoms: C_1  and  C_2
REMARK    2  A    between atoms: C_5  and  O_6
REMARK    3  A    between atoms: C_7  and  C_8
REMARK    4  A    between atoms: C_8  and  C_10
REMARK    5  A    between atoms: C_12  and  C_13
REMARK    6  A    between atoms: N_15  and  C_16
REMARK    7  A    between atoms: C_16  and  C_17
REMARK    8  A    between atoms: C_17  and  C_18
REMARK    9  A    between atoms: C_18  and  C_19
REMARK   10  A    between atoms: C_18  and  C_20
REMARK   11  A    between atoms: N_23  and  C_24
REMARK   12  A    between atoms: C_24  and  C_25
REMARK   13  A    between atoms: C_25  and  C_26
REMARK   14  A    between atoms: C_26  and  C_27
REMARK   15  A    between atoms: C_26  and  C_28
REMARK                            x       y       z     vdW  Elec       q    Type
REMARK                         _______ _______ _______ _____ _____    ______ ____
ROOT
ATOM      1  C   UNL     1       2.630   7.838  18.321  0.00  0.00    +0.000 A 
ATOM      2  C   UNL     1       3.615   7.345  17.388  0.00  0.00    +0.000 A 
ATOM      3  C   UNL     1       4.259   6.182  17.579  0.00  0.00    +0.000 A 
ATOM      4  C   UNL     1       3.887   5.330  18.750  0.00  0.00    +0.000 A 
ATOM      5  O   UNL     1       4.498   4.283  18.968  0.00  0.00    +0.000 OA
ATOM      6  N   UNL     1       2.833   5.794  19.548  0.00  0.00    +0.000 N 
ATOM      7  C   UNL     1       2.248   7.040  19.336  0.00  0.00    +0.000 A 
ENDROOT
BRANCH   3   8
ATOM      8  C   UNL     1       5.327   5.833  16.595  0.00  0.00    +0.000 C 
ATOM      9  O   UNL     1       6.237   6.618  16.333  0.00  0.00    +0.000 OA
ATOM     10  N   UNL     1       5.235   4.590  16.026  0.00  0.00    +0.000 N 
ATOM     11  H   UNL     1       4.506   3.957  16.358  0.00  0.00    +0.000 HD
BRANCH  10  12
ATOM     12  C   UNL     1       6.227   4.084  15.105  0.00  0.00    +0.000 C 
BRANCH  12  13
ATOM     13  C   UNL     1       5.931   4.473  13.655  0.00  0.00    +0.000 C 
BRANCH  13  14
ATOM     14  C   UNL     1       5.864   3.290  12.669  0.00  0.00    +0.000 C 
ATOM     15  C   UNL     1       4.599   3.319  11.810  0.00  0.00    +0.000 C 
ATOM     16  C   UNL     1       7.100   3.296  11.765  0.00  0.00    +0.000 C 
ENDBRANCH  13  14
ENDBRANCH  12  13
ENDBRANCH  10  12
ENDBRANCH   3   8
BRANCH   1  17
ATOM     17  C   UNL     1       2.008   9.213  18.229  0.00  0.00    +0.000 C 
ATOM     18  O   UNL     1       2.285   9.957  17.294  0.00  0.00    +0.000 OA
BRANCH  17  24
ATOM     19  C   UNL     1       0.564   9.449  23.046  0.00  0.00    +0.000 C 
ATOM     20  C   UNL     1       0.274   9.711  21.596  0.00  0.00    +0.000 A 
ATOM     21  C   UNL     1      -0.881  10.393  21.206  0.00  0.00    +0.000 A 
ATOM     22  C   UNL     1      -1.107  10.683  19.860  0.00  0.00    +0.000 A 
ATOM     23  C   UNL     1      -0.162  10.321  18.895  0.00  0.00    +0.000 A 
ATOM     24  C   UNL     1       1.000   9.629  19.259  0.00  0.00    +0.000 A 
ATOM     25  C   UNL     1       1.188   9.299  20.614  0.00  0.00    +0.000 A 
BRANCH  23  26
ATOM     26  O   UNL     1      -0.375  10.691  17.596  0.00  0.00    +0.000 OA
ATOM     27  H   UNL     1       0.162  10.139  17.007  0.00  0.00    +0.000 HD
ENDBRANCH  23  26
ENDBRANCH  17  24
ENDBRANCH   1  17
BRANCH   6  28
ATOM     28  C   UNL     1       2.428   4.998  20.711  0.00  0.00    +0.000 C 
BRANCH  28  29
ATOM     29  C   UNL     1       1.085   4.270  20.567  0.00  0.00    +0.000 C 
BRANCH  29  30
ATOM     30  C   UNL     1       1.146   2.730  20.573  0.00  0.00    +0.000 C 
ATOM     31  C   UNL     1       1.627   2.145  19.245  0.00  0.00    +0.000 C 
ATOM     32  C   UNL     1       2.078   2.262  21.697  0.00  0.00    +0.000 C 
ENDBRANCH  29  30
ENDBRANCH  28  29
ENDBRANCH   6  28
TORSDOF 10
ENDMDL
MODEL 4
REMARK VINA RESULT:      -8.5      3.868      7.343
REMARK  Name = 
REMARK  15 active torsions:
REMARK  status: ('A' for Active; 'I' for Inactive)
REMARK    1  A    between atoms: C_1  and  C_2
REMARK    2  A    between atoms: C_5  and  O_6
REMARK    3  A    between atoms: C_7  and  C_8
REMARK    4  A    between atoms: C_8  and  C_10
REMARK    5  A    between atoms: C_12  and  C_13
REMARK    6  A    between atoms: N_15  and  C_16
REMARK    7  A    between atoms: C_16  and  C_17
REMARK    8  A    between atoms: C_17  and  C_18
REMARK    9  A    between atoms: C_18  and  C_19
REMARK   10  A    between atoms: C_18  and  C_20
REMARK   11  A    between atoms: N_23  and  C_24
REMARK   12  A    between atoms: C_24  and  C_25
REMARK   13  A    between atoms: C_25  and  C_26
REMARK   14  A    between atoms: C_26  and  C_27
REMARK   15  A    between atoms: C_26  and  C_28
REMARK                            x       y       z     vdW  Elec       q    Type
REMARK                         _______ _______ _______ _____ _____    ______ ____
ROOT
ATOM      1  C   UNL     1       2.430   8.506  18.273  0.00  0.00    +0.000 A 
ATOM      2  C   UNL     1       3.365   7.927  17.337  0.00  0.00    +0.000 A 
ATOM      3  C   UNL     1       3.888   6.703  17.517  0.00  0.00    +0.000 A 
ATOM      4  C   UNL     1       3.427   5.879  18.677  0.00  0.00    +0.000 A 
ATOM      5  O   UNL     1       3.928   4.774  18.885  0.00  0.00    +0.000 OA
ATOM      6  N   UNL     1       2.421   6.439  19.477  0.00  0.00    +0.000 N 
ATOM      7  C   UNL     1       1.964   7.739  19.277  0.00  0.00    +0.000 A 
ENDROOT
BRANCH   3   8
ATOM      8  C   UNL     1       4.921   6.260  16.533  0.00  0.00    +0.000 C 
ATOM      9  O   UNL     1       5.134   6.893  15.501  0.00  0.00    +0.000 OA
ATOM     10  N   UNL     1       5.616   5.127  16.864  0.00  0.00    +0.000 N 
ATOM     11  H   UNL     1       5.450   4.704  17.779  0.00  0.00    +0.000 HD
BRANCH  10  12
ATOM     12  C   UNL     1       6.689   4.609  16.046  0.00  0.00    +0.000 C 
BRANCH  12  13
ATOM     13  C   UNL     1       6.181   3.714  14.913  0.00  0.00    +0.000 C 
BRANCH  13  14
ATOM     14  C   UNL     1       6.247   4.347  13.509  0.00  0.00    +0.000 C 
ATOM     15  C   UNL     1       7.585   5.039  13.244  0.00  0.00    +0.000 C 
ATOM     16  C   UNL     1       6.001   3.276  12.444  0.00  0.00    +0.000 C 
ENDBRANCH  13  14
ENDBRANCH  12  13
ENDBRANCH  10  12
ENDBRANCH   3   8
BRANCH   1  17
ATOM     17  C   UNL     1       1.950   9.937  18.195  0.00  0.00    +0.000 C 
ATOM     18  O   UNL     1       2.705  10.824  17.810  0.00  0.00    +0.000 OA
BRANCH  17  24
ATOM     19  C   UNL     1      -2.943   9.651  17.044  0.00  0.00    +0.000 C 
ATOM     20  C   UNL     1      -1.856  10.146  17.955  0.00  0.00    +0.000 A 
ATOM     21  C   UNL     1      -2.164  10.827  19.135  0.00  0.00    +0.000 A 
ATOM     22  C   UNL     1      -1.147  11.227  20.003  0.00  0.00    +0.000 A 
ATOM     23  C   UNL     1       0.186  10.921  19.711  0.00  0.00    +0.000 A 
ATOM     24  C   UNL     1       0.522  10.248  18.530  0.00  0.00    +0.000 A 
ATOM     25  C   UNL     1      -0.511   9.896  17.642  0.00  0.00    +0.000 A 
BRANCH  23  26
ATOM     26  O   UNL     1       1.150  11.257  20.620  0.00  0.00    +0.000 OA
ATOM     27  H   UNL     1       1.808  11.834  20.202  0.00  0.00    +0.000 HD
ENDBRANCH  23  26
ENDBRANCH  17  24
ENDBRANCH   1  17
BRANCH   6  28
ATOM     28  C   UNL     1       1.933   5.673  20.629  0.00  0.00    +0.000 C 
BRANCH  28  29
ATOM     29  C   UNL     1       0.815   4.669  20.318  0.00  0.00    +0.000 C 
BRANCH  29  30
ATOM     30  C   UNL     1       1.124   3.193  20.633  0.00  0.00    +0.000 C 
ATOM     31  C   UNL     1       1.433   2.367  19.384  0.00  0.00    +0.000 C 
ATOM     32  C   UNL     1       2.316   3.117  21.595  0.00  0.00    +0.000 C 
ENDBRANCH  29  30
ENDBRANCH  28  29
ENDBRANCH   6  28
TORSDOF 10
ENDMDL
MODEL 5
REMARK VINA RESULT:      -8.3      1.637      2.246
REMARK  Name = 
REMARK  15 active torsions:
REMARK  status: ('A' for Active; 'I' for Inactive)
REMARK    1  A    between atoms: C_1  and  C_2
REMARK    2  A    between atoms: C_5  and  O_6
REMARK    3  A    between atoms: C_7  and  C_8
REMARK    4  A    between atoms: C_8  and  C_10
REMARK    5  A    between atoms: C_12  and  C_13
REMARK    6  A    between atoms: N_15  and  C_16
REMARK    7  A    between atoms: C_16  and  C_17
REMARK    8  A    between atoms: C_17  and  C_18
REMARK    9  A    between atoms: C_18  and  C_19
REMARK   10  A    between atoms: C_18  and  C_20
REMARK   11  A    between atoms: N_23  and  C_24
REMARK   12  A    between atoms: C_24  and  C_25
REMARK   13  A    between atoms: C_25  and  C_26
REMARK   14  A    between atoms: C_26  and  C_27
REMARK   15  A    between atoms: C_26  and  C_28
REMARK                            x       y       z     vdW  Elec       q    Type
REMARK                         _______ _______ _______ _____ _____    ______ ____
ROOT
ATOM      1  C   UNL     1       4.165   5.269  17.240  0.00  0.00    +0.000 A 
ATOM      2  C   UNL     1       5.243   6.056  17.790  0.00  0.00    +0.000 A 
ATOM      3  C   UNL     1       6.510   5.926  17.364  0.00  0.00    +0.000 A 
ATOM      4  C   UNL     1       6.803   4.998  16.229  0.00  0.00    +0.000 A 
ATOM      5  O   UNL     1       7.964   4.829  15.855  0.00  0.00    +0.000 OA
ATOM      6  N   UNL     1       5.700   4.360  15.646  0.00  0.00    +0.000 N 
ATOM      7  C   UNL     1       4.417   4.485  16.174  0.00  0.00    +0.000 A 
ENDROOT
BRANCH   3   8
ATOM      8  C   UNL     1       7.548   6.723  18.083  0.00  0.00    +0.000 C 
ATOM      9  O   UNL     1       8.216   6.233  18.992  0.00  0.00    +0.000 OA
ATOM     10  N   UNL     1       7.716   8.014  17.655  0.00  0.00    +0.000 N 
ATOM     11  H   UNL     1       7.191   8.326  16.836  0.00  0.00    +0.000 HD
BRANCH  10  12
ATOM     12  C   UNL     1       8.723   8.890  18.209  0.00  0.00    +0.000 C 
BRANCH  12  13
ATOM     13  C   UNL     1       8.348  10.367  18.082  0.00  0.00    +0.000 C 
BRANCH  13  14
ATOM     14  C   UNL     1       9.268  11.337  18.850  0.00  0.00    +0.000 C 
ATOM     15  C   UNL     1       9.464  10.921  20.309  0.00  0.00    +0.000 C 
ATOM     16  C   UNL     1      10.628  11.425  18.153  0.00  0.00    +0.000 C 
ENDBRANCH  13  14
ENDBRANCH  12  13
ENDBRANCH  10  12
ENDBRANCH   3   8
BRANCH   1  17
ATOM     17  C   UNL     1       2.762   5.266  17.803  0.00  0.00    +0.000 C 
ATOM     18  O   UNL     1       2.025   4.301  17.627  0.00  0.00    +0.000 OA
BRANCH  17  24
ATOM     19  C   UNL     1       1.420  10.106  18.140  0.00  0.00    +0.000 C 
ATOM     20  C   UNL     1       1.692   8.791  18.812  0.00  0.00    +0.000 A 
ATOM     21  C   UNL     1       1.461   8.623  20.179  0.00  0.00    +0.000 A 
ATOM     22  C   UNL     1       1.659   7.378  20.778  0.00  0.00    +0.000 A 
ATOM     23  C   UNL     1       2.060   6.283  20.007  0.00  0.00    +0.000 A 
ATOM     24  C   UNL     1       2.307   6.428  18.636  0.00  0.00    +0.000 A 
ATOM     25  C   UNL     1       2.151   7.701  18.057  0.00  0.00    +0.000 A 
BRANCH  23  26
ATOM     26  O   UNL     1       2.168   5.060  20.608  0.00  0.00    +0.000 OA
ATOM     27  H   UNL     1       1.767   5.092  21.490  0.00  0.00    +0.000 HD
ENDBRANCH  23  26
ENDBRANCH  17  24
ENDBRANCH   1  17
BRANCH   6  28
ATOM     28  C   UNL     1       5.931   3.437  14.530  0.00  0.00    +0.000 C 
BRANCH  28  29
ATOM     29  C   UNL     1       6.558   4.069  13.281  0.00  0.00    +0.000 C 
BRANCH  29  30
ATOM     30  C   UNL     1       6.093   3.498  11.927  0.00  0.00    +0.000 C 
ATOM     31  C   UNL     1       6.760   2.166  11.579  0.00  0.00    +0.000 C 
ATOM     32  C   UNL     1       4.572   3.309  11.950  0.00  0.00    +0.000 C 
ENDBRANCH  29  30
ENDBRANCH  28  29
ENDBRANCH   6  28
TORSDOF 10
ENDMDL
MODEL 6
REMARK VINA RESULT:      -8.1      1.928      2.555
REMARK  Name = 
REMARK  15 active torsions:
REMARK  status: ('A' for Active; 'I' for Inactive)
REMARK    1  A    between atoms: C_1  and  C_2
REMARK    2  A    between atoms: C_5  and  O_6
REMARK    3  A    between atoms: C_7  and  C_8
REMARK    4  A    between atoms: C_8  and  C_10
REMARK    5  A    between atoms: C_12  and  C_13
REMARK    6  A    between atoms: N_15  and  C_16
REMARK    7  A    between atoms: C_16  and  C_17
REMARK    8  A    between atoms: C_17  and  C_18
REMARK    9  A    between atoms: C_18  and  C_19
REMARK   10  A    between atoms: C_18  and  C_20
REMARK   11  A    between atoms: N_23  and  C_24
REMARK   12  A    between atoms: C_24  and  C_25
REMARK   13  A    between atoms: C_25  and  C_26
REMARK   14  A    between atoms: C_26  and  C_27
REMARK   15  A    between atoms: C_26  and  C_28
REMARK                            x       y       z     vdW  Elec       q    Type
REMARK                         _______ _______ _______ _____ _____    ______ ____
ROOT
ATOM      1  C   UNL     1       4.256   6.076  17.491  0.00  0.00    +0.000 A 
ATOM      2  C   UNL     1       5.426   6.745  18.007  0.00  0.00    +0.000 A 
ATOM      3  C   UNL     1       6.671   6.370  17.666  0.00  0.00    +0.000 A 
ATOM      4  C   UNL     1       6.850   5.280  16.659  0.00  0.00    +0.000 A 
ATOM      5  O   UNL     1       7.982   4.891  16.368  0.00  0.00    +0.000 OA
ATOM      6  N   UNL     1       5.679   4.757  16.092  0.00  0.00    +0.000 N 
ATOM      7  C   UNL     1       4.416   5.142  16.534  0.00  0.00    +0.000 A 
ENDROOT
BRANCH   3   8
ATOM      8  C   UNL     1       7.798   7.075  18.347  0.00  0.00    +0.000 C 
ATOM      9  O   UNL     1       8.545   6.485  19.125  0.00  0.00    +0.000 OA
ATOM     10  N   UNL     1       7.950   8.401  18.035  0.00  0.00    +0.000 N 
ATOM     11  H   UNL     1       7.349   8.802  17.313  0.00  0.00    +0.000 HD
BRANCH  10  12
ATOM     12  C   UNL     1       9.030   9.201  18.564  0.00  0.00    +0.000 C 
BRANCH  12  13
ATOM     13  C   UNL     1       8.931  10.669  18.144  0.00  0.00    +0.000 C 
BRANCH  13  14
ATOM     14  C   UNL     1      10.252  11.459  18.237  0.00  0.00    +0.000 C 
ATOM     15  C   UNL     1      10.176  12.807  17.517  0.00  0.00    +0.000 C 
ATOM     16  C   UNL     1      10.623  11.680  19.706  0.00  0.00    +0.000 C 
ENDBRANCH  13  14
ENDBRANCH  12  13
ENDBRANCH  10  12
ENDBRANCH   3   8
BRANCH   1  17
ATOM     17  C   UNL     1       2.852   6.357  17.977  0.00  0.00    +0.000 C 
ATOM     18  O   UNL     1       2.262   7.371  17.614  0.00  0.00    +0.000 OA
BRANCH  17  24
ATOM     19  C   UNL     1       0.825   1.788  18.578  0.00  0.00    +0.000 C 
ATOM     20  C   UNL     1       1.144   3.145  19.138  0.00  0.00    +0.000 A 
ATOM     21  C   UNL     1       0.873   3.451  20.474  0.00  0.00    +0.000 A 
ATOM     22  C   UNL     1       1.231   4.694  20.998  0.00  0.00    +0.000 A 
ATOM     23  C   UNL     1       1.891   5.630  20.197  0.00  0.00    +0.000 A 
ATOM     24  C   UNL     1       2.167   5.351  18.852  0.00  0.00    +0.000 A 
ATOM     25  C   UNL     1       1.754   4.113  18.326  0.00  0.00    +0.000 A 
BRANCH  23  26
ATOM     26  O   UNL     1       2.300   6.806  20.762  0.00  0.00    +0.000 OA
ATOM     27  H   UNL     1       1.772   6.989  21.554  0.00  0.00    +0.000 HD
ENDBRANCH  23  26
ENDBRANCH  17  24
ENDBRANCH   1  17
BRANCH   6  28
ATOM     28  C   UNL     1       5.798   3.685  15.099  0.00  0.00    +0.000 C 
BRANCH  28  29
ATOM     29  C   UNL     1       5.506   4.102  13.651  0.00  0.00    +0.000 C 
BRANCH  29  30
ATOM     30  C   UNL     1       6.183   3.258  12.554  0.00  0.00    +0.000 C 
ATOM     31  C   UNL     1       5.188   2.668  11.553  0.00  0.00    +0.000 C 
ATOM     32  C   UNL     1       7.201   4.123  11.802  0.00  0.00    +0.000 C 
ENDBRANCH  29  30
ENDBRANCH  28  29
ENDBRANCH   6  28
TORSDOF 10
ENDMDL
MODEL 7
REMARK VINA RESULT:      -8.1      3.843      7.497
REMARK  Name = 
REMARK  15 active torsions:
REMARK  status: ('A' for Active; 'I' for Inactive)
REMARK    1  A    between atoms: C_1  and  C_2
REMARK    2  A    between atoms: C_5  and  O_6
REMARK    3  A    between atoms: C_7  and  C_8
REMARK    4  A    between atoms: C_8  and  C_10
REMARK    5  A    between atoms: C_12  and  C_13
REMARK    6  A    between atoms: N_15  and  C_16
REMARK    7  A    between atoms: C_16  and  C_17
REMARK    8  A    between atoms: C_17  and  C_18
REMARK    9  A    between atoms: C_18  and  C_19
REMARK   10  A    between atoms: C_18  and  C_20
REMARK   11  A    between atoms: N_23  and  C_24
REMARK   12  A    between atoms: C_24  and  C_25
REMARK   13  A    between atoms: C_25  and  C_26
REMARK   14  A    between atoms: C_26  and  C_27
REMARK   15  A    between atoms: C_26  and  C_28
REMARK                            x       y       z     vdW  Elec       q    Type
REMARK                         _______ _______ _______ _____ _____    ______ ____
ROOT
ATOM      1  C   UNL     1       2.541   8.596  18.152  0.00  0.00    +0.000 A 
ATOM      2  C   UNL     1       3.562   8.061  17.283  0.00  0.00    +0.000 A 
ATOM      3  C   UNL     1       4.139   6.869  17.510  0.00  0.00    +0.000 A 
ATOM      4  C   UNL     1       3.653   6.032  18.650  0.00  0.00    +0.000 A 
ATOM      5  O   UNL     1       4.200   4.958  18.902  0.00  0.00    +0.000 OA
ATOM      6  N   UNL     1       2.571   6.543  19.379  0.00  0.00    +0.000 N 
ATOM      7  C   UNL     1       2.058   7.814  19.136  0.00  0.00    +0.000 A 
ENDROOT
BRANCH   3   8
ATOM      8  C   UNL     1       5.252   6.474  16.596  0.00  0.00    +0.000 C 
ATOM      9  O   UNL     1       6.319   7.084  16.587  0.00  0.00    +0.000 OA
ATOM     10  N   UNL     1       5.012   5.390  15.793  0.00  0.00    +0.000 N 
ATOM     11  H   UNL     1       4.138   4.876  15.918  0.00  0.00    +0.000 HD
BRANCH  10  12
ATOM     12  C   UNL     1       6.013   4.849  14.902  0.00  0.00    +0.000 C 
BRANCH  12  13
ATOM     13  C   UNL     1       5.468   3.720  14.025  0.00  0.00    +0.000 C 
BRANCH  13  14
ATOM     14  C   UNL     1       5.640   3.938  12.509  0.00  0.00    +0.000 C 
ATOM     15  C   UNL     1       6.979   3.410  11.993  0.00  0.00    +0.000 C 
ATOM     16  C   UNL     1       4.493   3.261  11.753  0.00  0.00    +0.000 C 
ENDBRANCH  13  14
ENDBRANCH  12  13
ENDBRANCH  10  12
ENDBRANCH   3   8
BRANCH   1  17
ATOM     17  C   UNL     1       1.990   9.998  18.027  0.00  0.00    +0.000 C 
ATOM     18  O   UNL     1       2.675  10.893  17.540  0.00  0.00    +0.000 OA
BRANCH  17  24
ATOM     19  C   UNL     1      -2.949   9.590  17.144  0.00  0.00    +0.000 C 
ATOM     20  C   UNL     1      -1.828  10.106  17.999  0.00  0.00    +0.000 A 
ATOM     21  C   UNL     1      -2.088  10.766  19.202  0.00  0.00    +0.000 A 
ATOM     22  C   UNL     1      -1.036  11.185  20.017  0.00  0.00    +0.000 A 
ATOM     23  C   UNL     1       0.287  10.919  19.649  0.00  0.00    +0.000 A 
ATOM     24  C   UNL     1       0.575  10.266  18.444  0.00  0.00    +0.000 A 
ATOM     25  C   UNL     1      -0.496   9.895  17.610  0.00  0.00    +0.000 A 
BRANCH  23  26
ATOM     26  O   UNL     1       1.291  11.271  20.508  0.00  0.00    +0.000 OA
ATOM     27  H   UNL     1       0.924  11.440  21.389  0.00  0.00    +0.000 HD
ENDBRANCH  23  26
ENDBRANCH  17  24
ENDBRANCH   1  17
BRANCH   6  28
ATOM     28  C   UNL     1       2.055   5.763  20.509  0.00  0.00    +0.000 C 
BRANCH  28  29
ATOM     29  C   UNL     1       1.043   4.670  20.140  0.00  0.00    +0.000 C 
BRANCH  29  30
ATOM     30  C   UNL     1       1.570   3.223  20.170  0.00  0.00    +0.000 C 
ATOM     31  C   UNL     1       1.453   2.571  21.548  0.00  0.00    +0.000 C 
ATOM     32  C   UNL     1       0.800   2.380  19.147  0.00  0.00    +0.000 C 
ENDBRANCH  29  30
ENDBRANCH  28  29
ENDBRANCH   6  28
TORSDOF 10
ENDMDL
MODEL 8
REMARK VINA RESULT:      -8.1      3.464      7.452
REMARK  Name = 
REMARK  15 active torsions:
REMARK  status: ('A' for Active; 'I' for Inactive)
REMARK    1  A    between atoms: C_1  and  C_2
REMARK    2  A    between atoms: C_5  and  O_6
REMARK    3  A    between atoms: C_7  and  C_8
REMARK    4  A    between atoms: C_8  and  C_10
REMARK    5  A    between atoms: C_12  and  C_13
REMARK    6  A    between atoms: N_15  and  C_16
REMARK    7  A    between atoms: C_16  and  C_17
REMARK    8  A    between atoms: C_17  and  C_18
REMARK    9  A    between atoms: C_18  and  C_19
REMARK   10  A    between atoms: C_18  and  C_20
REMARK   11  A    between atoms: N_23  and  C_24
REMARK   12  A    between atoms: C_24  and  C_25
REMARK   13  A    between atoms: C_25  and  C_26
REMARK   14  A    between atoms: C_26  and  C_27
REMARK   15  A    between atoms: C_26  and  C_28
REMARK                            x       y       z     vdW  Elec       q    Type
REMARK                         _______ _______ _______ _____ _____    ______ ____
ROOT
ATOM      1  C   UNL     1       5.257   4.737  16.610  0.00  0.00    +0.000 A 
ATOM      2  C   UNL     1       4.729   6.016  17.024  0.00  0.00    +0.000 A 
ATOM      3  C   UNL     1       3.486   6.148  17.516  0.00  0.00    +0.000 A 
ATOM      4  C   UNL     1       2.651   4.925  17.719  0.00  0.00    +0.000 A 
ATOM      5  O   UNL     1       1.494   5.030  18.125  0.00  0.00    +0.000 OA
ATOM      6  N   UNL     1       3.263   3.698  17.425  0.00  0.00    +0.000 N 
ATOM      7  C   UNL     1       4.532   3.629  16.856  0.00  0.00    +0.000 A 
ENDROOT
BRANCH   3   8
ATOM      8  C   UNL     1       3.023   7.537  17.812  0.00  0.00    +0.000 C 
ATOM      9  O   UNL     1       3.374   8.489  17.118  0.00  0.00    +0.000 OA
ATOM     10  N   UNL     1       2.178   7.671  18.882  0.00  0.00    +0.000 N 
ATOM     11  H   UNL     1       1.857   6.826  19.357  0.00  0.00    +0.000 HD
BRANCH  10  12
ATOM     12  C   UNL     1       1.596   8.940  19.255  0.00  0.00    +0.000 C 
BRANCH  12  13
ATOM     13  C   UNL     1       0.753   9.549  18.134  0.00  0.00    +0.000 C 
BRANCH  13  14
ATOM     14  C   UNL     1      -0.596  10.141  18.588  0.00  0.00    +0.000 C 
ATOM     15  C   UNL     1      -0.463  11.583  19.081  0.00  0.00    +0.000 C 
ATOM     16  C   UNL     1      -1.604  10.082  17.436  0.00  0.00    +0.000 C 
ENDBRANCH  13  14
ENDBRANCH  12  13
ENDBRANCH  10  12
ENDBRANCH   3   8
BRANCH   1  17
ATOM     17  C   UNL     1       6.582   4.572  15.900  0.00  0.00    +0.000 C 
ATOM     18  O   UNL     1       7.623   4.482  16.543  0.00  0.00    +0.000 OA
BRANCH  17  24
ATOM     19  C   UNL     1       4.465   2.896  11.651  0.00  0.00    +0.000 C 
ATOM     20  C   UNL     1       5.595   3.606  12.339  0.00  0.00    +0.000 A 
ATOM     21  C   UNL     1       6.616   4.211  11.602  0.00  0.00    +0.000 A 
ATOM     22  C   UNL     1       7.627   4.921  12.252  0.00  0.00    +0.000 A 
ATOM     23  C   UNL     1       7.607   5.057  13.643  0.00  0.00    +0.000 A 
ATOM     24  C   UNL     1       6.599   4.453  14.405  0.00  0.00    +0.000 A 
ATOM     25  C   UNL     1       5.616   3.699  13.739  0.00  0.00    +0.000 A 
BRANCH  23  26
ATOM     26  O   UNL     1       8.567   5.826  14.242  0.00  0.00    +0.000 OA
ATOM     27  H   UNL     1       9.280   6.009  13.611  0.00  0.00    +0.000 HD
ENDBRANCH  23  26
ENDBRANCH  17  24
ENDBRANCH   1  17
BRANCH   6  28
ATOM     28  C   UNL     1       2.488   2.466  17.605  0.00  0.00    +0.000 C 
BRANCH  28  29
ATOM     29  C   UNL     1       2.546   1.860  19.014  0.00  0.00    +0.000 C 
BRANCH  29  30
ATOM     30  C   UNL     1       3.270   2.700  20.083  0.00  0.00    +0.000 C 
ATOM     31  C   UNL     1       2.476   2.828  21.383  0.00  0.00    +0.000 C 
ATOM     32  C   UNL     1       4.635   2.072  20.385  0.00  0.00    +0.000 C 
ENDBRANCH  29  30
ENDBRANCH  28  29
ENDBRANCH   6  28
TORSDOF 10
ENDMDL
MODEL 9
REMARK VINA RESULT:      -8.1      0.835      1.175
REMARK  Name = 
REMARK  15 active torsions:
REMARK  status: ('A' for Active; 'I' for Inactive)
REMARK    1  A    between atoms: C_1  and  C_2
REMARK    2  A    between atoms: C_5  and  O_6
REMARK    3  A    between atoms: C_7  and  C_8
REMARK    4  A    between atoms: C_8  and  C_10
REMARK    5  A    between atoms: C_12  and  C_13
REMARK    6  A    between atoms: N_15  and  C_16
REMARK    7  A    between atoms: C_16  and  C_17
REMARK    8  A    between atoms: C_17  and  C_18
REMARK    9  A    between atoms: C_18  and  C_19
REMARK   10  A    between atoms: C_18  and  C_20
REMARK   11  A    between atoms: N_23  and  C_24
REMARK   12  A    between atoms: C_24  and  C_25
REMARK   13  A    between atoms: C_25  and  C_26
REMARK   14  A    between atoms: C_26  and  C_27
REMARK   15  A    between atoms: C_26  and  C_28
REMARK                            x       y       z     vdW  Elec       q    Type
REMARK                         _______ _______ _______ _____ _____    ______ ____
ROOT
ATOM      1  C   UNL     1       5.371   3.949  18.029  0.00  0.00    +0.000 A 
ATOM      2  C   UNL     1       6.141   5.058  18.541  0.00  0.00    +0.000 A 
ATOM      3  C   UNL     1       7.014   5.734  17.775  0.00  0.00    +0.000 A 
ATOM      4  C   UNL     1       7.134   5.382  16.327  0.00  0.00    +0.000 A 
ATOM      5  O   UNL     1       7.961   5.958  15.620  0.00  0.00    +0.000 OA
ATOM      6  N   UNL     1       6.267   4.387  15.855  0.00  0.00    +0.000 N 
ATOM      7  C   UNL     1       5.429   3.678  16.712  0.00  0.00    +0.000 A 
ENDROOT
BRANCH   3   8
ATOM      8  C   UNL     1       7.823   6.793  18.449  0.00  0.00    +0.000 C 
ATOM      9  O   UNL     1       8.459   6.557  19.475  0.00  0.00    +0.000 OA
ATOM     10  N   UNL     1       7.822   8.023  17.845  0.00  0.00    +0.000 N 
ATOM     11  H   UNL     1       7.345   8.123  16.947  0.00  0.00    +0.000 HD
BRANCH  10  12
ATOM     12  C   UNL     1       8.605   9.131  18.342  0.00  0.00    +0.000 C 
BRANCH  12  13
ATOM     13  C   UNL     1       8.224  10.459  17.684  0.00  0.00    +0.000 C 
BRANCH  13  14
ATOM     14  C   UNL     1       9.030  11.678  18.174  0.00  0.00    +0.000 C 
ATOM     15  C   UNL     1      10.507  11.594  17.786  0.00  0.00    +0.000 C 
ATOM     16  C   UNL     1       8.421  12.964  17.608  0.00  0.00    +0.000 C 
ENDBRANCH  13  14
ENDBRANCH  12  13
ENDBRANCH  10  12
ENDBRANCH   3   8
BRANCH   1  17
ATOM     17  C   UNL     1       4.508   3.062  18.897  0.00  0.00    +0.000 C 
ATOM     18  O   UNL     1       4.913   1.960  19.253  0.00  0.00    +0.000 OA
BRANCH  17  24
ATOM     19  C   UNL     1       1.697   6.827  20.706  0.00  0.00    +0.000 C 
ATOM     20  C   UNL     1       1.818   5.389  20.288  0.00  0.00    +0.000 A 
ATOM     21  C   UNL     1       0.700   4.552  20.271  0.00  0.00    +0.000 A 
ATOM     22  C   UNL     1       0.814   3.235  19.821  0.00  0.00    +0.000 A 
ATOM     23  C   UNL     1       2.043   2.756  19.355  0.00  0.00    +0.000 A 
ATOM     24  C   UNL     1       3.180   3.573  19.371  0.00  0.00    +0.000 A 
ATOM     25  C   UNL     1       3.059   4.882  19.874  0.00  0.00    +0.000 A 
BRANCH  23  26
ATOM     26  O   UNL     1       2.103   1.488  18.847  0.00  0.00    +0.000 OA
ATOM     27  H   UNL     1       1.206   1.137  18.736  0.00  0.00    +0.000 HD
ENDBRANCH  23  26
ENDBRANCH  17  24
ENDBRANCH   1  17
BRANCH   6  28
ATOM     28  C   UNL     1       6.343   4.002  14.442  0.00  0.00    +0.000 C 
BRANCH  28  29
ATOM     29  C   UNL     1       5.004   4.004  13.692  0.00  0.00    +0.000 C 
BRANCH  29  30
ATOM     30  C   UNL     1       4.946   3.154  12.409  0.00  0.00    +0.000 C 
ATOM     31  C   UNL     1       3.986   3.717  11.360  0.00  0.00    +0.000 C 
ATOM     32  C   UNL     1       6.350   3.050  11.802  0.00  0.00    +0.000 C 
ENDBRANCH  29  30
ENDBRANCH  28  29
ENDBRANCH   6  28
TORSDOF 10
ENDMDL
