MODEL 1
REMARK VINA RESULT:      -8.2      0.000      0.000
REMARK  Name = 
REMARK  13 active torsions:
REMARK  status: ('A' for Active; 'I' for Inactive)
REMARK    1  A    between atoms: C_1  and  C_2
REMARK    2  A    between atoms: C_2  and  C_3
REMARK    3  A    between atoms: C_3  and  C_4
REMARK    4  A    between atoms: C_4  and  O_5
REMARK    5  A    between atoms: O_5  and  C_6
REMARK    6  A    between atoms: N_8  and  C_9
REMARK    7  A    between atoms: C_14  and  C_15
REMARK    8  A    between atoms: N_16  and  C_17
REMARK    9  A    between atoms: C_17  and  C_18
REMARK   10  A    between atoms: C_21  and  C_22
REMARK   11  A    between atoms: C_22  and  O_24
REMARK   12  A    between atoms: C_26  and  O_27
REMARK   13  A    between atoms: O_27  and  C_28
REMARK                            x       y       z     vdW  Elec       q    Type
REMARK                         _______ _______ _______ _____ _____    ______ ____
ROOT
ATOM      1  C   UNL     1       5.801   6.305  16.933  0.00  0.00    +0.000 A 
ATOM      2  C   UNL     1       5.657   5.330  15.948  0.00  0.00    +0.000 A 
ATOM      3  C   UNL     1       4.679   4.337  16.047  0.00  0.00    +0.000 A 
ATOM      4  C   UNL     1       3.793   4.347  17.135  0.00  0.00    +0.000 A 
ATOM      5  C   UNL     1       2.687   3.537  17.485  0.00  0.00    +0.000 A 
ATOM      6  C   UNL     1       2.137   4.035  18.646  0.00  0.00    +0.000 A 
ATOM      7  C   UNL     1       0.949   3.537  19.393  0.00  0.00    +0.000 C 
ATOM      8  N   UNL     1       2.893   5.133  19.028  0.00  0.00    +0.000 N 
ATOM      9  C   UNL     1       3.942   5.316  18.130  0.00  0.00    +0.000 A 
ATOM     10  C   UNL     1       4.983   6.269  18.077  0.00  0.00    +0.000 A 
ENDROOT
BRANCH   1  13
ATOM     11  C   UNL     1       7.776   7.611  17.693  0.00  0.00    +0.000 C 
ATOM     12  O   UNL     1       8.147   6.944  18.646  0.00  0.00    +0.000 OA
ATOM     13  N   UNL     1       6.743   7.347  16.831  0.00  0.00    +0.000 N 
ATOM     14  H   UNL     1       6.674   7.987  16.053  0.00  0.00    +0.000 HD
BRANCH  11  15
ATOM     15  O   UNL     1       8.320   8.816  17.369  0.00  0.00    +0.000 OA
BRANCH  15  16
ATOM     16  C   UNL     1       8.663   9.607  18.515  0.00  0.00    +0.000 C 
BRANCH  16  17
ATOM     17  C   UNL     1       9.475  10.856  18.186  0.00  0.00    +0.000 C 
BRANCH  17  19
ATOM     18  C   UNL     1      11.716  11.600  19.153  0.00  0.00    +0.000 C 
ATOM     19  C   UNL     1      10.263  11.269  19.434  0.00  0.00    +0.000 C 
ENDBRANCH  17  19
ENDBRANCH  16  17
ENDBRANCH  15  16
ENDBRANCH  11  15
ENDBRANCH   1  13
BRANCH   8  20
ATOM     20  C   UNL     1       2.547   6.060  20.119  0.00  0.00    +0.000 C 
BRANCH  20  21
ATOM     21  C   UNL     1       2.001   7.407  19.694  0.00  0.00    +0.000 A 
ATOM     22  C   UNL     1       2.075   7.783  18.330  0.00  0.00    +0.000 A 
ATOM     23  C   UNL     1       1.734   9.062  17.894  0.00  0.00    +0.000 A 
ATOM     24  C   UNL     1       1.268  10.000  18.811  0.00  0.00    +0.000 A 
ATOM     25  C   UNL     1       1.067   9.613  20.137  0.00  0.00    +0.000 A 
ATOM     26  C   UNL     1       1.434   8.331  20.595  0.00  0.00    +0.000 A 
BRANCH  24  27
ATOM     27  C   UNL     1       0.993  11.376  18.329  0.00  0.00    +0.000 C 
ATOM     28  O   UNL     1       1.842  12.251  18.298  0.00  0.00    +0.000 OA
BRANCH  27  29
ATOM     29  O   UNL     1      -0.299  11.595  18.000  0.00  0.00    +0.000 OA
ATOM     30  H   UNL     1      -0.879  10.813  18.037  0.00  0.00    +0.000 HD
ENDBRANCH  27  29
ENDBRANCH  24  27
BRANCH  26  31
ATOM     31  O   UNL     1       1.174   8.233  21.931  0.00  0.00    +0.000 OA
ATOM     32  C   UNL     1       0.399   9.179  22.641  0.00  0.00    +0.000 C 
ENDBRANCH  26  31
ENDBRANCH  20  21
ENDBRANCH   8  20
TORSDOF 10
ENDMDL
MODEL 2
REMARK VINA RESULT:      -7.6      3.425      5.718
REMARK  Name = 
REMARK  13 active torsions:
REMARK  status: ('A' for Active; 'I' for Inactive)
REMARK    1  A    between atoms: C_1  and  C_2
REMARK    2  A    between atoms: C_2  and  C_3
REMARK    3  A    between atoms: C_3  and  C_4
REMARK    4  A    between atoms: C_4  and  O_5
REMARK    5  A    between atoms: O_5  and  C_6
REMARK    6  A    between atoms: N_8  and  C_9
REMARK    7  A    between atoms: C_14  and  C_15
REMARK    8  A    between atoms: N_16  and  C_17
REMARK    9  A    between atoms: C_17  and  C_18
REMARK   10  A    between atoms: C_21  and  C_22
REMARK   11  A    between atoms: C_22  and  O_24
REMARK   12  A    between atoms: C_26  and  O_27
REMARK   13  A    between atoms: O_27  and  C_28
REMARK                            x       y       z     vdW  Elec       q    Type
REMARK                         _______ _______ _______ _____ _____    ______ ____
ROOT
ATOM      1  C   UNL     1       2.928   6.380  18.542  0.00  0.00    +0.000 A 
ATOM      2  C   UNL     1       2.663   5.531  19.615  0.00  0.00    +0.000 A 
ATOM      3  C   UNL     1       1.961   5.978  20.738  0.00  0.00    +0.000 A 
ATOM      4  C   UNL     1       1.475   7.294  20.768  0.00  0.00    +0.000 A 
ATOM      5  C   UNL     1       0.700   8.013  21.708  0.00  0.00    +0.000 A 
ATOM      6  C   UNL     1       0.460   9.272  21.199  0.00  0.00    +0.000 A 
ATOM      7  C   UNL     1      -0.323  10.381  21.809  0.00  0.00    +0.000 C 
ATOM      8  N   UNL     1       1.085   9.347  19.964  0.00  0.00    +0.000 N 
ATOM      9  C   UNL     1       1.749   8.151  19.699  0.00  0.00    +0.000 A 
ATOM     10  C   UNL     1       2.530   7.728  18.601  0.00  0.00    +0.000 A 
ENDROOT
BRANCH   1  13
ATOM     11  C   UNL     1       4.897   5.554  17.267  0.00  0.00    +0.000 C 
ATOM     12  O   UNL     1       5.715   5.413  18.162  0.00  0.00    +0.000 OA
ATOM     13  N   UNL     1       3.586   5.939  17.377  0.00  0.00    +0.000 N 
ATOM     14  H   UNL     1       3.063   5.896  16.513  0.00  0.00    +0.000 HD
BRANCH  11  15
ATOM     15  O   UNL     1       5.201   5.406  15.948  0.00  0.00    +0.000 OA
BRANCH  15  16
ATOM     16  C   UNL     1       6.611   5.434  15.688  0.00  0.00    +0.000 C 
BRANCH  16  17
ATOM     17  C   UNL     1       7.026   4.668  14.436  0.00  0.00    +0.000 C 
BRANCH  17  19
ATOM     18  C   UNL     1       5.979   3.444  12.457  0.00  0.00    +0.000 C 
ATOM     19  C   UNL     1       5.798   3.940  13.879  0.00  0.00    +0.000 C 
ENDBRANCH  17  19
ENDBRANCH  16  17
ENDBRANCH  15  16
ENDBRANCH  11  15
ENDBRANCH   1  13
BRANCH   8  20
ATOM     20  C   UNL     1       0.936  10.456  19.006  0.00  0.00    +0.000 C 
BRANCH  20  21
ATOM     21  C   UNL     1      -0.455  10.663  18.444  0.00  0.00    +0.000 A 
ATOM     22  C   UNL     1      -1.028   9.653  17.632  0.00  0.00    +0.000 A 
ATOM     23  C   UNL     1      -2.235   9.839  16.960  0.00  0.00    +0.000 A 
ATOM     24  C   UNL     1      -2.929  11.037  17.111  0.00  0.00    +0.000 A 
ATOM     25  C   UNL     1      -2.447  11.994  18.005  0.00  0.00    +0.000 A 
ATOM     26  C   UNL     1      -1.214  11.829  18.670  0.00  0.00    +0.000 A 
BRANCH  24  27
ATOM     27  C   UNL     1      -4.167  11.236  16.317  0.00  0.00    +0.000 C 
ATOM     28  O   UNL     1      -5.082  11.953  16.683  0.00  0.00    +0.000 OA
BRANCH  27  29
ATOM     29  O   UNL     1      -4.222  10.492  15.191  0.00  0.00    +0.000 OA
ATOM     30  H   UNL     1      -4.848   9.746  15.210  0.00  0.00    +0.000 HD
ENDBRANCH  27  29
ENDBRANCH  24  27
BRANCH  26  31
ATOM     31  O   UNL     1      -0.962  12.925  19.442  0.00  0.00    +0.000 OA
ATOM     32  C   UNL     1      -0.340  14.095  18.948  0.00  0.00    +0.000 C 
ENDBRANCH  26  31
ENDBRANCH  20  21
ENDBRANCH   8  20
TORSDOF 10
ENDMDL
MODEL 3
REMARK VINA RESULT:      -7.6      3.277      5.211
REMARK  Name = 
REMARK  13 active torsions:
REMARK  status: ('A' for Active; 'I' for Inactive)
REMARK    1  A    between atoms: C_1  and  C_2
REMARK    2  A    between atoms: C_2  and  C_3
REMARK    3  A    between atoms: C_3  and  C_4
REMARK    4  A    between atoms: C_4  and  O_5
REMARK    5  A    between atoms: O_5  and  C_6
REMARK    6  A    between atoms: N_8  and  C_9
REMARK    7  A    between atoms: C_14  and  C_15
REMARK    8  A    between atoms: N_16  and  C_17
REMARK    9  A    between atoms: C_17  and  C_18
REMARK   10  A    between atoms: C_21  and  C_22
REMARK   11  A    between atoms: C_22  and  O_24
REMARK   12  A    between atoms: C_26  and  O_27
REMARK   13  A    between atoms: O_27  and  C_28
REMARK                            x       y       z     vdW  Elec       q    Type
REMARK                         _______ _______ _______ _____ _____    ______ ____
ROOT
ATOM      1  C   UNL     1       4.436   5.228  17.063  0.00  0.00    +0.000 A 
ATOM      2  C   UNL     1       4.157   4.193  17.953  0.00  0.00    +0.000 A 
ATOM      3  C   UNL     1       3.414   4.415  19.115  0.00  0.00    +0.000 A 
ATOM      4  C   UNL     1       2.899   5.695  19.370  0.00  0.00    +0.000 A 
ATOM      5  C   UNL     1       2.082   6.217  20.401  0.00  0.00    +0.000 A 
ATOM      6  C   UNL     1       1.831   7.543  20.123  0.00  0.00    +0.000 A 
ATOM      7  C   UNL     1       1.006   8.509  20.901  0.00  0.00    +0.000 C 
ATOM      8  N   UNL     1       2.490   7.854  18.944  0.00  0.00    +0.000 N 
ATOM      9  C   UNL     1       3.186   6.737  18.487  0.00  0.00    +0.000 A 
ATOM     10  C   UNL     1       4.008   6.535  17.356  0.00  0.00    +0.000 A 
ENDROOT
BRANCH   1  13
ATOM     11  C   UNL     1       6.414   5.422  15.569  0.00  0.00    +0.000 C 
ATOM     12  O   UNL     1       7.228   5.936  16.321  0.00  0.00    +0.000 OA
ATOM     13  N   UNL     1       5.136   5.019  15.859  0.00  0.00    +0.000 N 
ATOM     14  H   UNL     1       4.672   4.528  15.108  0.00  0.00    +0.000 HD
BRANCH  11  15
ATOM     15  O   UNL     1       6.647   5.222  14.243  0.00  0.00    +0.000 OA
BRANCH  15  16
ATOM     16  C   UNL     1       6.206   3.939  13.780  0.00  0.00    +0.000 C 
BRANCH  16  17
ATOM     17  C   UNL     1       6.469   3.690  12.298  0.00  0.00    +0.000 C 
BRANCH  17  19
ATOM     18  C   UNL     1       4.179   3.246  11.263  0.00  0.00    +0.000 C 
ATOM     19  C   UNL     1       5.467   2.646  11.792  0.00  0.00    +0.000 C 
ENDBRANCH  17  19
ENDBRANCH  16  17
ENDBRANCH  15  16
ENDBRANCH  11  15
ENDBRANCH   1  13
BRANCH   8  20
ATOM     20  C   UNL     1       2.345   9.118  18.201  0.00  0.00    +0.000 C 
BRANCH  20  21
ATOM     21  C   UNL     1       0.959   9.729  18.199  0.00  0.00    +0.000 A 
ATOM     22  C   UNL     1      -0.078   9.083  17.482  0.00  0.00    +0.000 A 
ATOM     23  C   UNL     1      -1.334   9.665  17.311  0.00  0.00    +0.000 A 
ATOM     24  C   UNL     1      -1.602  10.903  17.887  0.00  0.00    +0.000 A 
ATOM     25  C   UNL     1      -0.638  11.497  18.703  0.00  0.00    +0.000 A 
ATOM     26  C   UNL     1       0.644  10.932  18.862  0.00  0.00    +0.000 A 
BRANCH  24  27
ATOM     27  C   UNL     1      -2.919  11.533  17.616  0.00  0.00    +0.000 C 
ATOM     28  O   UNL     1      -3.681  11.883  18.500  0.00  0.00    +0.000 OA
BRANCH  27  29
ATOM     29  O   UNL     1      -3.229  11.613  16.304  0.00  0.00    +0.000 OA
ATOM     30  H   UNL     1      -4.141  11.889  16.105  0.00  0.00    +0.000 HD
ENDBRANCH  27  29
ENDBRANCH  24  27
BRANCH  26  31
ATOM     31  O   UNL     1       1.399  11.734  19.667  0.00  0.00    +0.000 OA
ATOM     32  C   UNL     1       0.896  12.899  20.291  0.00  0.00    +0.000 C 
ENDBRANCH  26  31
ENDBRANCH  20  21
ENDBRANCH   8  20
TORSDOF 10
ENDMDL
MODEL 4
REMARK VINA RESULT:      -7.6      1.066      1.166
REMARK  Name = 
REMARK  13 active torsions:
REMARK  status: ('A' for Active; 'I' for Inactive)
REMARK    1  A    between atoms: C_1  and  C_2
REMARK    2  A    between atoms: C_2  and  C_3
REMARK    3  A    between atoms: C_3  and  C_4
REMARK    4  A    between atoms: C_4  and  O_5
REMARK    5  A    between atoms: O_5  and  C_6
REMARK    6  A    between atoms: N_8  and  C_9
REMARK    7  A    between atoms: C_14  and  C_15
REMARK    8  A    between atoms: N_16  and  C_17
REMARK    9  A    between atoms: C_17  and  C_18
REMARK   10  A    between atoms: C_21  and  C_22
REMARK   11  A    between atoms: C_22  and  O_24
REMARK   12  A    between atoms: C_26  and  O_27
REMARK   13  A    between atoms: O_27  and  C_28
REMARK                            x       y       z     vdW  Elec       q    Type
REMARK                         _______ _______ _______ _____ _____    ______ ____
ROOT
ATOM      1  C   UNL     1       6.807   5.932  18.111  0.00  0.00    +0.000 A 
ATOM      2  C   UNL     1       7.004   5.092  17.016  0.00  0.00    +0.000 A 
ATOM      3  C   UNL     1       6.029   4.171  16.623  0.00  0.00    +0.000 A 
ATOM      4  C   UNL     1       4.810   4.120  17.316  0.00  0.00    +0.000 A 
ATOM      5  C   UNL     1       3.630   3.359  17.134  0.00  0.00    +0.000 A 
ATOM      6  C   UNL     1       2.710   3.758  18.080  0.00  0.00    +0.000 A 
ATOM      7  C   UNL     1       1.319   3.266  18.279  0.00  0.00    +0.000 C 
ATOM      8  N   UNL     1       3.305   4.743  18.852  0.00  0.00    +0.000 N 
ATOM      9  C   UNL     1       4.614   4.951  18.420  0.00  0.00    +0.000 A 
ATOM     10  C   UNL     1       5.629   5.823  18.872  0.00  0.00    +0.000 A 
ENDROOT
BRANCH   1  13
ATOM     11  C   UNL     1       7.864   8.180  18.003  0.00  0.00    +0.000 C 
ATOM     12  O   UNL     1       7.114   8.756  17.230  0.00  0.00    +0.000 OA
ATOM     13  N   UNL     1       7.751   6.905  18.494  0.00  0.00    +0.000 N 
ATOM     14  H   UNL     1       8.433   6.666  19.199  0.00  0.00    +0.000 HD
BRANCH  11  15
ATOM     15  O   UNL     1       9.021   8.727  18.466  0.00  0.00    +0.000 OA
BRANCH  15  16
ATOM     16  C   UNL     1       8.903  10.122  18.773  0.00  0.00    +0.000 C 
BRANCH  16  17
ATOM     17  C   UNL     1      10.238  10.856  18.847  0.00  0.00    +0.000 C 
BRANCH  17  19
ATOM     18  C   UNL     1      11.406  12.589  17.382  0.00  0.00    +0.000 C 
ATOM     19  C   UNL     1      10.118  12.169  18.064  0.00  0.00    +0.000 C 
ENDBRANCH  17  19
ENDBRANCH  16  17
ENDBRANCH  15  16
ENDBRANCH  11  15
ENDBRANCH   1  13
BRANCH   8  20
ATOM     20  C   UNL     1       2.613   5.560  19.863  0.00  0.00    +0.000 C 
BRANCH  20  21
ATOM     21  C   UNL     1       2.225   6.959  19.432  0.00  0.00    +0.000 A 
ATOM     22  C   UNL     1       2.472   7.362  18.096  0.00  0.00    +0.000 A 
ATOM     23  C   UNL     1       2.282   8.676  17.672  0.00  0.00    +0.000 A 
ATOM     24  C   UNL     1       1.801   9.626  18.569  0.00  0.00    +0.000 A 
ATOM     25  C   UNL     1       1.431   9.223  19.853  0.00  0.00    +0.000 A 
ATOM     26  C   UNL     1       1.643   7.903  20.302  0.00  0.00    +0.000 A 
BRANCH  24  27
ATOM     27  C   UNL     1       1.689  11.033  18.110  0.00  0.00    +0.000 C 
ATOM     28  O   UNL     1       2.658  11.721  17.839  0.00  0.00    +0.000 OA
BRANCH  27  29
ATOM     29  O   UNL     1       0.424  11.506  18.092  0.00  0.00    +0.000 OA
ATOM     30  H   UNL     1       0.315  12.424  18.396  0.00  0.00    +0.000 HD
ENDBRANCH  27  29
ENDBRANCH  24  27
BRANCH  26  31
ATOM     31  O   UNL     1       1.238   7.793  21.600  0.00  0.00    +0.000 OA
ATOM     32  C   UNL     1       0.749   8.884  22.355  0.00  0.00    +0.000 C 
ENDBRANCH  26  31
ENDBRANCH  20  21
ENDBRANCH   8  20
TORSDOF 10
ENDMDL
MODEL 5
REMARK VINA RESULT:      -7.6      3.239      5.278
REMARK  Name = 
REMARK  13 active torsions:
REMARK  status: ('A' for Active; 'I' for Inactive)
REMARK    1  A    between atoms: C_1  and  C_2
REMARK    2  A    between atoms: C_2  and  C_3
REMARK    3  A    between atoms: C_3  and  C_4
REMARK    4  A    between atoms: C_4  and  O_5
REMARK    5  A    between atoms: O_5  and  C_6
REMARK    6  A    between atoms: N_8  and  C_9
REMARK    7  A    between atoms: C_14  and  C_15
REMARK    8  A    between atoms: N_16  and  C_17
REMARK    9  A    between atoms: C_17  and  C_18
REMARK   10  A    between atoms: C_21  and  C_22
REMARK   11  A    between atoms: C_22  and  O_24
REMARK   12  A    between atoms: C_26  and  O_27
REMARK   13  A    between atoms: O_27  and  C_28
REMARK                            x       y       z     vdW  Elec       q    Type
REMARK                         _______ _______ _______ _____ _____    ______ ____
ROOT
ATOM      1  C   UNL     1       3.979   6.056  17.457  0.00  0.00    +0.000 A 
ATOM      2  C   UNL     1       3.698   4.950  18.258  0.00  0.00    +0.000 A 
ATOM      3  C   UNL     1       2.914   5.068  19.408  0.00  0.00    +0.000 A 
ATOM      4  C   UNL     1       2.361   6.314  19.742  0.00  0.00    +0.000 A 
ATOM      5  C   UNL     1       1.500   6.739  20.781  0.00  0.00    +0.000 A 
ATOM      6  C   UNL     1       1.227   8.077  20.595  0.00  0.00    +0.000 A 
ATOM      7  C   UNL     1       0.356   8.964  21.415  0.00  0.00    +0.000 C 
ATOM      8  N   UNL     1       1.915   8.490  19.465  0.00  0.00    +0.000 N 
ATOM      9  C   UNL     1       2.651   7.426  18.948  0.00  0.00    +0.000 A 
ATOM     10  C   UNL     1       3.512   7.328  17.833  0.00  0.00    +0.000 A 
ENDROOT
BRANCH   1  13
ATOM     11  C   UNL     1       6.062   5.690  16.149  0.00  0.00    +0.000 C 
ATOM     12  O   UNL     1       6.847   5.388  17.034  0.00  0.00    +0.000 OA
ATOM     13  N   UNL     1       4.722   5.953  16.264  0.00  0.00    +0.000 N 
ATOM     14  H   UNL     1       4.244   6.088  15.384  0.00  0.00    +0.000 HD
BRANCH  11  15
ATOM     15  O   UNL     1       6.437   5.886  14.855  0.00  0.00    +0.000 OA
BRANCH  15  16
ATOM     16  C   UNL     1       6.908   4.692  14.217  0.00  0.00    +0.000 C 
BRANCH  16  17
ATOM     17  C   UNL     1       5.810   3.872  13.546  0.00  0.00    +0.000 C 
BRANCH  17  19
ATOM     18  C   UNL     1       5.539   2.238  11.605  0.00  0.00    +0.000 C 
ATOM     19  C   UNL     1       6.315   3.410  12.174  0.00  0.00    +0.000 C 
ENDBRANCH  17  19
ENDBRANCH  16  17
ENDBRANCH  15  16
ENDBRANCH  11  15
ENDBRANCH   1  13
BRANCH   8  20
ATOM     20  C   UNL     1       1.763   9.803  18.814  0.00  0.00    +0.000 C 
BRANCH  20  21
ATOM     21  C   UNL     1       0.346  10.214  18.475  0.00  0.00    +0.000 A 
ATOM     22  C   UNL     1      -0.417   9.404  17.599  0.00  0.00    +0.000 A 
ATOM     23  C   UNL     1      -1.667   9.797  17.124  0.00  0.00    +0.000 A 
ATOM     24  C   UNL     1      -2.213  11.007  17.546  0.00  0.00    +0.000 A 
ATOM     25  C   UNL     1      -1.536  11.760  18.507  0.00  0.00    +0.000 A 
ATOM     26  C   UNL     1      -0.259  11.386  18.973  0.00  0.00    +0.000 A 
BRANCH  24  27
ATOM     27  C   UNL     1      -3.506  11.436  16.959  0.00  0.00    +0.000 C 
ATOM     28  O   UNL     1      -4.502  11.646  17.629  0.00  0.00    +0.000 OA
BRANCH  27  29
ATOM     29  O   UNL     1      -3.502  11.499  15.609  0.00  0.00    +0.000 OA
ATOM     30  H   UNL     1      -4.333  11.799  15.201  0.00  0.00    +0.000 HD
ENDBRANCH  27  29
ENDBRANCH  24  27
BRANCH  26  31
ATOM     31  O   UNL     1       0.190  12.315  19.866  0.00  0.00    +0.000 OA
ATOM     32  C   UNL     1      -0.597  12.812  20.930  0.00  0.00    +0.000 C 
ENDBRANCH  26  31
ENDBRANCH  20  21
ENDBRANCH   8  20
TORSDOF 10
ENDMDL
MODEL 6
REMARK VINA RESULT:      -7.5      1.124      1.347
REMARK  Name = 
REMARK  13 active torsions:
REMARK  status: ('A' for Active; 'I' for Inactive)
REMARK    1  A    between atoms: C_1  and  C_2
REMARK    2  A    between atoms: C_2  and  C_3
REMARK    3  A    between atoms: C_3  and  C_4
REMARK    4  A    between atoms: C_4  and  O_5
REMARK    5  A    between atoms: O_5  and  C_6
REMARK    6  A    between atoms: N_8  and  C_9
REMARK    7  A    between atoms: C_14  and  C_15
REMARK    8  A    between atoms: N_16  and  C_17
REMARK    9  A    between atoms: C_17  and  C_18
REMARK   10  A    between atoms: C_21  and  C_22
REMARK   11  A    between atoms: C_22  and  O_24
REMARK   12  A    between atoms: C_26  and  O_27
REMARK   13  A    between atoms: O_27  and  C_28
REMARK                            x       y       z     vdW  Elec       q    Type
REMARK                         _______ _______ _______ _____ _____    ______ ____
ROOT
ATOM      1  C   UNL     1       6.989   6.067  18.127  0.00  0.00    +0.000 A 
ATOM      2  C   UNL     1       7.224   5.258  17.017  0.00  0.00    +0.000 A 
ATOM      3  C   UNL     1       6.279   4.321  16.589  0.00  0.00    +0.000 A 
ATOM      4  C   UNL     1       5.051   4.224  17.262  0.00  0.00    +0.000 A 
ATOM      5  C   UNL     1       3.894   3.438  17.045  0.00  0.00    +0.000 A 
ATOM      6  C   UNL     1       2.950   3.791  17.985  0.00  0.00    +0.000 A 
ATOM      7  C   UNL     1       1.570   3.260  18.152  0.00  0.00    +0.000 C 
ATOM      8  N   UNL     1       3.509   4.774  18.787  0.00  0.00    +0.000 N 
ATOM      9  C   UNL     1       4.818   5.025  18.381  0.00  0.00    +0.000 A 
ATOM     10  C   UNL     1       5.803   5.912  18.867  0.00  0.00    +0.000 A 
ENDROOT
BRANCH   1  13
ATOM     11  C   UNL     1       7.984   8.346  18.090  0.00  0.00    +0.000 C 
ATOM     12  O   UNL     1       7.227   8.922  17.324  0.00  0.00    +0.000 OA
ATOM     13  N   UNL     1       7.902   7.056  18.545  0.00  0.00    +0.000 N 
ATOM     14  H   UNL     1       8.583   6.817  19.251  0.00  0.00    +0.000 HD
BRANCH  11  15
ATOM     15  O   UNL     1       9.121   8.912  18.579  0.00  0.00    +0.000 OA
BRANCH  15  16
ATOM     16  C   UNL     1       9.239  10.305  18.265  0.00  0.00    +0.000 C 
BRANCH  16  17
ATOM     17  C   UNL     1      10.095  11.094  19.251  0.00  0.00    +0.000 C 
BRANCH  17  19
ATOM     18  C   UNL     1       9.383  12.292  21.388  0.00  0.00    +0.000 C 
ATOM     19  C   UNL     1       9.472  10.973  20.646  0.00  0.00    +0.000 C 
ENDBRANCH  17  19
ENDBRANCH  16  17
ENDBRANCH  15  16
ENDBRANCH  11  15
ENDBRANCH   1  13
BRANCH   8  20
ATOM     20  C   UNL     1       2.781   5.550  19.806  0.00  0.00    +0.000 C 
BRANCH  20  21
ATOM     21  C   UNL     1       2.327   6.933  19.385  0.00  0.00    +0.000 A 
ATOM     22  C   UNL     1       2.631   7.391  18.080  0.00  0.00    +0.000 A 
ATOM     23  C   UNL     1       2.380   8.702  17.677  0.00  0.00    +0.000 A 
ATOM     24  C   UNL     1       1.778   9.590  18.564  0.00  0.00    +0.000 A 
ATOM     25  C   UNL     1       1.354   9.125  19.810  0.00  0.00    +0.000 A 
ATOM     26  C   UNL     1       1.627   7.809  20.238  0.00  0.00    +0.000 A 
BRANCH  24  27
ATOM     27  C   UNL     1       1.601  11.000  18.134  0.00  0.00    +0.000 C 
ATOM     28  O   UNL     1       2.537  11.755  17.935  0.00  0.00    +0.000 OA
BRANCH  27  29
ATOM     29  O   UNL     1       0.311  11.392  18.058  0.00  0.00    +0.000 OA
ATOM     30  H   UNL     1       0.158  12.249  17.622  0.00  0.00    +0.000 HD
ENDBRANCH  27  29
ENDBRANCH  24  27
BRANCH  26  31
ATOM     31  O   UNL     1       1.147   7.634  21.503  0.00  0.00    +0.000 OA
ATOM     32  C   UNL     1       0.209   8.504  22.105  0.00  0.00    +0.000 C 
ENDBRANCH  26  31
ENDBRANCH  20  21
ENDBRANCH   8  20
TORSDOF 10
ENDMDL
MODEL 7
REMARK VINA RESULT:      -7.5      2.988      5.245
REMARK  Name = 
REMARK  13 active torsions:
REMARK  status: ('A' for Active; 'I' for Inactive)
REMARK    1  A    between atoms: C_1  and  C_2
REMARK    2  A    between atoms: C_2  and  C_3
REMARK    3  A    between atoms: C_3  and  C_4
REMARK    4  A    between atoms: C_4  and  O_5
REMARK    5  A    between atoms: O_5  and  C_6
REMARK    6  A    between atoms: N_8  and  C_9
REMARK    7  A    between atoms: C_14  and  C_15
REMARK    8  A    between atoms: N_16  and  C_17
REMARK    9  A    between atoms: C_17  and  C_18
REMARK   10  A    between atoms: C_21  and  C_22
REMARK   11  A    between atoms: C_22  and  O_24
REMARK   12  A    between atoms: C_26  and  O_27
REMARK   13  A    between atoms: O_27  and  C_28
REMARK                            x       y       z     vdW  Elec       q    Type
REMARK                         _______ _______ _______ _____ _____    ______ ____
ROOT
ATOM      1  C   UNL     1       2.902   6.172  18.557  0.00  0.00    +0.000 A 
ATOM      2  C   UNL     1       2.634   5.383  19.674  0.00  0.00    +0.000 A 
ATOM      3  C   UNL     1       1.968   5.904  20.787  0.00  0.00    +0.000 A 
ATOM      4  C   UNL     1       1.521   7.234  20.764  0.00  0.00    +0.000 A 
ATOM      5  C   UNL     1       0.786   8.019  21.684  0.00  0.00    +0.000 A 
ATOM      6  C   UNL     1       0.573   9.258  21.119  0.00  0.00    +0.000 A 
ATOM      7  C   UNL     1      -0.165  10.418  21.691  0.00  0.00    +0.000 C 
ATOM      8  N   UNL     1       1.175   9.257  19.871  0.00  0.00    +0.000 N 
ATOM      9  C   UNL     1       1.798   8.030  19.651  0.00  0.00    +0.000 A 
ATOM     10  C   UNL     1       2.545   7.533  18.560  0.00  0.00    +0.000 A 
ENDROOT
BRANCH   1  13
ATOM     11  C   UNL     1       4.197   4.469  17.290  0.00  0.00    +0.000 C 
ATOM     12  O   UNL     1       4.298   3.582  18.124  0.00  0.00    +0.000 OA
ATOM     13  N   UNL     1       3.522   5.657  17.402  0.00  0.00    +0.000 N 
ATOM     14  H   UNL     1       3.489   6.201  16.552  0.00  0.00    +0.000 HD
BRANCH  11  15
ATOM     15  O   UNL     1       4.828   4.435  16.085  0.00  0.00    +0.000 OA
BRANCH  15  16
ATOM     16  C   UNL     1       5.713   5.543  15.880  0.00  0.00    +0.000 C 
BRANCH  16  17
ATOM     17  C   UNL     1       7.063   5.396  16.576  0.00  0.00    +0.000 C 
BRANCH  17  19
ATOM     18  C   UNL     1       7.770   6.098  18.925  0.00  0.00    +0.000 C 
ATOM     19  C   UNL     1       7.221   6.541  17.583  0.00  0.00    +0.000 C 
ENDBRANCH  17  19
ENDBRANCH  16  17
ENDBRANCH  15  16
ENDBRANCH  11  15
ENDBRANCH   1  13
BRANCH   8  20
ATOM     20  C   UNL     1       1.039  10.324  18.864  0.00  0.00    +0.000 C 
BRANCH  20  21
ATOM     21  C   UNL     1      -0.363  10.569  18.345  0.00  0.00    +0.000 A 
ATOM     22  C   UNL     1      -1.009   9.554  17.597  0.00  0.00    +0.000 A 
ATOM     23  C   UNL     1      -2.232   9.766  16.963  0.00  0.00    +0.000 A 
ATOM     24  C   UNL     1      -2.868  10.999  17.089  0.00  0.00    +0.000 A 
ATOM     25  C   UNL     1      -2.311  11.969  17.925  0.00  0.00    +0.000 A 
ATOM     26  C   UNL     1      -1.062  11.775  18.550  0.00  0.00    +0.000 A 
BRANCH  24  27
ATOM     27  C   UNL     1      -4.126  11.221  16.334  0.00  0.00    +0.000 C 
ATOM     28  O   UNL     1      -5.034  11.920  16.748  0.00  0.00    +0.000 OA
BRANCH  27  29
ATOM     29  O   UNL     1      -4.206  10.518  15.183  0.00  0.00    +0.000 OA
ATOM     30  H   UNL     1      -3.594   9.764  15.108  0.00  0.00    +0.000 HD
ENDBRANCH  27  29
ENDBRANCH  24  27
BRANCH  26  31
ATOM     31  O   UNL     1      -0.734  12.890  19.266  0.00  0.00    +0.000 OA
ATOM     32  C   UNL     1      -0.185  14.054  18.680  0.00  0.00    +0.000 C 
ENDBRANCH  26  31
ENDBRANCH  20  21
ENDBRANCH   8  20
TORSDOF 10
ENDMDL
MODEL 8
REMARK VINA RESULT:      -7.4      2.199      7.227
REMARK  Name = 
REMARK  13 active torsions:
REMARK  status: ('A' for Active; 'I' for Inactive)
REMARK    1  A    between atoms: C_1  and  C_2
REMARK    2  A    between atoms: C_2  and  C_3
REMARK    3  A    between atoms: C_3  and  C_4
REMARK    4  A    between atoms: C_4  and  O_5
REMARK    5  A    between atoms: O_5  and  C_6
REMARK    6  A    between atoms: N_8  and  C_9
REMARK    7  A    between atoms: C_14  and  C_15
REMARK    8  A    between atoms: N_16  and  C_17
REMARK    9  A    between atoms: C_17  and  C_18
REMARK   10  A    between atoms: C_21  and  C_22
REMARK   11  A    between atoms: C_22  and  O_24
REMARK   12  A    between atoms: C_26  and  O_27
REMARK   13  A    between atoms: O_27  and  C_28
REMARK                            x       y       z     vdW  Elec       q    Type
REMARK                         _______ _______ _______ _____ _____    ______ ____
ROOT
ATOM      1  C   UNL     1       2.026   6.556  19.595  0.00  0.00    +0.000 A 
ATOM      2  C   UNL     1       1.493   6.008  20.761  0.00  0.00    +0.000 A 
ATOM      3  C   UNL     1       1.596   4.642  21.034  0.00  0.00    +0.000 A 
ATOM      4  C   UNL     1       2.288   3.810  20.140  0.00  0.00    +0.000 A 
ATOM      5  C   UNL     1       2.610   2.432  20.158  0.00  0.00    +0.000 A 
ATOM      6  C   UNL     1       3.364   2.150  19.039  0.00  0.00    +0.000 A 
ATOM      7  C   UNL     1       3.953   0.846  18.629  0.00  0.00    +0.000 C 
ATOM      8  N   UNL     1       3.503   3.328  18.322  0.00  0.00    +0.000 N 
ATOM      9  C   UNL     1       2.813   4.354  18.965  0.00  0.00    +0.000 A 
ATOM     10  C   UNL     1       2.637   5.718  18.645  0.00  0.00    +0.000 A 
ENDROOT
BRANCH   1  13
ATOM     11  C   UNL     1       1.254   8.886  19.994  0.00  0.00    +0.000 C 
ATOM     12  O   UNL     1       0.596   8.745  21.013  0.00  0.00    +0.000 OA
ATOM     13  N   UNL     1       1.982   7.937  19.323  0.00  0.00    +0.000 N 
ATOM     14  H   UNL     1       2.530   8.296  18.554  0.00  0.00    +0.000 HD
BRANCH  11  15
ATOM     15  O   UNL     1       1.312  10.055  19.299  0.00  0.00    +0.000 OA
BRANCH  15  16
ATOM     16  C   UNL     1       0.362  10.122  18.227  0.00  0.00    +0.000 C 
BRANCH  16  17
ATOM     17  C   UNL     1      -0.924  10.862  18.583  0.00  0.00    +0.000 C 
BRANCH  17  19
ATOM     18  C   UNL     1      -2.233  10.023  16.560  0.00  0.00    +0.000 C 
ATOM     19  C   UNL     1      -2.115  10.045  18.072  0.00  0.00    +0.000 C 
ENDBRANCH  17  19
ENDBRANCH  16  17
ENDBRANCH  15  16
ENDBRANCH  11  15
ENDBRANCH   1  13
BRANCH   8  20
ATOM     20  C   UNL     1       4.379   3.508  17.152  0.00  0.00    +0.000 C 
BRANCH  20  21
ATOM     21  C   UNL     1       5.438   4.582  17.277  0.00  0.00    +0.000 A 
ATOM     22  C   UNL     1       6.029   4.825  18.542  0.00  0.00    +0.000 A 
ATOM     23  C   UNL     1       6.895   5.895  18.762  0.00  0.00    +0.000 A 
ATOM     24  C   UNL     1       7.228   6.739  17.706  0.00  0.00    +0.000 A 
ATOM     25  C   UNL     1       6.759   6.443  16.425  0.00  0.00    +0.000 A 
ATOM     26  C   UNL     1       5.861   5.381  16.195  0.00  0.00    +0.000 A 
BRANCH  24  27
ATOM     27  C   UNL     1       8.085   7.917  17.992  0.00  0.00    +0.000 C 
ATOM     28  O   UNL     1       8.189   8.862  17.230  0.00  0.00    +0.000 OA
BRANCH  27  29
ATOM     29  O   UNL     1       8.797   7.812  19.135  0.00  0.00    +0.000 OA
ATOM     30  H   UNL     1       8.415   7.230  19.816  0.00  0.00    +0.000 HD
ENDBRANCH  27  29
ENDBRANCH  24  27
BRANCH  26  31
ATOM     31  O   UNL     1       5.529   5.344  14.872  0.00  0.00    +0.000 OA
ATOM     32  C   UNL     1       6.029   4.373  13.974  0.00  0.00    +0.000 C 
ENDBRANCH  26  31
ENDBRANCH  20  21
ENDBRANCH   8  20
TORSDOF 10
ENDMDL
MODEL 9
REMARK VINA RESULT:      -7.3      2.685      7.705
REMARK  Name = 
REMARK  13 active torsions:
REMARK  status: ('A' for Active; 'I' for Inactive)
REMARK    1  A    between atoms: C_1  and  C_2
REMARK    2  A    between atoms: C_2  and  C_3
REMARK    3  A    between atoms: C_3  and  C_4
REMARK    4  A    between atoms: C_4  and  O_5
REMARK    5  A    between atoms: O_5  and  C_6
REMARK    6  A    between atoms: N_8  and  C_9
REMARK    7  A    between atoms: C_14  and  C_15
REMARK    8  A    between atoms: N_16  and  C_17
REMARK    9  A    between atoms: C_17  and  C_18
REMARK   10  A    between atoms: C_21  and  C_22
REMARK   11  A    between atoms: C_22  and  O_24
REMARK   12  A    between atoms: C_26  and  O_27
REMARK   13  A    between atoms: O_27  and  C_28
REMARK                            x       y       z     vdW  Elec       q    Type
REMARK                         _______ _______ _______ _____ _____    ______ ____
ROOT
ATOM      1  C   UNL     1       1.886   6.794  19.941  0.00  0.00    +0.000 A 
ATOM      2  C   UNL     1       0.896   6.010  20.529  0.00  0.00    +0.000 A 
ATOM      3  C   UNL     1       1.061   4.632  20.689  0.00  0.00    +0.000 A 
ATOM      4  C   UNL     1       2.266   4.031  20.293  0.00  0.00    +0.000 A 
ATOM      5  C   UNL     1       2.753   2.705  20.373  0.00  0.00    +0.000 A 
ATOM      6  C   UNL     1       4.040   2.687  19.878  0.00  0.00    +0.000 A 
ATOM      7  C   UNL     1       4.972   1.531  19.772  0.00  0.00    +0.000 C 
ATOM      8  N   UNL     1       4.352   3.978  19.481  0.00  0.00    +0.000 N 
ATOM      9  C   UNL     1       3.256   4.812  19.693  0.00  0.00    +0.000 A 
ATOM     10  C   UNL     1       3.058   6.190  19.452  0.00  0.00    +0.000 A 
ENDROOT
BRANCH   1  13
ATOM     11  C   UNL     1       1.115   9.042  20.673  0.00  0.00    +0.000 C 
ATOM     12  O   UNL     1       0.612   8.778  21.755  0.00  0.00    +0.000 OA
ATOM     13  N   UNL     1       1.766   8.193  19.817  0.00  0.00    +0.000 N 
ATOM     14  H   UNL     1       2.189   8.646  19.019  0.00  0.00    +0.000 HD
BRANCH  11  15
ATOM     15  O   UNL     1       1.041  10.273  20.097  0.00  0.00    +0.000 OA
BRANCH  15  16
ATOM     16  C   UNL     1      -0.286  10.624  19.684  0.00  0.00    +0.000 C 
BRANCH  16  17
ATOM     17  C   UNL     1      -0.585  10.309  18.222  0.00  0.00    +0.000 C 
BRANCH  17  19
ATOM     18  C   UNL     1      -2.839  11.506  18.218  0.00  0.00    +0.000 C 
ATOM     19  C   UNL     1      -2.103  10.191  18.047  0.00  0.00    +0.000 C 
ENDBRANCH  17  19
ENDBRANCH  16  17
ENDBRANCH  15  16
ENDBRANCH  11  15
ENDBRANCH   1  13
BRANCH   8  20
ATOM     20  C   UNL     1       5.686   4.434  19.056  0.00  0.00    +0.000 C 
BRANCH  20  21
ATOM     21  C   UNL     1       5.918   4.497  17.560  0.00  0.00    +0.000 A 
ATOM     22  C   UNL     1       5.089   3.735  16.701  0.00  0.00    +0.000 A 
ATOM     23  C   UNL     1       5.340   3.626  15.334  0.00  0.00    +0.000 A 
ATOM     24  C   UNL     1       6.415   4.311  14.775  0.00  0.00    +0.000 A 
ATOM     25  C   UNL     1       7.168   5.168  15.581  0.00  0.00    +0.000 A 
ATOM     26  C   UNL     1       6.941   5.265  16.969  0.00  0.00    +0.000 A 
BRANCH  24  27
ATOM     27  C   UNL     1       6.705   4.108  13.334  0.00  0.00    +0.000 C 
ATOM     28  O   UNL     1       7.385   4.879  12.679  0.00  0.00    +0.000 OA
BRANCH  27  29
ATOM     29  O   UNL     1       6.087   3.034  12.797  0.00  0.00    +0.000 OA
ATOM     30  H   UNL     1       5.185   3.192  12.465  0.00  0.00    +0.000 HD
ENDBRANCH  27  29
ENDBRANCH  24  27
BRANCH  26  31
ATOM     31  O   UNL     1       7.841   6.131  17.518  0.00  0.00    +0.000 OA
ATOM     32  C   UNL     1       7.616   7.524  17.616  0.00  0.00    +0.000 C 
ENDBRANCH  26  31
ENDBRANCH  20  21
ENDBRANCH   8  20
TORSDOF 10
ENDMDL
