MODEL 1
REMARK VINA RESULT:      -7.9      0.000      0.000
REMARK  Name = 
REMARK  11 active torsions:
REMARK  status: ('A' for Active; 'I' for Inactive)
REMARK    1  A    between atoms: C_1  and  C_2
REMARK    2  A    between atoms: N_4  and  C_5
REMARK    3  A    between atoms: C_6  and  C_7
REMARK    4  A    between atoms: C_10  and  C_11
REMARK    5  A    between atoms: C_11  and  N_12
REMARK    6  A    between atoms: C_13  and  C_15
REMARK    7  A    between atoms: C_15  and  O_16
REMARK    8  A    between atoms: O_16  and  C_17
REMARK    9  A    between atoms: C_19  and  C_20
REMARK   10  A    between atoms: C_23  and  C_24
REMARK   11  A    between atoms: C_25  and  C_26
REMARK                            x       y       z     vdW  Elec       q    Type
REMARK                         _______ _______ _______ _____ _____    ______ ____
ROOT
ATOM      1  C   UNL     1       6.006   6.348  16.866  0.00  0.00    +0.000 C 
ENDROOT
BRANCH   1   7
ATOM      2  C   UNL     1       3.361   5.687  19.619  0.00  0.00    +0.000 A 
ATOM      3  C   UNL     1       2.489   6.771  19.384  0.00  0.00    +0.000 A 
ATOM      4  C   UNL     1       1.263   7.069  20.206  0.00  0.00    +0.000 C 
ATOM      5  C   UNL     1       2.786   7.667  18.349  0.00  0.00    +0.000 A 
ATOM      6  C   UNL     1       3.932   7.509  17.577  0.00  0.00    +0.000 A 
ATOM      7  C   UNL     1       4.832   6.456  17.815  0.00  0.00    +0.000 A 
ATOM      8  C   UNL     1       4.572   5.555  18.879  0.00  0.00    +0.000 A 
ATOM      9  C   UNL     1       5.508   4.413  19.185  0.00  0.00    +0.000 C 
BRANCH   2  13
ATOM     10  C   UNL     1       2.072   2.724  21.541  0.00  0.00    +0.000 C 
ATOM     11  C   UNL     1       2.236   3.625  20.345  0.00  0.00    +0.000 C 
ATOM     12  O   UNL     1       1.700   3.364  19.271  0.00  0.00    +0.000 OA
ATOM     13  N   UNL     1       3.057   4.714  20.607  0.00  0.00    +0.000 N 
ATOM     14  H   UNL     1       3.759   4.543  21.314  0.00  0.00    +0.000 HD
ENDBRANCH   2  13
ENDBRANCH   1   7
BRANCH   1  15
ATOM     15  N   UNL     1       6.773   7.572  16.806  0.00  0.00    +0.000 N 
ATOM     16  C   UNL     1       7.737   7.868  17.751  0.00  0.00    +0.000 C 
ATOM     17  O   UNL     1       8.074   7.080  18.635  0.00  0.00    +0.000 OA
ATOM     18  H   UNL     1       6.476   8.289  16.158  0.00  0.00    +0.000 HD
BRANCH  16  19
ATOM     19  C   UNL     1       8.371   9.250  17.614  0.00  0.00    +0.000 C 
BRANCH  19  20
ATOM     20  O   UNL     1       8.838   9.684  18.886  0.00  0.00    +0.000 OA
BRANCH  20  21
ATOM     21  C   UNL     1       9.600  10.826  18.915  0.00  0.00    +0.000 A 
ATOM     22  C   UNL     1      10.222  11.395  17.796  0.00  0.00    +0.000 A 
ATOM     23  C   UNL     1      10.949  12.590  17.903  0.00  0.00    +0.000 A 
ATOM     24  C   UNL     1      11.592  13.208  16.696  0.00  0.00    +0.000 C 
ATOM     25  C   UNL     1      11.060  13.212  19.147  0.00  0.00    +0.000 A 
ATOM     26  C   UNL     1      10.462  12.644  20.272  0.00  0.00    +0.000 A 
ATOM     27  C   UNL     1       9.730  11.451  20.169  0.00  0.00    +0.000 A 
ATOM     28  C   UNL     1       9.105  10.860  21.402  0.00  0.00    +0.000 C 
ENDBRANCH  20  21
ENDBRANCH  19  20
ENDBRANCH  16  19
ENDBRANCH   1  15
TORSDOF 6
ENDMDL
MODEL 2
REMARK VINA RESULT:      -7.9      5.516      8.916
REMARK  Name = 
REMARK  11 active torsions:
REMARK  status: ('A' for Active; 'I' for Inactive)
REMARK    1  A    between atoms: C_1  and  C_2
REMARK    2  A    between atoms: N_4  and  C_5
REMARK    3  A    between atoms: C_6  and  C_7
REMARK    4  A    between atoms: C_10  and  C_11
REMARK    5  A    between atoms: C_11  and  N_12
REMARK    6  A    between atoms: C_13  and  C_15
REMARK    7  A    between atoms: C_15  and  O_16
REMARK    8  A    between atoms: O_16  and  C_17
REMARK    9  A    between atoms: C_19  and  C_20
REMARK   10  A    between atoms: C_23  and  C_24
REMARK   11  A    between atoms: C_25  and  C_26
REMARK                            x       y       z     vdW  Elec       q    Type
REMARK                         _______ _______ _______ _____ _____    ______ ____
ROOT
ATOM      1  C   UNL     1       1.724   8.095  20.070  0.00  0.00    +0.000 C 
ENDROOT
BRANCH   1   7
ATOM      2  C   UNL     1       3.546   5.088  18.440  0.00  0.00    +0.000 A 
ATOM      3  C   UNL     1       4.150   5.735  17.342  0.00  0.00    +0.000 A 
ATOM      4  C   UNL     1       4.974   5.038  16.292  0.00  0.00    +0.000 C 
ATOM      5  C   UNL     1       3.950   7.112  17.173  0.00  0.00    +0.000 A 
ATOM      6  C   UNL     1       3.150   7.829  18.057  0.00  0.00    +0.000 A 
ATOM      7  C   UNL     1       2.511   7.199  19.139  0.00  0.00    +0.000 A 
ATOM      8  C   UNL     1       2.671   5.800  19.312  0.00  0.00    +0.000 A 
ATOM      9  C   UNL     1       2.000   5.070  20.449  0.00  0.00    +0.000 C 
BRANCH   2  13
ATOM     10  C   UNL     1       3.526   1.329  18.448  0.00  0.00    +0.000 C 
ATOM     11  C   UNL     1       3.089   2.708  18.028  0.00  0.00    +0.000 C 
ATOM     12  O   UNL     1       2.225   2.870  17.171  0.00  0.00    +0.000 OA
ATOM     13  N   UNL     1       3.785   3.711  18.690  0.00  0.00    +0.000 N 
ATOM     14  H   UNL     1       4.721   3.451  18.969  0.00  0.00    +0.000 HD
ENDBRANCH   2  13
ENDBRANCH   1   7
BRANCH   1  15
ATOM     15  N   UNL     1       0.992   9.116  19.355  0.00  0.00    +0.000 N 
ATOM     16  C   UNL     1       0.690  10.331  19.939  0.00  0.00    +0.000 C 
ATOM     17  O   UNL     1       1.102  10.662  21.052  0.00  0.00    +0.000 OA
ATOM     18  H   UNL     1       0.555   8.864  18.479  0.00  0.00    +0.000 HD
BRANCH  16  19
ATOM     19  C   UNL     1      -0.189  11.251  19.097  0.00  0.00    +0.000 C 
BRANCH  19  20
ATOM     20  O   UNL     1      -1.559  10.968  19.360  0.00  0.00    +0.000 OA
BRANCH  20  21
ATOM     21  C   UNL     1      -2.427  11.042  18.298  0.00  0.00    +0.000 A 
ATOM     22  C   UNL     1      -2.193  10.472  17.040  0.00  0.00    +0.000 A 
ATOM     23  C   UNL     1      -3.152  10.556  16.019  0.00  0.00    +0.000 A 
ATOM     24  C   UNL     1      -2.907   9.922  14.681  0.00  0.00    +0.000 C 
ATOM     25  C   UNL     1      -4.350  11.229  16.263  0.00  0.00    +0.000 A 
ATOM     26  C   UNL     1      -4.585  11.818  17.505  0.00  0.00    +0.000 A 
ATOM     27  C   UNL     1      -3.631  11.732  18.531  0.00  0.00    +0.000 A 
ATOM     28  C   UNL     1      -3.910  12.385  19.856  0.00  0.00    +0.000 C 
ENDBRANCH  20  21
ENDBRANCH  19  20
ENDBRANCH  16  19
ENDBRANCH   1  15
TORSDOF 6
ENDMDL
MODEL 3
REMARK VINA RESULT:      -7.8      2.658      9.480
REMARK  Name = 
REMARK  11 active torsions:
REMARK  status: ('A' for Active; 'I' for Inactive)
REMARK    1  A    between atoms: C_1  and  C_2
REMARK    2  A    between atoms: N_4  and  C_5
REMARK    3  A    between atoms: C_6  and  C_7
REMARK    4  A    between atoms: C_10  and  C_11
REMARK    5  A    between atoms: C_11  and  N_12
REMARK    6  A    between atoms: C_13  and  C_15
REMARK    7  A    between atoms: C_15  and  O_16
REMARK    8  A    between atoms: O_16  and  C_17
REMARK    9  A    between atoms: C_19  and  C_20
REMARK   10  A    between atoms: C_23  and  C_24
REMARK   11  A    between atoms: C_25  and  C_26
REMARK                            x       y       z     vdW  Elec       q    Type
REMARK                         _______ _______ _______ _____ _____    ______ ____
ROOT
ATOM      1  C   UNL     1       8.563   9.722  17.716  0.00  0.00    +0.000 C 
ENDROOT
BRANCH   1   7
ATOM      2  C   UNL     1       9.139  13.269  19.164  0.00  0.00    +0.000 A 
ATOM      3  C   UNL     1       9.834  12.940  20.347  0.00  0.00    +0.000 A 
ATOM      4  C   UNL     1      10.291  13.944  21.372  0.00  0.00    +0.000 C 
ATOM      5  C   UNL     1      10.091  11.591  20.628  0.00  0.00    +0.000 A 
ATOM      6  C   UNL     1       9.651  10.589  19.771  0.00  0.00    +0.000 A 
ATOM      7  C   UNL     1       8.928  10.891  18.604  0.00  0.00    +0.000 A 
ATOM      8  C   UNL     1       8.625  12.247  18.315  0.00  0.00    +0.000 A 
ATOM      9  C   UNL     1       7.844  12.628  17.082  0.00  0.00    +0.000 C 
BRANCH   2  13
ATOM     10  C   UNL     1       9.390  16.755  17.779  0.00  0.00    +0.000 C 
ATOM     11  C   UNL     1       9.841  15.343  18.046  0.00  0.00    +0.000 C 
ATOM     12  O   UNL     1      10.901  14.916  17.596  0.00  0.00    +0.000 OA
ATOM     13  N   UNL     1       8.925  14.626  18.805  0.00  0.00    +0.000 N 
ATOM     14  H   UNL     1       7.966  14.923  18.687  0.00  0.00    +0.000 HD
ENDBRANCH   2  13
ENDBRANCH   1   7
BRANCH   1  15
ATOM     15  N   UNL     1       8.434   8.490  18.462  0.00  0.00    +0.000 N 
ATOM     16  C   UNL     1       7.828   7.375  17.916  0.00  0.00    +0.000 C 
ATOM     17  O   UNL     1       7.453   7.321  16.744  0.00  0.00    +0.000 OA
ATOM     18  H   UNL     1       8.643   8.507  19.451  0.00  0.00    +0.000 HD
BRANCH  16  19
ATOM     19  C   UNL     1       7.665   6.196  18.872  0.00  0.00    +0.000 C 
BRANCH  19  20
ATOM     20  O   UNL     1       7.254   5.047  18.141  0.00  0.00    +0.000 OA
BRANCH  20  21
ATOM     21  C   UNL     1       5.909   4.769  18.120  0.00  0.00    +0.000 A 
ATOM     22  C   UNL     1       5.041   4.962  19.202  0.00  0.00    +0.000 A 
ATOM     23  C   UNL     1       3.668   4.693  19.085  0.00  0.00    +0.000 A 
ATOM     24  C   UNL     1       2.739   4.925  20.240  0.00  0.00    +0.000 C 
ATOM     25  C   UNL     1       3.169   4.214  17.874  0.00  0.00    +0.000 A 
ATOM     26  C   UNL     1       4.027   3.999  16.795  0.00  0.00    +0.000 A 
ATOM     27  C   UNL     1       5.399   4.271  16.906  0.00  0.00    +0.000 A 
ATOM     28  C   UNL     1       6.299   4.020  15.729  0.00  0.00    +0.000 C 
ENDBRANCH  20  21
ENDBRANCH  19  20
ENDBRANCH  16  19
ENDBRANCH   1  15
TORSDOF 6
ENDMDL
MODEL 4
REMARK VINA RESULT:      -7.6      5.593      8.667
REMARK  Name = 
REMARK  11 active torsions:
REMARK  status: ('A' for Active; 'I' for Inactive)
REMARK    1  A    between atoms: C_1  and  C_2
REMARK    2  A    between atoms: N_4  and  C_5
REMARK    3  A    between atoms: C_6  and  C_7
REMARK    4  A    between atoms: C_10  and  C_11
REMARK    5  A    between atoms: C_11  and  N_12
REMARK    6  A    between atoms: C_13  and  C_15
REMARK    7  A    between atoms: C_15  and  O_16
REMARK    8  A    between atoms: O_16  and  C_17
REMARK    9  A    between atoms: C_19  and  C_20
REMARK   10  A    between atoms: C_23  and  C_24
REMARK   11  A    between atoms: C_25  and  C_26
REMARK                            x       y       z     vdW  Elec       q    Type
REMARK                         _______ _______ _______ _____ _____    ______ ____
ROOT
ATOM      1  C   UNL     1       2.414   9.031  18.003  0.00  0.00    +0.000 C 
ENDROOT
BRANCH   1   7
ATOM      2  C   UNL     1       2.880   5.370  19.183  0.00  0.00    +0.000 A 
ATOM      3  C   UNL     1       2.162   5.411  20.395  0.00  0.00    +0.000 A 
ATOM      4  C   UNL     1       2.031   4.250  21.346  0.00  0.00    +0.000 C 
ATOM      5  C   UNL     1       1.554   6.613  20.782  0.00  0.00    +0.000 A 
ATOM      6  C   UNL     1       1.674   7.756  19.999  0.00  0.00    +0.000 A 
ATOM      7  C   UNL     1       2.413   7.747  18.803  0.00  0.00    +0.000 A 
ATOM      8  C   UNL     1       3.066   6.551  18.407  0.00  0.00    +0.000 A 
ATOM      9  C   UNL     1       3.881   6.488  17.139  0.00  0.00    +0.000 C 
BRANCH   2  13
ATOM     10  C   UNL     1       3.534   2.035  17.576  0.00  0.00    +0.000 C 
ATOM     11  C   UNL     1       2.719   3.239  17.966  0.00  0.00    +0.000 C 
ATOM     12  O   UNL     1       1.550   3.361  17.611  0.00  0.00    +0.000 OA
ATOM     13  N   UNL     1       3.446   4.154  18.717  0.00  0.00    +0.000 N 
ATOM     14  H   UNL     1       4.438   4.154  18.522  0.00  0.00    +0.000 HD
ENDBRANCH   2  13
ENDBRANCH   1   7
BRANCH   1  15
ATOM     15  N   UNL     1       1.253   9.847  18.280  0.00  0.00    +0.000 N 
ATOM     16  C   UNL     1       1.351  11.218  18.423  0.00  0.00    +0.000 C 
ATOM     17  O   UNL     1       2.396  11.840  18.230  0.00  0.00    +0.000 OA
ATOM     18  H   UNL     1       0.393   9.381  18.536  0.00  0.00    +0.000 HD
BRANCH  16  19
ATOM     19  C   UNL     1       0.057  11.918  18.831  0.00  0.00    +0.000 C 
BRANCH  19  20
ATOM     20  O   UNL     1      -0.977  10.952  18.976  0.00  0.00    +0.000 OA
BRANCH  20  21
ATOM     21  C   UNL     1      -2.025  11.021  18.091  0.00  0.00    +0.000 A 
ATOM     22  C   UNL     1      -2.004  10.492  16.793  0.00  0.00    +0.000 A 
ATOM     23  C   UNL     1      -3.134  10.567  15.964  0.00  0.00    +0.000 A 
ATOM     24  C   UNL     1      -3.114   9.976  14.585  0.00  0.00    +0.000 C 
ATOM     25  C   UNL     1      -4.288  11.190  16.440  0.00  0.00    +0.000 A 
ATOM     26  C   UNL     1      -4.314  11.739  17.722  0.00  0.00    +0.000 A 
ATOM     27  C   UNL     1      -3.188  11.662  18.557  0.00  0.00    +0.000 A 
ATOM     28  C   UNL     1      -3.244  12.271  19.930  0.00  0.00    +0.000 C 
ENDBRANCH  20  21
ENDBRANCH  19  20
ENDBRANCH  16  19
ENDBRANCH   1  15
TORSDOF 6
ENDMDL
MODEL 5
REMARK VINA RESULT:      -7.5      5.983      9.947
REMARK  Name = 
REMARK  11 active torsions:
REMARK  status: ('A' for Active; 'I' for Inactive)
REMARK    1  A    between atoms: C_1  and  C_2
REMARK    2  A    between atoms: N_4  and  C_5
REMARK    3  A    between atoms: C_6  and  C_7
REMARK    4  A    between atoms: C_10  and  C_11
REMARK    5  A    between atoms: C_11  and  N_12
REMARK    6  A    between atoms: C_13  and  C_15
REMARK    7  A    between atoms: C_15  and  O_16
REMARK    8  A    between atoms: O_16  and  C_17
REMARK    9  A    between atoms: C_19  and  C_20
REMARK   10  A    between atoms: C_23  and  C_24
REMARK   11  A    between atoms: C_25  and  C_26
REMARK                            x       y       z     vdW  Elec       q    Type
REMARK                         _______ _______ _______ _____ _____    ______ ____
ROOT
ATOM      1  C   UNL     1       0.056  11.107  19.332  0.00  0.00    +0.000 C 
ENDROOT
BRANCH   1   7
ATOM      2  C   UNL     1      -3.641  12.228  19.038  0.00  0.00    +0.000 A 
ATOM      3  C   UNL     1      -4.133  11.224  18.178  0.00  0.00    +0.000 A 
ATOM      4  C   UNL     1      -5.545  11.166  17.658  0.00  0.00    +0.000 C 
ATOM      5  C   UNL     1      -3.256  10.226  17.731  0.00  0.00    +0.000 A 
ATOM      6  C   UNL     1      -1.917  10.234  18.107  0.00  0.00    +0.000 A 
ATOM      7  C   UNL     1      -1.398  11.243  18.936  0.00  0.00    +0.000 A 
ATOM      8  C   UNL     1      -2.258  12.283  19.374  0.00  0.00    +0.000 A 
ATOM      9  C   UNL     1      -1.752  13.397  20.257  0.00  0.00    +0.000 C 
BRANCH   2  13
ATOM     10  C   UNL     1      -6.051  14.208  21.136  0.00  0.00    +0.000 C 
ATOM     11  C   UNL     1      -5.202  13.021  20.764  0.00  0.00    +0.000 C 
ATOM     12  O   UNL     1      -5.142  12.028  21.484  0.00  0.00    +0.000 OA
ATOM     13  N   UNL     1      -4.513  13.212  19.573  0.00  0.00    +0.000 N 
ATOM     14  H   UNL     1      -4.292  14.178  19.373  0.00  0.00    +0.000 HD
ENDBRANCH   2  13
ENDBRANCH   1   7
BRANCH   1  15
ATOM     15  N   UNL     1       0.397   9.750  19.696  0.00  0.00    +0.000 N 
ATOM     16  C   UNL     1       0.946   9.449  20.928  0.00  0.00    +0.000 C 
ATOM     17  O   UNL     1       1.087  10.284  21.822  0.00  0.00    +0.000 OA
ATOM     18  H   UNL     1       0.386   9.045  18.972  0.00  0.00    +0.000 HD
BRANCH  16  19
ATOM     19  C   UNL     1       1.359   7.991  21.111  0.00  0.00    +0.000 C 
BRANCH  19  20
ATOM     20  O   UNL     1       2.034   7.540  19.942  0.00  0.00    +0.000 OA
BRANCH  20  21
ATOM     21  C   UNL     1       2.279   6.193  19.843  0.00  0.00    +0.000 A 
ATOM     22  C   UNL     1       1.801   5.230  20.741  0.00  0.00    +0.000 A 
ATOM     23  C   UNL     1       2.061   3.865  20.544  0.00  0.00    +0.000 A 
ATOM     24  C   UNL     1       1.525   2.836  21.496  0.00  0.00    +0.000 C 
ATOM     25  C   UNL     1       2.819   3.468  19.442  0.00  0.00    +0.000 A 
ATOM     26  C   UNL     1       3.318   4.419  18.552  0.00  0.00    +0.000 A 
ATOM     27  C   UNL     1       3.056   5.785  18.742  0.00  0.00    +0.000 A 
ATOM     28  C   UNL     1       3.616   6.786  17.771  0.00  0.00    +0.000 C 
ENDBRANCH  20  21
ENDBRANCH  19  20
ENDBRANCH  16  19
ENDBRANCH   1  15
TORSDOF 6
ENDMDL
MODEL 6
REMARK VINA RESULT:      -7.5      5.741      8.614
REMARK  Name = 
REMARK  11 active torsions:
REMARK  status: ('A' for Active; 'I' for Inactive)
REMARK    1  A    between atoms: C_1  and  C_2
REMARK    2  A    between atoms: N_4  and  C_5
REMARK    3  A    between atoms: C_6  and  C_7
REMARK    4  A    between atoms: C_10  and  C_11
REMARK    5  A    between atoms: C_11  and  N_12
REMARK    6  A    between atoms: C_13  and  C_15
REMARK    7  A    between atoms: C_15  and  O_16
REMARK    8  A    between atoms: O_16  and  C_17
REMARK    9  A    between atoms: C_19  and  C_20
REMARK   10  A    between atoms: C_23  and  C_24
REMARK   11  A    between atoms: C_25  and  C_26
REMARK                            x       y       z     vdW  Elec       q    Type
REMARK                         _______ _______ _______ _____ _____    ______ ____
ROOT
ATOM      1  C   UNL     1       1.158   7.377  21.074  0.00  0.00    +0.000 C 
ENDROOT
BRANCH   1   7
ATOM      2  C   UNL     1       3.266   4.993  18.864  0.00  0.00    +0.000 A 
ATOM      3  C   UNL     1       3.701   5.899  17.875  0.00  0.00    +0.000 A 
ATOM      4  C   UNL     1       4.544   5.519  16.685  0.00  0.00    +0.000 C 
ATOM      5  C   UNL     1       3.302   7.239  17.961  0.00  0.00    +0.000 A 
ATOM      6  C   UNL     1       2.471   7.670  18.990  0.00  0.00    +0.000 A 
ATOM      7  C   UNL     1       1.998   6.778  19.968  0.00  0.00    +0.000 A 
ATOM      8  C   UNL     1       2.361   5.410  19.883  0.00  0.00    +0.000 A 
ATOM      9  C   UNL     1       1.874   4.406  20.900  0.00  0.00    +0.000 C 
BRANCH   2  13
ATOM     10  C   UNL     1       3.714   1.308  18.271  0.00  0.00    +0.000 C 
ATOM     11  C   UNL     1       3.050   2.654  18.139  0.00  0.00    +0.000 C 
ATOM     12  O   UNL     1       2.053   2.808  17.441  0.00  0.00    +0.000 OA
ATOM     13  N   UNL     1       3.710   3.644  18.856  0.00  0.00    +0.000 N 
ATOM     14  H   UNL     1       4.702   3.487  18.964  0.00  0.00    +0.000 HD
ENDBRANCH   2  13
ENDBRANCH   1   7
BRANCH   1  15
ATOM     15  N   UNL     1       1.170   8.823  21.047  0.00  0.00    +0.000 N 
ATOM     16  C   UNL     1       0.203   9.565  21.697  0.00  0.00    +0.000 C 
ATOM     17  O   UNL     1      -0.661   9.060  22.414  0.00  0.00    +0.000 OA
ATOM     18  H   UNL     1       1.800   9.282  20.403  0.00  0.00    +0.000 HD
BRANCH  16  19
ATOM     19  C   UNL     1       0.288  11.073  21.472  0.00  0.00    +0.000 C 
BRANCH  19  20
ATOM     20  O   UNL     1       0.112  11.355  20.089  0.00  0.00    +0.000 OA
BRANCH  20  21
ATOM     21  C   UNL     1      -1.179  11.453  19.631  0.00  0.00    +0.000 A 
ATOM     22  C   UNL     1      -2.174  12.242  20.222  0.00  0.00    +0.000 A 
ATOM     23  C   UNL     1      -3.460  12.321  19.666  0.00  0.00    +0.000 A 
ATOM     24  C   UNL     1      -4.514  13.188  20.289  0.00  0.00    +0.000 C 
ATOM     25  C   UNL     1      -3.749  11.591  18.513  0.00  0.00    +0.000 A 
ATOM     26  C   UNL     1      -2.773  10.785  17.927  0.00  0.00    +0.000 A 
ATOM     27  C   UNL     1      -1.484  10.707  18.477  0.00  0.00    +0.000 A 
ATOM     28  C   UNL     1      -0.456   9.823  17.827  0.00  0.00    +0.000 C 
ENDBRANCH  20  21
ENDBRANCH  19  20
ENDBRANCH  16  19
ENDBRANCH   1  15
TORSDOF 6
ENDMDL
MODEL 7
REMARK VINA RESULT:      -7.5      4.540      6.887
REMARK  Name = 
REMARK  11 active torsions:
REMARK  status: ('A' for Active; 'I' for Inactive)
REMARK    1  A    between atoms: C_1  and  C_2
REMARK    2  A    between atoms: N_4  and  C_5
REMARK    3  A    between atoms: C_6  and  C_7
REMARK    4  A    between atoms: C_10  and  C_11
REMARK    5  A    between atoms: C_11  and  N_12
REMARK    6  A    between atoms: C_13  and  C_15
REMARK    7  A    between atoms: C_15  and  O_16
REMARK    8  A    between atoms: O_16  and  C_17
REMARK    9  A    between atoms: C_19  and  C_20
REMARK   10  A    between atoms: C_23  and  C_24
REMARK   11  A    between atoms: C_25  and  C_26
REMARK                            x       y       z     vdW  Elec       q    Type
REMARK                         _______ _______ _______ _____ _____    ______ ____
ROOT
ATOM      1  C   UNL     1       1.942   5.661  20.531  0.00  0.00    +0.000 C 
ENDROOT
BRANCH   1   7
ATOM      2  C   UNL     1       1.283   9.387  19.697  0.00  0.00    +0.000 A 
ATOM      3  C   UNL     1       1.970   9.488  18.470  0.00  0.00    +0.000 A 
ATOM      4  C   UNL     1       2.105  10.758  17.671  0.00  0.00    +0.000 C 
ATOM      5  C   UNL     1       2.614   8.353  17.959  0.00  0.00    +0.000 A 
ATOM      6  C   UNL     1       2.599   7.150  18.659  0.00  0.00    +0.000 A 
ATOM      7  C   UNL     1       1.949   7.036  19.899  0.00  0.00    +0.000 A 
ATOM      8  C   UNL     1       1.319   8.180  20.453  0.00  0.00    +0.000 A 
ATOM      9  C   UNL     1       0.615   8.117  21.786  0.00  0.00    +0.000 C 
BRANCH   2  13
ATOM     10  C   UNL     1      -1.309  11.992  20.488  0.00  0.00    +0.000 C 
ATOM     11  C   UNL     1      -0.737  10.785  19.791  0.00  0.00    +0.000 C 
ATOM     12  O   UNL     1      -1.393  10.152  18.970  0.00  0.00    +0.000 OA
ATOM     13  N   UNL     1       0.554  10.492  20.211  0.00  0.00    +0.000 N 
ATOM     14  H   UNL     1       0.755  10.772  21.161  0.00  0.00    +0.000 HD
ENDBRANCH   2  13
ENDBRANCH   1   7
BRANCH   1  15
ATOM     15  N   UNL     1       3.096   4.879  20.148  0.00  0.00    +0.000 N 
ATOM     16  C   UNL     1       2.968   3.716  19.412  0.00  0.00    +0.000 C 
ATOM     17  O   UNL     1       1.894   3.326  18.955  0.00  0.00    +0.000 OA
ATOM     18  H   UNL     1       3.986   5.104  20.570  0.00  0.00    +0.000 HD
BRANCH  16  19
ATOM     19  C   UNL     1       4.268   2.946  19.192  0.00  0.00    +0.000 C 
BRANCH  19  20
ATOM     20  O   UNL     1       5.369   3.843  19.278  0.00  0.00    +0.000 OA
BRANCH  20  21
ATOM     21  C   UNL     1       5.839   4.369  18.100  0.00  0.00    +0.000 A 
ATOM     22  C   UNL     1       5.378   4.007  16.828  0.00  0.00    +0.000 A 
ATOM     23  C   UNL     1       5.882   4.625  15.673  0.00  0.00    +0.000 A 
ATOM     24  C   UNL     1       5.366   4.250  14.315  0.00  0.00    +0.000 C 
ATOM     25  C   UNL     1       6.865   5.606  15.799  0.00  0.00    +0.000 A 
ATOM     26  C   UNL     1       7.347   5.961  17.059  0.00  0.00    +0.000 A 
ATOM     27  C   UNL     1       6.843   5.349  18.217  0.00  0.00    +0.000 A 
ATOM     28  C   UNL     1       7.389   5.747  19.560  0.00  0.00    +0.000 C 
ENDBRANCH  20  21
ENDBRANCH  19  20
ENDBRANCH  16  19
ENDBRANCH   1  15
TORSDOF 6
ENDMDL
MODEL 8
REMARK VINA RESULT:      -7.5      2.802      9.556
REMARK  Name = 
REMARK  11 active torsions:
REMARK  status: ('A' for Active; 'I' for Inactive)
REMARK    1  A    between atoms: C_1  and  C_2
REMARK    2  A    between atoms: N_4  and  C_5
REMARK    3  A    between atoms: C_6  and  C_7
REMARK    4  A    between atoms: C_10  and  C_11
REMARK    5  A    between atoms: C_11  and  N_12
REMARK    6  A    between atoms: C_13  and  C_15
REMARK    7  A    between atoms: C_15  and  O_16
REMARK    8  A    between atoms: O_16  and  C_17
REMARK    9  A    between atoms: C_19  and  C_20
REMARK   10  A    between atoms: C_23  and  C_24
REMARK   11  A    between atoms: C_25  and  C_26
REMARK                            x       y       z     vdW  Elec       q    Type
REMARK                         _______ _______ _______ _____ _____    ______ ____
ROOT
ATOM      1  C   UNL     1       8.060  10.003  17.701  0.00  0.00    +0.000 C 
ENDROOT
BRANCH   1   7
ATOM      2  C   UNL     1       9.782  13.388  18.465  0.00  0.00    +0.000 A 
ATOM      3  C   UNL     1      10.818  12.949  19.314  0.00  0.00    +0.000 A 
ATOM      4  C   UNL     1      11.815  13.859  19.982  0.00  0.00    +0.000 C 
ATOM      5  C   UNL     1      10.924  11.582  19.603  0.00  0.00    +0.000 A 
ATOM      6  C   UNL     1      10.009  10.672  19.083  0.00  0.00    +0.000 A 
ATOM      7  C   UNL     1       8.948  11.092  18.262  0.00  0.00    +0.000 A 
ATOM      8  C   UNL     1       8.801  12.474  17.983  0.00  0.00    +0.000 A 
ATOM      9  C   UNL     1       7.675  12.982  17.116  0.00  0.00    +0.000 C 
BRANCH   2  13
ATOM     10  C   UNL     1       9.034  17.067  18.251  0.00  0.00    +0.000 C 
ATOM     11  C   UNL     1       8.980  15.682  18.843  0.00  0.00    +0.000 C 
ATOM     12  O   UNL     1       8.386  15.460  19.893  0.00  0.00    +0.000 OA
ATOM     13  N   UNL     1       9.686  14.754  18.087  0.00  0.00    +0.000 N 
ATOM     14  H   UNL     1      10.464  15.143  17.573  0.00  0.00    +0.000 HD
ENDBRANCH   2  13
ENDBRANCH   1   7
BRANCH   1  15
ATOM     15  N   UNL     1       8.316   8.720  18.316  0.00  0.00    +0.000 N 
ATOM     16  C   UNL     1       7.658   7.577  17.902  0.00  0.00    +0.000 C 
ATOM     17  O   UNL     1       6.898   7.553  16.934  0.00  0.00    +0.000 OA
ATOM     18  H   UNL     1       8.858   8.699  19.169  0.00  0.00    +0.000 HD
BRANCH  16  19
ATOM     19  C   UNL     1       7.951   6.328  18.730  0.00  0.00    +0.000 C 
BRANCH  19  20
ATOM     20  O   UNL     1       7.733   5.170  17.933  0.00  0.00    +0.000 OA
BRANCH  20  21
ATOM     21  C   UNL     1       6.442   4.713  17.836  0.00  0.00    +0.000 A 
ATOM     22  C   UNL     1       5.561   4.583  18.918  0.00  0.00    +0.000 A 
ATOM     23  C   UNL     1       4.241   4.148  18.727  0.00  0.00    +0.000 A 
ATOM     24  C   UNL     1       3.295   4.035  19.887  0.00  0.00    +0.000 C 
ATOM     25  C   UNL     1       3.807   3.830  17.440  0.00  0.00    +0.000 A 
ATOM     26  C   UNL     1       4.681   3.937  16.357  0.00  0.00    +0.000 A 
ATOM     27  C   UNL     1       6.001   4.376  16.543  0.00  0.00    +0.000 A 
ATOM     28  C   UNL     1       6.921   4.471  15.358  0.00  0.00    +0.000 C 
ENDBRANCH  20  21
ENDBRANCH  19  20
ENDBRANCH  16  19
ENDBRANCH   1  15
TORSDOF 6
ENDMDL
MODEL 9
REMARK VINA RESULT:      -7.5      4.360      7.351
REMARK  Name = 
REMARK  11 active torsions:
REMARK  status: ('A' for Active; 'I' for Inactive)
REMARK    1  A    between atoms: C_1  and  C_2
REMARK    2  A    between atoms: N_4  and  C_5
REMARK    3  A    between atoms: C_6  and  C_7
REMARK    4  A    between atoms: C_10  and  C_11
REMARK    5  A    between atoms: C_11  and  N_12
REMARK    6  A    between atoms: C_13  and  C_15
REMARK    7  A    between atoms: C_15  and  O_16
REMARK    8  A    between atoms: O_16  and  C_17
REMARK    9  A    between atoms: C_19  and  C_20
REMARK   10  A    between atoms: C_23  and  C_24
REMARK   11  A    between atoms: C_25  and  C_26
REMARK                            x       y       z     vdW  Elec       q    Type
REMARK                         _______ _______ _______ _____ _____    ______ ____
ROOT
ATOM      1  C   UNL     1       1.543   5.875  21.014  0.00  0.00    +0.000 C 
ENDROOT
BRANCH   1   7
ATOM      2  C   UNL     1       0.899   9.471  19.723  0.00  0.00    +0.000 A 
ATOM      3  C   UNL     1       1.770   9.491  18.613  0.00  0.00    +0.000 A 
ATOM      4  C   UNL     1       1.986  10.687  17.724  0.00  0.00    +0.000 C 
ATOM      5  C   UNL     1       2.525   8.347  18.324  0.00  0.00    +0.000 A 
ATOM      6  C   UNL     1       2.439   7.215  19.128  0.00  0.00    +0.000 A 
ATOM      7  C   UNL     1       1.604   7.184  20.258  0.00  0.00    +0.000 A 
ATOM      8  C   UNL     1       0.855   8.342  20.591  0.00  0.00    +0.000 A 
ATOM      9  C   UNL     1      -0.050   8.368  21.798  0.00  0.00    +0.000 C 
BRANCH   2  13
ATOM     10  C   UNL     1      -0.570  12.712  20.936  0.00  0.00    +0.000 C 
ATOM     11  C   UNL     1       0.485  11.647  20.789  0.00  0.00    +0.000 C 
ATOM     12  O   UNL     1       1.592  11.771  21.306  0.00  0.00    +0.000 OA
ATOM     13  N   UNL     1       0.061  10.582  20.005  0.00  0.00    +0.000 N 
ATOM     14  H   UNL     1      -0.624  10.830  19.305  0.00  0.00    +0.000 HD
ENDBRANCH   2  13
ENDBRANCH   1   7
BRANCH   1  15
ATOM     15  N   UNL     1       2.716   5.061  20.789  0.00  0.00    +0.000 N 
ATOM     16  C   UNL     1       2.615   3.715  20.491  0.00  0.00    +0.000 C 
ATOM     17  O   UNL     1       1.538   3.149  20.300  0.00  0.00    +0.000 OA
ATOM     18  H   UNL     1       3.619   5.452  21.021  0.00  0.00    +0.000 HD
BRANCH  16  19
ATOM     19  C   UNL     1       3.946   2.973  20.401  0.00  0.00    +0.000 C 
BRANCH  19  20
ATOM     20  O   UNL     1       4.331   2.855  19.037  0.00  0.00    +0.000 OA
BRANCH  20  21
ATOM     21  C   UNL     1       4.841   3.978  18.433  0.00  0.00    +0.000 A 
ATOM     22  C   UNL     1       6.005   4.641  18.843  0.00  0.00    +0.000 A 
ATOM     23  C   UNL     1       6.484   5.759  18.144  0.00  0.00    +0.000 A 
ATOM     24  C   UNL     1       7.746   6.450  18.572  0.00  0.00    +0.000 C 
ATOM     25  C   UNL     1       5.780   6.221  17.032  0.00  0.00    +0.000 A 
ATOM     26  C   UNL     1       4.608   5.582  16.627  0.00  0.00    +0.000 A 
ATOM     27  C   UNL     1       4.128   4.460  17.320  0.00  0.00    +0.000 A 
ATOM     28  C   UNL     1       2.857   3.798  16.864  0.00  0.00    +0.000 C 
ENDBRANCH  20  21
ENDBRANCH  19  20
ENDBRANCH  16  19
ENDBRANCH   1  15
TORSDOF 6
ENDMDL
