MODEL 1
REMARK VINA RESULT:      -8.3      0.000      0.000
REMARK  Name = 
REMARK  5 active torsions:
REMARK  status: ('A' for Active; 'I' for Inactive)
REMARK    1  A    between atoms: C_1  and  C_2
REMARK    2  A    between atoms: C_2  and  N_3
REMARK    3  A    between atoms: C_7  and  C_8
REMARK    4  A    between atoms: C_11  and  C_12
REMARK    5  A    between atoms: C_16  and  N_17
REMARK                            x       y       z     vdW  Elec       q    Type
REMARK                         _______ _______ _______ _____ _____    ______ ____
ROOT
ATOM      1  C   UNL     1      -1.894  11.544  18.789  0.00  0.00    +0.000 A 
ATOM      2  C   UNL     1      -1.299  10.266  18.889  0.00  0.00    +0.000 A 
ATOM      3  C   UNL     1       0.112  10.211  18.776  0.00  0.00    +0.000 A 
ATOM      4  C   UNL     1       1.158   9.239  18.543  0.00  0.00    +0.000 A 
ATOM      5  N   UNL     1       1.922   9.810  17.572  0.00  0.00    +0.000 NA
ATOM      6  N   UNL     1       1.982  11.062  18.057  0.00  0.00    +0.000 N 
ATOM      7  C   UNL     1       0.760  11.425  18.538  0.00  0.00    +0.000 A 
ATOM      8  C   UNL     1       0.173  12.656  18.699  0.00  0.00    +0.000 A 
ATOM      9  N   UNL     1      -1.169  12.699  18.798  0.00  0.00    +0.000 NA
ATOM     10  H   UNL     1       2.805  11.615  17.863  0.00  0.00    +0.000 HD
ENDROOT
BRANCH   1  15
ATOM     11  N   UNL     1      -5.611  12.389  19.100  0.00  0.00    +0.000 N 
ATOM     12  C   UNL     1      -5.969  12.107  17.801  0.00  0.00    +0.000 A 
ATOM     13  N   UNL     1      -5.158  11.683  16.898  0.00  0.00    +0.000 NA
ATOM     14  C   UNL     1      -3.848  11.522  17.274  0.00  0.00    +0.000 A 
ATOM     15  C   UNL     1      -3.335  11.764  18.496  0.00  0.00    +0.000 A 
ATOM     16  C   UNL     1      -4.302  12.241  19.512  0.00  0.00    +0.000 A 
ATOM     17  O   UNL     1      -3.936  12.512  20.646  0.00  0.00    +0.000 OA
BRANCH  11  19
ATOM     18  C   UNL     1      -7.336  11.880  20.758  0.00  0.00    +0.000 C 
ATOM     19  C   UNL     1      -6.582  12.970  20.012  0.00  0.00    +0.000 C 
ENDBRANCH  11  19
ENDBRANCH   1  15
BRANCH   4  20
ATOM     20  C   UNL     1       2.016   8.380  19.428  0.00  0.00    +0.000 A 
ATOM     21  C   UNL     1       1.440   8.165  20.684  0.00  0.00    +0.000 A 
ATOM     22  C   UNL     1       1.289   6.856  21.114  0.00  0.00    +0.000 A 
ATOM     23  C   UNL     1       1.843   5.829  20.360  0.00  0.00    +0.000 A 
ATOM     24  C   UNL     1       2.610   6.104  19.225  0.00  0.00    +0.000 A 
ATOM     25  N   UNL     1       2.679   7.377  18.752  0.00  0.00    +0.000 NA
BRANCH  24  26
ATOM     26  N   UNL     1       3.151   5.048  18.508  0.00  0.00    +0.000 N 
ATOM     27  C   UNL     1       4.113   5.257  17.411  0.00  0.00    +0.000 C 
ATOM     28  C   UNL     1       5.147   4.107  17.422  0.00  0.00    +0.000 C 
ATOM     29  N   UNL     1       4.532   2.767  17.344  0.00  0.00    +0.000 NA
ATOM     30  C   UNL     1       3.491   2.630  18.388  0.00  0.00    +0.000 C 
ATOM     31  C   UNL     1       2.437   3.773  18.393  0.00  0.00    +0.000 C 
ATOM     32  H   UNL     1       5.254   2.064  17.501  0.00  0.00    +0.000 HD
ENDBRANCH  24  26
ENDBRANCH   4  20
TORSDOF 4
ENDMDL
MODEL 2
REMARK VINA RESULT:      -8.1      0.792      1.126
REMARK  Name = 
REMARK  5 active torsions:
REMARK  status: ('A' for Active; 'I' for Inactive)
REMARK    1  A    between atoms: C_1  and  C_2
REMARK    2  A    between atoms: C_2  and  N_3
REMARK    3  A    between atoms: C_7  and  C_8
REMARK    4  A    between atoms: C_11  and  C_12
REMARK    5  A    between atoms: C_16  and  N_17
REMARK                            x       y       z     vdW  Elec       q    Type
REMARK                         _______ _______ _______ _____ _____    ______ ____
ROOT
ATOM      1  C   UNL     1      -1.589  11.415  18.774  0.00  0.00    +0.000 A 
ATOM      2  C   UNL     1      -1.074  10.112  18.967  0.00  0.00    +0.000 A 
ATOM      3  C   UNL     1       0.324   9.952  18.811  0.00  0.00    +0.000 A 
ATOM      4  C   UNL     1       1.296   8.896  18.629  0.00  0.00    +0.000 A 
ATOM      5  N   UNL     1       2.055   9.328  17.586  0.00  0.00    +0.000 NA
ATOM      6  N   UNL     1       2.216  10.609  17.957  0.00  0.00    +0.000 N 
ATOM      7  C   UNL     1       1.039  11.094  18.445  0.00  0.00    +0.000 A 
ATOM      8  C   UNL     1       0.540  12.372  18.517  0.00  0.00    +0.000 A 
ATOM      9  N   UNL     1      -0.791  12.514  18.657  0.00  0.00    +0.000 NA
ATOM     10  H   UNL     1       3.064  11.087  17.686  0.00  0.00    +0.000 HD
ENDROOT
BRANCH   1  15
ATOM     11  N   UNL     1      -5.240  12.490  19.151  0.00  0.00    +0.000 N 
ATOM     12  C   UNL     1      -5.654  12.172  17.877  0.00  0.00    +0.000 A 
ATOM     13  N   UNL     1      -4.897  11.659  16.973  0.00  0.00    +0.000 NA
ATOM     14  C   UNL     1      -3.588  11.439  17.318  0.00  0.00    +0.000 A 
ATOM     15  C   UNL     1      -3.023  11.705  18.512  0.00  0.00    +0.000 A 
ATOM     16  C   UNL     1      -3.929  12.284  19.531  0.00  0.00    +0.000 A 
ATOM     17  O   UNL     1      -3.513  12.585  20.640  0.00  0.00    +0.000 OA
BRANCH  11  19
ATOM     18  C   UNL     1      -7.062  12.168  20.750  0.00  0.00    +0.000 C 
ATOM     19  C   UNL     1      -6.146  13.169  20.061  0.00  0.00    +0.000 C 
ENDBRANCH  11  19
ENDBRANCH   1  15
BRANCH   4  20
ATOM     20  C   UNL     1       2.131   8.059  19.557  0.00  0.00    +0.000 A 
ATOM     21  C   UNL     1       1.381   7.513  20.604  0.00  0.00    +0.000 A 
ATOM     22  C   UNL     1       1.441   6.142  20.798  0.00  0.00    +0.000 A 
ATOM     23  C   UNL     1       2.342   5.392  20.053  0.00  0.00    +0.000 A 
ATOM     24  C   UNL     1       3.238   6.008  19.175  0.00  0.00    +0.000 A 
ATOM     25  N   UNL     1       3.117   7.338  18.916  0.00  0.00    +0.000 NA
BRANCH  24  26
ATOM     26  N   UNL     1       4.127   5.222  18.460  0.00  0.00    +0.000 N 
ATOM     27  C   UNL     1       3.673   4.214  17.485  0.00  0.00    +0.000 C 
ATOM     28  C   UNL     1       4.670   4.172  16.304  0.00  0.00    +0.000 C 
ATOM     29  N   UNL     1       6.063   3.919  16.722  0.00  0.00    +0.000 NA
ATOM     30  C   UNL     1       6.451   4.877  17.783  0.00  0.00    +0.000 C 
ATOM     31  C   UNL     1       5.466   4.934  18.983  0.00  0.00    +0.000 C 
ATOM     32  H   UNL     1       6.677   4.048  15.918  0.00  0.00    +0.000 HD
ENDBRANCH  24  26
ENDBRANCH   4  20
TORSDOF 4
ENDMDL
MODEL 3
REMARK VINA RESULT:      -8.1      1.431      2.058
REMARK  Name = 
REMARK  5 active torsions:
REMARK  status: ('A' for Active; 'I' for Inactive)
REMARK    1  A    between atoms: C_1  and  C_2
REMARK    2  A    between atoms: C_2  and  N_3
REMARK    3  A    between atoms: C_7  and  C_8
REMARK    4  A    between atoms: C_11  and  C_12
REMARK    5  A    between atoms: C_16  and  N_17
REMARK                            x       y       z     vdW  Elec       q    Type
REMARK                         _______ _______ _______ _____ _____    ______ ____
ROOT
ATOM      1  C   UNL     1      -0.977  11.363  19.442  0.00  0.00    +0.000 A 
ATOM      2  C   UNL     1      -0.626  10.009  19.647  0.00  0.00    +0.000 A 
ATOM      3  C   UNL     1       0.658   9.610  19.201  0.00  0.00    +0.000 A 
ATOM      4  C   UNL     1       1.395   8.398  18.917  0.00  0.00    +0.000 A 
ATOM      5  N   UNL     1       1.942   8.629  17.692  0.00  0.00    +0.000 NA
ATOM      6  N   UNL     1       2.370   9.888  17.885  0.00  0.00    +0.000 N 
ATOM      7  C   UNL     1       1.424  10.592  18.570  0.00  0.00    +0.000 A 
ATOM      8  C   UNL     1       1.147  11.937  18.620  0.00  0.00    +0.000 A 
ATOM      9  N   UNL     1      -0.078  12.305  19.038  0.00  0.00    +0.000 NA
ATOM     10  H   UNL     1       3.190  10.201  17.386  0.00  0.00    +0.000 HD
ENDROOT
BRANCH   1  15
ATOM     11  N   UNL     1      -4.632  12.097  18.586  0.00  0.00    +0.000 N 
ATOM     12  C   UNL     1      -4.916  12.890  19.675  0.00  0.00    +0.000 A 
ATOM     13  N   UNL     1      -4.070  13.194  20.595  0.00  0.00    +0.000 NA
ATOM     14  C   UNL     1      -2.809  12.668  20.469  0.00  0.00    +0.000 A 
ATOM     15  C   UNL     1      -2.374  11.868  19.476  0.00  0.00    +0.000 A 
ATOM     16  C   UNL     1      -3.374  11.549  18.430  0.00  0.00    +0.000 A 
ATOM     17  O   UNL     1      -3.091  10.813  17.497  0.00  0.00    +0.000 OA
BRANCH  11  19
ATOM     18  C   UNL     1      -6.811  11.002  18.399  0.00  0.00    +0.000 C 
ATOM     19  C   UNL     1      -5.690  11.722  17.664  0.00  0.00    +0.000 C 
ENDBRANCH  11  19
ENDBRANCH   1  15
BRANCH   4  20
ATOM     20  C   UNL     1       2.295   7.499  19.717  0.00  0.00    +0.000 A 
ATOM     21  C   UNL     1       1.601   6.789  20.701  0.00  0.00    +0.000 A 
ATOM     22  C   UNL     1       1.733   5.409  20.721  0.00  0.00    +0.000 A 
ATOM     23  C   UNL     1       2.652   4.806  19.872  0.00  0.00    +0.000 A 
ATOM     24  C   UNL     1       3.492   5.572  19.060  0.00  0.00    +0.000 A 
ATOM     25  N   UNL     1       3.299   6.916  18.972  0.00  0.00    +0.000 NA
BRANCH  24  26
ATOM     26  N   UNL     1       4.401   4.929  18.235  0.00  0.00    +0.000 N 
ATOM     27  C   UNL     1       3.974   4.119  17.080  0.00  0.00    +0.000 C 
ATOM     28  C   UNL     1       5.002   4.293  15.937  0.00  0.00    +0.000 C 
ATOM     29  N   UNL     1       6.384   3.963  16.337  0.00  0.00    +0.000 NA
ATOM     30  C   UNL     1       6.742   4.708  17.566  0.00  0.00    +0.000 C 
ATOM     31  C   UNL     1       5.726   4.544  18.731  0.00  0.00    +0.000 C 
ATOM     32  H   UNL     1       7.018   4.236  15.587  0.00  0.00    +0.000 HD
ENDBRANCH  24  26
ENDBRANCH   4  20
TORSDOF 4
ENDMDL
MODEL 4
REMARK VINA RESULT:      -8.0      1.194      1.738
REMARK  Name = 
REMARK  5 active torsions:
REMARK  status: ('A' for Active; 'I' for Inactive)
REMARK    1  A    between atoms: C_1  and  C_2
REMARK    2  A    between atoms: C_2  and  N_3
REMARK    3  A    between atoms: C_7  and  C_8
REMARK    4  A    between atoms: C_11  and  C_12
REMARK    5  A    between atoms: C_16  and  N_17
REMARK                            x       y       z     vdW  Elec       q    Type
REMARK                         _______ _______ _______ _____ _____    ______ ____
ROOT
ATOM      1  C   UNL     1      -1.383  11.734  19.490  0.00  0.00    +0.000 A 
ATOM      2  C   UNL     1      -0.924  10.398  19.551  0.00  0.00    +0.000 A 
ATOM      3  C   UNL     1       0.397  10.159  19.101  0.00  0.00    +0.000 A 
ATOM      4  C   UNL     1       1.238   9.051  18.703  0.00  0.00    +0.000 A 
ATOM      5  N   UNL     1       1.788   9.465  17.528  0.00  0.00    +0.000 NA
ATOM      6  N   UNL     1       2.105  10.724  17.875  0.00  0.00    +0.000 N 
ATOM      7  C   UNL     1       1.091  11.266  18.608  0.00  0.00    +0.000 A 
ATOM      8  C   UNL     1       0.701  12.568  18.802  0.00  0.00    +0.000 A 
ATOM      9  N   UNL     1      -0.559  12.786  19.222  0.00  0.00    +0.000 NA
ATOM     10  H   UNL     1       2.907  11.158  17.439  0.00  0.00    +0.000 HD
ENDROOT
BRANCH   1  15
ATOM     11  N   UNL     1      -5.081  12.215  18.640  0.00  0.00    +0.000 N 
ATOM     12  C   UNL     1      -5.438  12.907  19.775  0.00  0.00    +0.000 A 
ATOM     13  N   UNL     1      -4.627  13.219  20.723  0.00  0.00    +0.000 NA
ATOM     14  C   UNL     1      -3.326  12.809  20.579  0.00  0.00    +0.000 A 
ATOM     15  C   UNL     1      -2.819  12.116  19.541  0.00  0.00    +0.000 A 
ATOM     16  C   UNL     1      -3.781  11.785  18.464  0.00  0.00    +0.000 A 
ATOM     17  O   UNL     1      -3.431  11.139  17.488  0.00  0.00    +0.000 OA
BRANCH  11  19
ATOM     18  C   UNL     1      -6.715  13.037  17.016  0.00  0.00    +0.000 C 
ATOM     19  C   UNL     1      -6.098  11.816  17.682  0.00  0.00    +0.000 C 
ENDBRANCH  11  19
ENDBRANCH   1  15
BRANCH   4  20
ATOM     20  C   UNL     1       2.194   8.141  19.421  0.00  0.00    +0.000 A 
ATOM     21  C   UNL     1       1.625   7.560  20.558  0.00  0.00    +0.000 A 
ATOM     22  C   UNL     1       1.665   6.178  20.671  0.00  0.00    +0.000 A 
ATOM     23  C   UNL     1       2.389   5.446  19.739  0.00  0.00    +0.000 A 
ATOM     24  C   UNL     1       3.135   6.084  18.744  0.00  0.00    +0.000 A 
ATOM     25  N   UNL     1       3.021   7.429  18.578  0.00  0.00    +0.000 NA
BRANCH  24  26
ATOM     26  N   UNL     1       3.851   5.313  17.841  0.00  0.00    +0.000 N 
ATOM     27  C   UNL     1       4.854   5.898  16.933  0.00  0.00    +0.000 C 
ATOM     28  C   UNL     1       6.018   4.895  16.757  0.00  0.00    +0.000 C 
ATOM     29  N   UNL     1       5.579   3.568  16.283  0.00  0.00    +0.000 NA
ATOM     30  C   UNL     1       4.492   3.058  17.150  0.00  0.00    +0.000 C 
ATOM     31  C   UNL     1       3.309   4.047  17.338  0.00  0.00    +0.000 C 
ATOM     32  H   UNL     1       6.369   2.924  16.328  0.00  0.00    +0.000 HD
ENDBRANCH  24  26
ENDBRANCH   4  20
TORSDOF 4
ENDMDL
MODEL 5
REMARK VINA RESULT:      -7.9      2.403      3.018
REMARK  Name = 
REMARK  5 active torsions:
REMARK  status: ('A' for Active; 'I' for Inactive)
REMARK    1  A    between atoms: C_1  and  C_2
REMARK    2  A    between atoms: C_2  and  N_3
REMARK    3  A    between atoms: C_7  and  C_8
REMARK    4  A    between atoms: C_11  and  C_12
REMARK    5  A    between atoms: C_16  and  N_17
REMARK                            x       y       z     vdW  Elec       q    Type
REMARK                         _______ _______ _______ _____ _____    ______ ____
ROOT
ATOM      1  C   UNL     1      -0.317  11.355  20.332  0.00  0.00    +0.000 A 
ATOM      2  C   UNL     1      -0.051   9.970  20.420  0.00  0.00    +0.000 A 
ATOM      3  C   UNL     1       0.981   9.467  19.592  0.00  0.00    +0.000 A 
ATOM      4  C   UNL     1       1.471   8.200  19.093  0.00  0.00    +0.000 A 
ATOM      5  N   UNL     1       1.621   8.412  17.757  0.00  0.00    +0.000 NA
ATOM      6  N   UNL     1       2.207   9.621  17.799  0.00  0.00    +0.000 N 
ATOM      7  C   UNL     1       1.600  10.390  18.746  0.00  0.00    +0.000 A 
ATOM      8  C   UNL     1       1.483  11.753  18.876  0.00  0.00    +0.000 A 
ATOM      9  N   UNL     1       0.494  12.221  19.660  0.00  0.00    +0.000 NA
ATOM     10  H   UNL     1       2.854   9.870  17.064  0.00  0.00    +0.000 HD
ENDROOT
BRANCH   1  15
ATOM     11  N   UNL     1      -3.051  12.882  22.527  0.00  0.00    +0.000 N 
ATOM     12  C   UNL     1      -3.962  13.140  21.527  0.00  0.00    +0.000 A 
ATOM     13  N   UNL     1      -3.777  12.864  20.285  0.00  0.00    +0.000 NA
ATOM     14  C   UNL     1      -2.575  12.290  19.955  0.00  0.00    +0.000 A 
ATOM     15  C   UNL     1      -1.577  11.986  20.806  0.00  0.00    +0.000 A 
ATOM     16  C   UNL     1      -1.832  12.308  22.230  0.00  0.00    +0.000 A 
ATOM     17  O   UNL     1      -0.982  12.095  23.082  0.00  0.00    +0.000 OA
BRANCH  11  19
ATOM     18  C   UNL     1      -4.307  12.412  24.573  0.00  0.00    +0.000 C 
ATOM     19  C   UNL     1      -3.313  13.335  23.882  0.00  0.00    +0.000 C 
ENDBRANCH  11  19
ENDBRANCH   1  15
BRANCH   4  20
ATOM     20  C   UNL     1       2.486   7.200  19.569  0.00  0.00    +0.000 A 
ATOM     21  C   UNL     1       1.894   6.052  20.105  0.00  0.00    +0.000 A 
ATOM     22  C   UNL     1       2.279   4.823  19.593  0.00  0.00    +0.000 A 
ATOM     23  C   UNL     1       3.329   4.768  18.686  0.00  0.00    +0.000 A 
ATOM     24  C   UNL     1       4.048   5.918  18.346  0.00  0.00    +0.000 A 
ATOM     25  N   UNL     1       3.613   7.133  18.775  0.00  0.00    +0.000 NA
BRANCH  24  26
ATOM     26  N   UNL     1       5.095   5.815  17.444  0.00  0.00    +0.000 N 
ATOM     27  C   UNL     1       6.478   5.547  17.875  0.00  0.00    +0.000 C 
ATOM     28  C   UNL     1       7.168   4.649  16.822  0.00  0.00    +0.000 C 
ATOM     29  N   UNL     1       7.135   5.213  15.459  0.00  0.00    +0.000 NA
ATOM     30  C   UNL     1       5.745   5.577  15.099  0.00  0.00    +0.000 C 
ATOM     31  C   UNL     1       5.032   6.484  16.141  0.00  0.00    +0.000 C 
ATOM     32  H   UNL     1       7.474   4.511  14.803  0.00  0.00    +0.000 HD
ENDBRANCH  24  26
ENDBRANCH   4  20
TORSDOF 4
ENDMDL
MODEL 6
REMARK VINA RESULT:      -7.9      0.857      1.336
REMARK  Name = 
REMARK  5 active torsions:
REMARK  status: ('A' for Active; 'I' for Inactive)
REMARK    1  A    between atoms: C_1  and  C_2
REMARK    2  A    between atoms: C_2  and  N_3
REMARK    3  A    between atoms: C_7  and  C_8
REMARK    4  A    between atoms: C_11  and  C_12
REMARK    5  A    between atoms: C_16  and  N_17
REMARK                            x       y       z     vdW  Elec       q    Type
REMARK                         _______ _______ _______ _____ _____    ______ ____
ROOT
ATOM      1  C   UNL     1      -1.840  11.451  18.628  0.00  0.00    +0.000 A 
ATOM      2  C   UNL     1      -1.257  10.167  18.729  0.00  0.00    +0.000 A 
ATOM      3  C   UNL     1       0.156  10.102  18.656  0.00  0.00    +0.000 A 
ATOM      4  C   UNL     1       1.201   9.126  18.441  0.00  0.00    +0.000 A 
ATOM      5  N   UNL     1       1.997   9.702  17.499  0.00  0.00    +0.000 NA
ATOM      6  N   UNL     1       2.053  10.947  18.002  0.00  0.00    +0.000 N 
ATOM      7  C   UNL     1       0.819  11.314  18.452  0.00  0.00    +0.000 A 
ATOM      8  C   UNL     1       0.238  12.548  18.612  0.00  0.00    +0.000 A 
ATOM      9  N   UNL     1      -1.106  12.599  18.673  0.00  0.00    +0.000 NA
ATOM     10  H   UNL     1       2.885  11.497  17.839  0.00  0.00    +0.000 HD
ENDROOT
BRANCH   1  15
ATOM     11  N   UNL     1      -5.546  12.373  18.828  0.00  0.00    +0.000 N 
ATOM     12  C   UNL     1      -5.882  12.050  17.533  0.00  0.00    +0.000 A 
ATOM     13  N   UNL     1      -5.061  11.577  16.664  0.00  0.00    +0.000 NA
ATOM     14  C   UNL     1      -3.762  11.407  17.073  0.00  0.00    +0.000 A 
ATOM     15  C   UNL     1      -3.269  11.685  18.296  0.00  0.00    +0.000 A 
ATOM     16  C   UNL     1      -4.248  12.217  19.273  0.00  0.00    +0.000 A 
ATOM     17  O   UNL     1      -3.901  12.524  20.404  0.00  0.00    +0.000 OA
BRANCH  11  19
ATOM     18  C   UNL     1      -7.689  13.550  18.884  0.00  0.00    +0.000 C 
ATOM     19  C   UNL     1      -6.523  13.006  19.697  0.00  0.00    +0.000 C 
ENDBRANCH  11  19
ENDBRANCH   1  15
BRANCH   4  20
ATOM     20  C   UNL     1       2.027   8.248  19.339  0.00  0.00    +0.000 A 
ATOM     21  C   UNL     1       1.691   8.400  20.688  0.00  0.00    +0.000 A 
ATOM     22  C   UNL     1       1.366   7.261  21.408  0.00  0.00    +0.000 A 
ATOM     23  C   UNL     1       1.526   6.017  20.813  0.00  0.00    +0.000 A 
ATOM     24  C   UNL     1       2.081   5.896  19.537  0.00  0.00    +0.000 A 
ATOM     25  N   UNL     1       2.314   7.013  18.797  0.00  0.00    +0.000 NA
BRANCH  24  26
ATOM     26  N   UNL     1       2.232   4.633  18.986  0.00  0.00    +0.000 N 
ATOM     27  C   UNL     1       1.705   3.423  19.642  0.00  0.00    +0.000 C 
ATOM     28  C   UNL     1       1.207   2.439  18.557  0.00  0.00    +0.000 C 
ATOM     29  N   UNL     1       2.239   2.098  17.559  0.00  0.00    +0.000 NA
ATOM     30  C   UNL     1       2.828   3.336  17.001  0.00  0.00    +0.000 C 
ATOM     31  C   UNL     1       3.340   4.339  18.072  0.00  0.00    +0.000 C 
ATOM     32  H   UNL     1       1.804   1.568  16.804  0.00  0.00    +0.000 HD
ENDBRANCH  24  26
ENDBRANCH   4  20
TORSDOF 4
ENDMDL
MODEL 7
REMARK VINA RESULT:      -7.8      1.634      2.413
REMARK  Name = 
REMARK  5 active torsions:
REMARK  status: ('A' for Active; 'I' for Inactive)
REMARK    1  A    between atoms: C_1  and  C_2
REMARK    2  A    between atoms: C_2  and  N_3
REMARK    3  A    between atoms: C_7  and  C_8
REMARK    4  A    between atoms: C_11  and  C_12
REMARK    5  A    between atoms: C_16  and  N_17
REMARK                            x       y       z     vdW  Elec       q    Type
REMARK                         _______ _______ _______ _____ _____    ______ ____
ROOT
ATOM      1  C   UNL     1      -0.930  11.374  19.373  0.00  0.00    +0.000 A 
ATOM      2  C   UNL     1      -0.533  10.017  19.395  0.00  0.00    +0.000 A 
ATOM      3  C   UNL     1       0.774   9.730  18.932  0.00  0.00    +0.000 A 
ATOM      4  C   UNL     1       1.562   8.597  18.499  0.00  0.00    +0.000 A 
ATOM      5  N   UNL     1       2.126   9.018  17.334  0.00  0.00    +0.000 NA
ATOM      6  N   UNL     1       2.502  10.251  17.714  0.00  0.00    +0.000 N 
ATOM      7  C   UNL     1       1.517  10.817  18.466  0.00  0.00    +0.000 A 
ATOM      8  C   UNL     1       1.188  12.131  18.698  0.00  0.00    +0.000 A 
ATOM      9  N   UNL     1      -0.059  12.394  19.131  0.00  0.00    +0.000 NA
ATOM     10  H   UNL     1       3.321  10.659  17.286  0.00  0.00    +0.000 HD
ENDROOT
BRANCH   1  15
ATOM     11  N   UNL     1      -4.603  12.053  18.553  0.00  0.00    +0.000 N 
ATOM     12  C   UNL     1      -4.926  12.722  19.712  0.00  0.00    +0.000 A 
ATOM     13  N   UNL     1      -4.100  12.965  20.666  0.00  0.00    +0.000 NA
ATOM     14  C   UNL     1      -2.819  12.501  20.504  0.00  0.00    +0.000 A 
ATOM     15  C   UNL     1      -2.346  11.820  19.442  0.00  0.00    +0.000 A 
ATOM     16  C   UNL     1      -3.325  11.570  18.358  0.00  0.00    +0.000 A 
ATOM     17  O   UNL     1      -3.007  10.941  17.360  0.00  0.00    +0.000 OA
BRANCH  11  19
ATOM     18  C   UNL     1      -6.395  12.989  17.175  0.00  0.00    +0.000 C 
ATOM     19  C   UNL     1      -5.639  11.733  17.586  0.00  0.00    +0.000 C 
ENDBRANCH  11  19
ENDBRANCH   1  15
BRANCH   4  20
ATOM     20  C   UNL     1       2.478   7.624  19.187  0.00  0.00    +0.000 A 
ATOM     21  C   UNL     1       1.779   6.600  19.835  0.00  0.00    +0.000 A 
ATOM     22  C   UNL     1       2.119   5.291  19.533  0.00  0.00    +0.000 A 
ATOM     23  C   UNL     1       3.221   5.048  18.724  0.00  0.00    +0.000 A 
ATOM     24  C   UNL     1       4.033   6.095  18.280  0.00  0.00    +0.000 A 
ATOM     25  N   UNL     1       3.648   7.382  18.498  0.00  0.00    +0.000 NA
BRANCH  24  26
ATOM     26  N   UNL     1       5.129   5.806  17.483  0.00  0.00    +0.000 N 
ATOM     27  C   UNL     1       6.504   5.804  18.012  0.00  0.00    +0.000 C 
ATOM     28  C   UNL     1       7.310   4.685  17.313  0.00  0.00    +0.000 C 
ATOM     29  N   UNL     1       7.306   4.792  15.840  0.00  0.00    +0.000 NA
ATOM     30  C   UNL     1       5.914   4.907  15.349  0.00  0.00    +0.000 C 
ATOM     31  C   UNL     1       5.085   6.029  16.034  0.00  0.00    +0.000 C 
ATOM     32  H   UNL     1       7.728   3.952  15.447  0.00  0.00    +0.000 HD
ENDBRANCH  24  26
ENDBRANCH   4  20
TORSDOF 4
ENDMDL
MODEL 8
REMARK VINA RESULT:      -7.7      2.214      2.615
REMARK  Name = 
REMARK  5 active torsions:
REMARK  status: ('A' for Active; 'I' for Inactive)
REMARK    1  A    between atoms: C_1  and  C_2
REMARK    2  A    between atoms: C_2  and  N_3
REMARK    3  A    between atoms: C_7  and  C_8
REMARK    4  A    between atoms: C_11  and  C_12
REMARK    5  A    between atoms: C_16  and  N_17
REMARK                            x       y       z     vdW  Elec       q    Type
REMARK                         _______ _______ _______ _____ _____    ______ ____
ROOT
ATOM      1  C   UNL     1      -0.691  11.569  20.386  0.00  0.00    +0.000 A 
ATOM      2  C   UNL     1      -0.365  10.194  20.408  0.00  0.00    +0.000 A 
ATOM      3  C   UNL     1       0.728   9.787  19.605  0.00  0.00    +0.000 A 
ATOM      4  C   UNL     1       1.300   8.575  19.060  0.00  0.00    +0.000 A 
ATOM      5  N   UNL     1       1.504   8.872  17.748  0.00  0.00    +0.000 NA
ATOM      6  N   UNL     1       2.030  10.101  17.888  0.00  0.00    +0.000 N 
ATOM      7  C   UNL     1       1.342  10.786  18.846  0.00  0.00    +0.000 A 
ATOM      8  C   UNL     1       1.156  12.131  19.047  0.00  0.00    +0.000 A 
ATOM      9  N   UNL     1       0.109  12.508  19.806  0.00  0.00    +0.000 NA
ATOM     10  H   UNL     1       2.698  10.422  17.202  0.00  0.00    +0.000 HD
ENDROOT
BRANCH   1  15
ATOM     11  N   UNL     1      -3.628  12.763  22.525  0.00  0.00    +0.000 N 
ATOM     12  C   UNL     1      -4.465  13.129  21.495  0.00  0.00    +0.000 A 
ATOM     13  N   UNL     1      -4.176  13.015  20.247  0.00  0.00    +0.000 NA
ATOM     14  C   UNL     1      -2.937  12.506  19.946  0.00  0.00    +0.000 A 
ATOM     15  C   UNL     1      -2.000  12.115  20.831  0.00  0.00    +0.000 A 
ATOM     16  C   UNL     1      -2.374  12.251  22.259  0.00  0.00    +0.000 A 
ATOM     17  O   UNL     1      -1.588  11.947  23.144  0.00  0.00    +0.000 OA
BRANCH  11  19
ATOM     18  C   UNL     1      -3.954  14.533  24.182  0.00  0.00    +0.000 C 
ATOM     19  C   UNL     1      -4.006  13.038  23.901  0.00  0.00    +0.000 C 
ENDBRANCH  11  19
ENDBRANCH   1  15
BRANCH   4  20
ATOM     20  C   UNL     1       2.338   7.595  19.529  0.00  0.00    +0.000 A 
ATOM     21  C   UNL     1       1.822   6.665  20.438  0.00  0.00    +0.000 A 
ATOM     22  C   UNL     1       2.001   5.319  20.162  0.00  0.00    +0.000 A 
ATOM     23  C   UNL     1       2.801   4.949  19.089  0.00  0.00    +0.000 A 
ATOM     24  C   UNL     1       3.486   5.909  18.338  0.00  0.00    +0.000 A 
ATOM     25  N   UNL     1       3.238   7.230  18.550  0.00  0.00    +0.000 NA
BRANCH  24  26
ATOM     26  N   UNL     1       4.281   5.495  17.282  0.00  0.00    +0.000 N 
ATOM     27  C   UNL     1       4.916   6.450  16.356  0.00  0.00    +0.000 C 
ATOM     28  C   UNL     1       6.303   5.906  15.944  0.00  0.00    +0.000 C 
ATOM     29  N   UNL     1       6.250   4.552  15.358  0.00  0.00    +0.000 NA
ATOM     30  C   UNL     1       5.507   3.642  16.260  0.00  0.00    +0.000 C 
ATOM     31  C   UNL     1       4.107   4.167  16.685  0.00  0.00    +0.000 C 
ATOM     32  H   UNL     1       7.202   4.204  15.246  0.00  0.00    +0.000 HD
ENDBRANCH  24  26
ENDBRANCH   4  20
TORSDOF 4
ENDMDL
MODEL 9
REMARK VINA RESULT:      -7.5      1.492      1.761
REMARK  Name = 
REMARK  5 active torsions:
REMARK  status: ('A' for Active; 'I' for Inactive)
REMARK    1  A    between atoms: C_1  and  C_2
REMARK    2  A    between atoms: C_2  and  N_3
REMARK    3  A    between atoms: C_7  and  C_8
REMARK    4  A    between atoms: C_11  and  C_12
REMARK    5  A    between atoms: C_16  and  N_17
REMARK                            x       y       z     vdW  Elec       q    Type
REMARK                         _______ _______ _______ _____ _____    ______ ____
ROOT
ATOM      1  C   UNL     1      -1.204  11.675  19.809  0.00  0.00    +0.000 A 
ATOM      2  C   UNL     1      -0.765  10.332  19.815  0.00  0.00    +0.000 A 
ATOM      3  C   UNL     1       0.496  10.073  19.225  0.00  0.00    +0.000 A 
ATOM      4  C   UNL     1       1.271   8.954  18.735  0.00  0.00    +0.000 A 
ATOM      5  N   UNL     1       1.699   9.366  17.511  0.00  0.00    +0.000 NA
ATOM      6  N   UNL     1       2.074  10.617  17.827  0.00  0.00    +0.000 N 
ATOM      7  C   UNL     1       1.153  11.171  18.666  0.00  0.00    +0.000 A 
ATOM      8  C   UNL     1       0.810  12.479  18.906  0.00  0.00    +0.000 A 
ATOM      9  N   UNL     1      -0.395  12.715  19.460  0.00  0.00    +0.000 NA
ATOM     10  H   UNL     1       2.832  11.040  17.310  0.00  0.00    +0.000 HD
ENDROOT
BRANCH   1  15
ATOM     11  N   UNL     1      -4.473  12.922  21.356  0.00  0.00    +0.000 N 
ATOM     12  C   UNL     1      -5.265  12.781  20.239  0.00  0.00    +0.000 A 
ATOM     13  N   UNL     1      -4.854  12.333  19.106  0.00  0.00    +0.000 NA
ATOM     14  C   UNL     1      -3.527  11.994  19.024  0.00  0.00    +0.000 A 
ATOM     15  C   UNL     1      -2.619  12.082  20.015  0.00  0.00    +0.000 A 
ATOM     16  C   UNL     1      -3.133  12.592  21.307  0.00  0.00    +0.000 A 
ATOM     17  O   UNL     1      -2.388  12.734  22.265  0.00  0.00    +0.000 OA
BRANCH  11  19
ATOM     18  C   UNL     1      -6.375  12.964  22.893  0.00  0.00    +0.000 C 
ATOM     19  C   UNL     1      -5.009  13.544  22.554  0.00  0.00    +0.000 C 
ENDBRANCH  11  19
ENDBRANCH   1  15
BRANCH   4  20
ATOM     20  C   UNL     1       2.282   8.023  19.343  0.00  0.00    +0.000 A 
ATOM     21  C   UNL     1       1.740   7.245  20.372  0.00  0.00    +0.000 A 
ATOM     22  C   UNL     1       1.884   5.869  20.289  0.00  0.00    +0.000 A 
ATOM     23  C   UNL     1       2.677   5.331  19.283  0.00  0.00    +0.000 A 
ATOM     24  C   UNL     1       3.388   6.157  18.409  0.00  0.00    +0.000 A 
ATOM     25  N   UNL     1       3.174   7.501  18.430  0.00  0.00    +0.000 NA
BRANCH  24  26
ATOM     26  N   UNL     1       4.175   5.578  17.426  0.00  0.00    +0.000 N 
ATOM     27  C   UNL     1       4.946   6.384  16.462  0.00  0.00    +0.000 C 
ATOM     28  C   UNL     1       6.281   5.664  16.159  0.00  0.00    +0.000 C 
ATOM     29  N   UNL     1       6.103   4.281  15.675  0.00  0.00    +0.000 NA
ATOM     30  C   UNL     1       5.230   3.530  16.607  0.00  0.00    +0.000 C 
ATOM     31  C   UNL     1       3.880   4.233  16.923  0.00  0.00    +0.000 C 
ATOM     32  H   UNL     1       7.014   3.826  15.636  0.00  0.00    +0.000 HD
ENDBRANCH  24  26
ENDBRANCH   4  20
TORSDOF 4
ENDMDL
