MODEL 1
REMARK VINA RESULT:      -6.8      0.000      0.000
REMARK  Name = 
REMARK  7 active torsions:
REMARK  status: ('A' for Active; 'I' for Inactive)
REMARK    1  A    between atoms: C_1  and  O_2
REMARK    2  A    between atoms: O_2  and  N_3
REMARK    3  A    between atoms: N_3  and  C_4
REMARK    4  A    between atoms: C_5  and  C_7
REMARK    5  A    between atoms: C_7  and  N_8
REMARK    6  A    between atoms: C_9  and  C_11
REMARK    7  A    between atoms: C_16  and  C_17
REMARK                            x       y       z     vdW  Elec       q    Type
REMARK                         _______ _______ _______ _____ _____    ______ ____
ROOT
ATOM      1  N   UNL     1       5.318   5.039  19.014  0.00  0.00    +0.000 N 
ATOM      2  C   UNL     1       4.005   5.460  18.970  0.00  0.00    +0.000 C 
ATOM      3  O   UNL     1       3.705   6.577  18.572  0.00  0.00    +0.000 OA
ATOM      4  H   UNL     1       5.560   4.112  19.336  0.00  0.00    +0.000 HD
ENDROOT
BRANCH   2   5
ATOM      5  C   UNL     1       2.963   4.484  19.438  0.00  0.00    +0.000 A 
ATOM      6  C   UNL     1       2.597   4.474  20.796  0.00  0.00    +0.000 A 
ATOM      7  C   UNL     1       1.620   3.594  21.268  0.00  0.00    +0.000 A 
ATOM      8  C   UNL     1       1.002   2.708  20.395  0.00  0.00    +0.000 A 
ATOM      9  C   UNL     1       1.374   2.686  19.049  0.00  0.00    +0.000 A 
ATOM     10  C   UNL     1       2.367   3.552  18.557  0.00  0.00    +0.000 A 
ATOM     11  C   UNL     1       2.745   3.435  17.105  0.00  0.00    +0.000 C 
ENDBRANCH   2   5
BRANCH   1  12
ATOM     12  C   UNL     1       6.388   5.866  18.483  0.00  0.00    +0.000 C 
BRANCH  12  15
ATOM     13  N   UNL     1       6.827   5.659  16.044  0.00  0.00    +0.000 N 
ATOM     14  C   UNL     1       5.439   5.736  15.618  0.00  0.00    +0.000 C 
ATOM     15  C   UNL     1       7.131   5.176  17.327  0.00  0.00    +0.000 C 
ATOM     16  O   UNL     1       7.994   4.325  17.567  0.00  0.00    +0.000 OA
BRANCH  13  18
ATOM     17  C   UNL     1       6.602   4.337  14.151  0.00  0.00    +0.000 C 
ATOM     18  O   UNL     1       7.542   4.902  15.062  0.00  0.00    +0.000 OA
ENDBRANCH  13  18
ENDBRANCH  12  15
ENDBRANCH   1  12
TORSDOF 4
ENDMDL
MODEL 2
REMARK VINA RESULT:      -6.8      1.956      2.911
REMARK  Name = 
REMARK  7 active torsions:
REMARK  status: ('A' for Active; 'I' for Inactive)
REMARK    1  A    between atoms: C_1  and  O_2
REMARK    2  A    between atoms: O_2  and  N_3
REMARK    3  A    between atoms: N_3  and  C_4
REMARK    4  A    between atoms: C_5  and  C_7
REMARK    5  A    between atoms: C_7  and  N_8
REMARK    6  A    between atoms: C_9  and  C_11
REMARK    7  A    between atoms: C_16  and  C_17
REMARK                            x       y       z     vdW  Elec       q    Type
REMARK                         _______ _______ _______ _____ _____    ______ ____
ROOT
ATOM      1  N   UNL     1       4.871   4.168  17.147  0.00  0.00    +0.000 N 
ATOM      2  C   UNL     1       4.694   3.854  18.479  0.00  0.00    +0.000 C 
ATOM      3  O   UNL     1       5.638   3.791  19.253  0.00  0.00    +0.000 OA
ATOM      4  H   UNL     1       4.087   4.226  16.513  0.00  0.00    +0.000 HD
ENDROOT
BRANCH   2   5
ATOM      5  C   UNL     1       3.286   3.586  18.930  0.00  0.00    +0.000 A 
ATOM      6  C   UNL     1       2.736   2.306  18.734  0.00  0.00    +0.000 A 
ATOM      7  C   UNL     1       1.437   2.011  19.155  0.00  0.00    +0.000 A 
ATOM      8  C   UNL     1       0.667   2.990  19.770  0.00  0.00    +0.000 A 
ATOM      9  C   UNL     1       1.188   4.274  19.946  0.00  0.00    +0.000 A 
ATOM     10  C   UNL     1       2.487   4.596  19.515  0.00  0.00    +0.000 A 
ATOM     11  C   UNL     1       2.958   6.013  19.699  0.00  0.00    +0.000 C 
ENDBRANCH   2   5
BRANCH   1  12
ATOM     12  C   UNL     1       6.177   4.549  16.636  0.00  0.00    +0.000 C 
BRANCH  12  15
ATOM     13  N   UNL     1       7.438   6.645  17.089  0.00  0.00    +0.000 N 
ATOM     14  C   UNL     1       7.699   6.381  18.495  0.00  0.00    +0.000 C 
ATOM     15  C   UNL     1       6.311   6.072  16.476  0.00  0.00    +0.000 C 
ATOM     16  O   UNL     1       5.509   6.693  15.770  0.00  0.00    +0.000 OA
BRANCH  13  18
ATOM     17  C   UNL     1       8.145   8.669  17.975  0.00  0.00    +0.000 C 
ATOM     18  O   UNL     1       7.415   8.064  16.910  0.00  0.00    +0.000 OA
ENDBRANCH  13  18
ENDBRANCH  12  15
ENDBRANCH   1  12
TORSDOF 4
ENDMDL
MODEL 3
REMARK VINA RESULT:      -6.6      0.770      1.694
REMARK  Name = 
REMARK  7 active torsions:
REMARK  status: ('A' for Active; 'I' for Inactive)
REMARK    1  A    between atoms: C_1  and  O_2
REMARK    2  A    between atoms: O_2  and  N_3
REMARK    3  A    between atoms: N_3  and  C_4
REMARK    4  A    between atoms: C_5  and  C_7
REMARK    5  A    between atoms: C_7  and  N_8
REMARK    6  A    between atoms: C_9  and  C_11
REMARK    7  A    between atoms: C_16  and  C_17
REMARK                            x       y       z     vdW  Elec       q    Type
REMARK                         _______ _______ _______ _____ _____    ______ ____
ROOT
ATOM      1  N   UNL     1       5.062   5.142  18.588  0.00  0.00    +0.000 N 
ATOM      2  C   UNL     1       3.753   5.506  18.350  0.00  0.00    +0.000 C 
ATOM      3  O   UNL     1       3.471   6.574  17.827  0.00  0.00    +0.000 OA
ATOM      4  H   UNL     1       5.291   4.255  19.014  0.00  0.00    +0.000 HD
ENDROOT
BRANCH   2   5
ATOM      5  C   UNL     1       2.691   4.530  18.771  0.00  0.00    +0.000 A 
ATOM      6  C   UNL     1       2.528   3.339  18.040  0.00  0.00    +0.000 A 
ATOM      7  C   UNL     1       1.565   2.397  18.409  0.00  0.00    +0.000 A 
ATOM      8  C   UNL     1       0.747   2.633  19.507  0.00  0.00    +0.000 A 
ATOM      9  C   UNL     1       0.877   3.823  20.226  0.00  0.00    +0.000 A 
ATOM     10  C   UNL     1       1.829   4.792  19.861  0.00  0.00    +0.000 A 
ATOM     11  C   UNL     1       1.876   6.067  20.658  0.00  0.00    +0.000 C 
ENDBRANCH   2   5
BRANCH   1  12
ATOM     12  C   UNL     1       6.164   5.966  18.121  0.00  0.00    +0.000 C 
BRANCH  12  15
ATOM     13  N   UNL     1       6.816   5.621  15.746  0.00  0.00    +0.000 N 
ATOM     14  C   UNL     1       5.468   5.608  15.203  0.00  0.00    +0.000 C 
ATOM     15  C   UNL     1       7.029   5.236  17.080  0.00  0.00    +0.000 C 
ATOM     16  O   UNL     1       7.901   4.441  17.447  0.00  0.00    +0.000 OA
BRANCH  13  18
ATOM     17  C   UNL     1       6.849   4.382  13.785  0.00  0.00    +0.000 C 
ATOM     18  O   UNL     1       7.641   4.834  14.880  0.00  0.00    +0.000 OA
ENDBRANCH  13  18
ENDBRANCH  12  15
ENDBRANCH   1  12
TORSDOF 4
ENDMDL
MODEL 4
REMARK VINA RESULT:      -6.6      1.213      1.227
REMARK  Name = 
REMARK  7 active torsions:
REMARK  status: ('A' for Active; 'I' for Inactive)
REMARK    1  A    between atoms: C_1  and  O_2
REMARK    2  A    between atoms: O_2  and  N_3
REMARK    3  A    between atoms: N_3  and  C_4
REMARK    4  A    between atoms: C_5  and  C_7
REMARK    5  A    between atoms: C_7  and  N_8
REMARK    6  A    between atoms: C_9  and  C_11
REMARK    7  A    between atoms: C_16  and  C_17
REMARK                            x       y       z     vdW  Elec       q    Type
REMARK                         _______ _______ _______ _____ _____    ______ ____
ROOT
ATOM      1  N   UNL     1       5.001   5.346  18.626  0.00  0.00    +0.000 N 
ATOM      2  C   UNL     1       4.734   4.167  19.291  0.00  0.00    +0.000 C 
ATOM      3  O   UNL     1       5.632   3.451  19.710  0.00  0.00    +0.000 OA
ATOM      4  H   UNL     1       4.256   5.938  18.288  0.00  0.00    +0.000 HD
ENDROOT
BRANCH   2   5
ATOM      5  C   UNL     1       3.287   3.804  19.471  0.00  0.00    +0.000 A 
ATOM      6  C   UNL     1       2.491   4.574  20.338  0.00  0.00    +0.000 A 
ATOM      7  C   UNL     1       1.137   4.280  20.519  0.00  0.00    +0.000 A 
ATOM      8  C   UNL     1       0.562   3.212  19.844  0.00  0.00    +0.000 A 
ATOM      9  C   UNL     1       1.345   2.421  19.001  0.00  0.00    +0.000 A 
ATOM     10  C   UNL     1       2.713   2.689  18.818  0.00  0.00    +0.000 A 
ATOM     11  C   UNL     1       3.499   1.762  17.929  0.00  0.00    +0.000 C 
ENDBRANCH   2   5
BRANCH   1  12
ATOM     12  C   UNL     1       6.362   5.840  18.497  0.00  0.00    +0.000 C 
BRANCH  12  15
ATOM     13  N   UNL     1       6.752   5.855  16.040  0.00  0.00    +0.000 N 
ATOM     14  C   UNL     1       5.357   5.985  15.652  0.00  0.00    +0.000 C 
ATOM     15  C   UNL     1       7.075   5.253  17.268  0.00  0.00    +0.000 C 
ATOM     16  O   UNL     1       7.932   4.374  17.410  0.00  0.00    +0.000 OA
BRANCH  13  18
ATOM     17  C   UNL     1       6.489   4.441  14.220  0.00  0.00    +0.000 C 
ATOM     18  O   UNL     1       7.439   5.185  14.979  0.00  0.00    +0.000 OA
ENDBRANCH  13  18
ENDBRANCH  12  15
ENDBRANCH   1  12
TORSDOF 4
ENDMDL
MODEL 5
REMARK VINA RESULT:      -6.5      1.619      2.466
REMARK  Name = 
REMARK  7 active torsions:
REMARK  status: ('A' for Active; 'I' for Inactive)
REMARK    1  A    between atoms: C_1  and  O_2
REMARK    2  A    between atoms: O_2  and  N_3
REMARK    3  A    between atoms: N_3  and  C_4
REMARK    4  A    between atoms: C_5  and  C_7
REMARK    5  A    between atoms: C_7  and  N_8
REMARK    6  A    between atoms: C_9  and  C_11
REMARK    7  A    between atoms: C_16  and  C_17
REMARK                            x       y       z     vdW  Elec       q    Type
REMARK                         _______ _______ _______ _____ _____    ______ ____
ROOT
ATOM      1  N   UNL     1       4.909   3.741  17.641  0.00  0.00    +0.000 N 
ATOM      2  C   UNL     1       3.531   3.704  17.700  0.00  0.00    +0.000 C 
ATOM      3  O   UNL     1       2.846   3.740  16.688  0.00  0.00    +0.000 OA
ATOM      4  H   UNL     1       5.471   3.702  18.480  0.00  0.00    +0.000 HD
ENDROOT
BRANCH   2   5
ATOM      5  C   UNL     1       2.913   3.624  19.068  0.00  0.00    +0.000 A 
ATOM      6  C   UNL     1       2.541   2.367  19.578  0.00  0.00    +0.000 A 
ATOM      7  C   UNL     1       1.980   2.247  20.851  0.00  0.00    +0.000 A 
ATOM      8  C   UNL     1       1.777   3.379  21.631  0.00  0.00    +0.000 A 
ATOM      9  C   UNL     1       2.116   4.637  21.128  0.00  0.00    +0.000 A 
ATOM     10  C   UNL     1       2.666   4.781  19.842  0.00  0.00    +0.000 A 
ATOM     11  C   UNL     1       2.961   6.174  19.355  0.00  0.00    +0.000 C 
ENDBRANCH   2   5
BRANCH   1  12
ATOM     12  C   UNL     1       5.604   3.708  16.366  0.00  0.00    +0.000 C 
BRANCH  12  15
ATOM     13  N   UNL     1       6.396   6.048  16.657  0.00  0.00    +0.000 N 
ATOM     14  C   UNL     1       5.269   6.688  15.998  0.00  0.00    +0.000 C 
ATOM     15  C   UNL     1       6.747   4.734  16.305  0.00  0.00    +0.000 C 
ATOM     16  O   UNL     1       7.898   4.363  16.049  0.00  0.00    +0.000 OA
BRANCH  13  18
ATOM     17  C   UNL     1       7.614   7.751  17.655  0.00  0.00    +0.000 C 
ATOM     18  O   UNL     1       7.531   6.906  16.509  0.00  0.00    +0.000 OA
ENDBRANCH  13  18
ENDBRANCH  12  15
ENDBRANCH   1  12
TORSDOF 4
ENDMDL
MODEL 6
REMARK VINA RESULT:      -6.5      1.936      2.769
REMARK  Name = 
REMARK  7 active torsions:
REMARK  status: ('A' for Active; 'I' for Inactive)
REMARK    1  A    between atoms: C_1  and  O_2
REMARK    2  A    between atoms: O_2  and  N_3
REMARK    3  A    between atoms: N_3  and  C_4
REMARK    4  A    between atoms: C_5  and  C_7
REMARK    5  A    between atoms: C_7  and  N_8
REMARK    6  A    between atoms: C_9  and  C_11
REMARK    7  A    between atoms: C_16  and  C_17
REMARK                            x       y       z     vdW  Elec       q    Type
REMARK                         _______ _______ _______ _____ _____    ______ ____
ROOT
ATOM      1  N   UNL     1       4.102   4.393  17.405  0.00  0.00    +0.000 N 
ATOM      2  C   UNL     1       3.069   3.497  17.587  0.00  0.00    +0.000 C 
ATOM      3  O   UNL     1       2.626   2.834  16.660  0.00  0.00    +0.000 OA
ATOM      4  H   UNL     1       4.470   4.932  18.176  0.00  0.00    +0.000 HD
ENDROOT
BRANCH   2   5
ATOM      5  C   UNL     1       2.511   3.380  18.977  0.00  0.00    +0.000 A 
ATOM      6  C   UNL     1       1.292   4.013  19.281  0.00  0.00    +0.000 A 
ATOM      7  C   UNL     1       0.731   3.914  20.556  0.00  0.00    +0.000 A 
ATOM      8  C   UNL     1       1.380   3.188  21.546  0.00  0.00    +0.000 A 
ATOM      9  C   UNL     1       2.604   2.576  21.269  0.00  0.00    +0.000 A 
ATOM     10  C   UNL     1       3.195   2.678  19.997  0.00  0.00    +0.000 A 
ATOM     11  C   UNL     1       4.537   2.030  19.791  0.00  0.00    +0.000 C 
ENDBRANCH   2   5
BRANCH   1  12
ATOM     12  C   UNL     1       4.782   4.501  16.125  0.00  0.00    +0.000 C 
BRANCH  12  15
ATOM     13  N   UNL     1       7.007   5.561  16.455  0.00  0.00    +0.000 N 
ATOM     14  C   UNL     1       7.283   4.967  17.752  0.00  0.00    +0.000 C 
ATOM     15  C   UNL     1       5.675   5.749  16.049  0.00  0.00    +0.000 C 
ATOM     16  O   UNL     1       5.232   6.800  15.572  0.00  0.00    +0.000 OA
BRANCH  13  18
ATOM     17  C   UNL     1       7.707   7.401  17.680  0.00  0.00    +0.000 C 
ATOM     18  O   UNL     1       7.712   6.804  16.386  0.00  0.00    +0.000 OA
ENDBRANCH  13  18
ENDBRANCH  12  15
ENDBRANCH   1  12
TORSDOF 4
ENDMDL
MODEL 7
REMARK VINA RESULT:      -6.5      1.911      2.421
REMARK  Name = 
REMARK  7 active torsions:
REMARK  status: ('A' for Active; 'I' for Inactive)
REMARK    1  A    between atoms: C_1  and  O_2
REMARK    2  A    between atoms: O_2  and  N_3
REMARK    3  A    between atoms: N_3  and  C_4
REMARK    4  A    between atoms: C_5  and  C_7
REMARK    5  A    between atoms: C_7  and  N_8
REMARK    6  A    between atoms: C_9  and  C_11
REMARK    7  A    between atoms: C_16  and  C_17
REMARK                            x       y       z     vdW  Elec       q    Type
REMARK                         _______ _______ _______ _____ _____    ______ ____
ROOT
ATOM      1  N   UNL     1       4.589   3.812  17.450  0.00  0.00    +0.000 N 
ATOM      2  C   UNL     1       3.887   2.743  17.967  0.00  0.00    +0.000 C 
ATOM      3  O   UNL     1       3.979   1.623  17.485  0.00  0.00    +0.000 OA
ATOM      4  H   UNL     1       4.515   4.734  17.857  0.00  0.00    +0.000 HD
ENDROOT
BRANCH   2   5
ATOM      5  C   UNL     1       3.000   3.022  19.147  0.00  0.00    +0.000 A 
ATOM      6  C   UNL     1       3.364   2.521  20.410  0.00  0.00    +0.000 A 
ATOM      7  C   UNL     1       2.576   2.773  21.536  0.00  0.00    +0.000 A 
ATOM      8  C   UNL     1       1.412   3.522  21.416  0.00  0.00    +0.000 A 
ATOM      9  C   UNL     1       1.022   4.004  20.164  0.00  0.00    +0.000 A 
ATOM     10  C   UNL     1       1.792   3.747  19.016  0.00  0.00    +0.000 A 
ATOM     11  C   UNL     1       1.281   4.260  17.697  0.00  0.00    +0.000 C 
ENDBRANCH   2   5
BRANCH   1  12
ATOM     12  C   UNL     1       5.555   3.626  16.380  0.00  0.00    +0.000 C 
BRANCH  12  15
ATOM     13  N   UNL     1       6.333   5.983  16.532  0.00  0.00    +0.000 N 
ATOM     14  C   UNL     1       5.429   6.521  15.529  0.00  0.00    +0.000 C 
ATOM     15  C   UNL     1       6.713   4.632  16.467  0.00  0.00    +0.000 C 
ATOM     16  O   UNL     1       7.878   4.229  16.562  0.00  0.00    +0.000 OA
BRANCH  13  18
ATOM     17  C   UNL     1       7.369   7.747  17.625  0.00  0.00    +0.000 C 
ATOM     18  O   UNL     1       7.500   6.811  16.557  0.00  0.00    +0.000 OA
ENDBRANCH  13  18
ENDBRANCH  12  15
ENDBRANCH   1  12
TORSDOF 4
ENDMDL
MODEL 8
REMARK VINA RESULT:      -6.4      1.613      2.672
REMARK  Name = 
REMARK  7 active torsions:
REMARK  status: ('A' for Active; 'I' for Inactive)
REMARK    1  A    between atoms: C_1  and  O_2
REMARK    2  A    between atoms: O_2  and  N_3
REMARK    3  A    between atoms: N_3  and  C_4
REMARK    4  A    between atoms: C_5  and  C_7
REMARK    5  A    between atoms: C_7  and  N_8
REMARK    6  A    between atoms: C_9  and  C_11
REMARK    7  A    between atoms: C_16  and  C_17
REMARK                            x       y       z     vdW  Elec       q    Type
REMARK                         _______ _______ _______ _____ _____    ______ ____
ROOT
ATOM      1  N   UNL     1       5.081   3.840  17.518  0.00  0.00    +0.000 N 
ATOM      2  C   UNL     1       3.921   4.585  17.549  0.00  0.00    +0.000 C 
ATOM      3  O   UNL     1       3.833   5.658  16.970  0.00  0.00    +0.000 OA
ATOM      4  H   UNL     1       5.146   2.950  17.992  0.00  0.00    +0.000 HD
ENDROOT
BRANCH   2   5
ATOM      5  C   UNL     1       2.772   4.016  18.334  0.00  0.00    +0.000 A 
ATOM      6  C   UNL     1       2.233   2.774  17.954  0.00  0.00    +0.000 A 
ATOM      7  C   UNL     1       1.176   2.202  18.668  0.00  0.00    +0.000 A 
ATOM      8  C   UNL     1       0.640   2.865  19.764  0.00  0.00    +0.000 A 
ATOM      9  C   UNL     1       1.145   4.112  20.137  0.00  0.00    +0.000 A 
ATOM     10  C   UNL     1       2.197   4.712  19.422  0.00  0.00    +0.000 A 
ATOM     11  C   UNL     1       2.654   6.078  19.858  0.00  0.00    +0.000 C 
ENDBRANCH   2   5
BRANCH   1  12
ATOM     12  C   UNL     1       6.210   4.249  16.699  0.00  0.00    +0.000 C 
BRANCH  12  15
ATOM     13  N   UNL     1       7.115   6.143  18.033  0.00  0.00    +0.000 N 
ATOM     14  C   UNL     1       6.721   7.197  17.113  0.00  0.00    +0.000 C 
ATOM     15  C   UNL     1       7.348   4.847  17.543  0.00  0.00    +0.000 C 
ATOM     16  O   UNL     1       8.340   4.164  17.819  0.00  0.00    +0.000 OA
BRANCH  13  18
ATOM     17  C   UNL     1       8.415   7.999  18.525  0.00  0.00    +0.000 C 
ATOM     18  O   UNL     1       8.264   6.600  18.753  0.00  0.00    +0.000 OA
ENDBRANCH  13  18
ENDBRANCH  12  15
ENDBRANCH   1  12
TORSDOF 4
ENDMDL
MODEL 9
REMARK VINA RESULT:      -6.4      1.853      2.757
REMARK  Name = 
REMARK  7 active torsions:
REMARK  status: ('A' for Active; 'I' for Inactive)
REMARK    1  A    between atoms: C_1  and  O_2
REMARK    2  A    between atoms: O_2  and  N_3
REMARK    3  A    between atoms: N_3  and  C_4
REMARK    4  A    between atoms: C_5  and  C_7
REMARK    5  A    between atoms: C_7  and  N_8
REMARK    6  A    between atoms: C_9  and  C_11
REMARK    7  A    between atoms: C_16  and  C_17
REMARK                            x       y       z     vdW  Elec       q    Type
REMARK                         _______ _______ _______ _____ _____    ______ ____
ROOT
ATOM      1  N   UNL     1       5.251   4.212  18.091  0.00  0.00    +0.000 N 
ATOM      2  C   UNL     1       3.948   3.961  17.714  0.00  0.00    +0.000 C 
ATOM      3  O   UNL     1       3.618   3.921  16.538  0.00  0.00    +0.000 OA
ATOM      4  H   UNL     1       5.520   4.236  19.065  0.00  0.00    +0.000 HD
ENDROOT
BRANCH   2   5
ATOM      5  C   UNL     1       2.953   3.745  18.819  0.00  0.00    +0.000 A 
ATOM      6  C   UNL     1       2.642   2.431  19.213  0.00  0.00    +0.000 A 
ATOM      7  C   UNL     1       1.736   2.188  20.248  0.00  0.00    +0.000 A 
ATOM      8  C   UNL     1       1.123   3.250  20.899  0.00  0.00    +0.000 A 
ATOM      9  C   UNL     1       1.399   4.560  20.502  0.00  0.00    +0.000 A 
ATOM     10  C   UNL     1       2.295   4.826  19.451  0.00  0.00    +0.000 A 
ATOM     11  C   UNL     1       2.504   6.262  19.052  0.00  0.00    +0.000 C 
ENDBRANCH   2   5
BRANCH   1  12
ATOM     12  C   UNL     1       6.307   4.327  17.099  0.00  0.00    +0.000 C 
BRANCH  12  15
ATOM     13  N   UNL     1       7.650   6.412  17.277  0.00  0.00    +0.000 N 
ATOM     14  C   UNL     1       7.778   6.405  18.725  0.00  0.00    +0.000 C 
ATOM     15  C   UNL     1       6.546   5.785  16.676  0.00  0.00    +0.000 C 
ATOM     16  O   UNL     1       5.844   6.298  15.798  0.00  0.00    +0.000 OA
BRANCH  13  18
ATOM     17  C   UNL     1       8.107   8.585  17.948  0.00  0.00    +0.000 C 
ATOM     18  O   UNL     1       7.729   7.772  16.839  0.00  0.00    +0.000 OA
ENDBRANCH  13  18
ENDBRANCH  12  15
ENDBRANCH   1  12
TORSDOF 4
ENDMDL
