MODEL 1
REMARK VINA RESULT:      -7.9      0.000      0.000
REMARK  Name = 
REMARK  5 active torsions:
REMARK  status: ('A' for Active; 'I' for Inactive)
REMARK    1  A    between atoms: C_1  and  N_2
REMARK    2  A    between atoms: N_2  and  C_3
REMARK    3  A    between atoms: N_2  and  C_4
REMARK    4  A    between atoms: C_7  and  N_8
REMARK    5  A    between atoms: C_14  and  C_16
REMARK                            x       y       z     vdW  Elec       q    Type
REMARK                         _______ _______ _______ _____ _____    ______ ____
ROOT
ATOM      1  N   UNL     1       1.868   8.547  17.665  0.00  0.00    +0.000 N 
ATOM      2  C   UNL     1       2.179   7.440  18.371  0.00  0.00    +0.000 A 
ATOM      3  N   UNL     1       1.750   7.243  19.652  0.00  0.00    +0.000 NA
ATOM      4  C   UNL     1       2.344   6.143  20.028  0.00  0.00    +0.000 A 
ATOM      5  N   UNL     1       2.292   5.579  21.249  0.00  0.00    +0.000 N 
ATOM      6  N   UNL     1       3.136   5.683  18.990  0.00  0.00    +0.000 N 
ATOM      7  C   UNL     1       4.034   4.607  18.982  0.00  0.00    +0.000 C 
ATOM      8  O   UNL     1       3.893   3.737  19.843  0.00  0.00    +0.000 OA
ATOM      9  N   UNL     1       2.959   6.467  17.892  0.00  0.00    +0.000 NA
ATOM     10  H   UNL     1       2.231   8.543  16.720  0.00  0.00    +0.000 HD
ATOM     11  H   UNL     1       1.565   5.884  21.888  0.00  0.00    +0.000 HD
ATOM     12  H   UNL     1       2.607   4.616  21.377  0.00  0.00    +0.000 HD
ENDROOT
BRANCH   7  13
ATOM     13  C   UNL     1       5.168   4.513  18.054  0.00  0.00    +0.000 A 
ATOM     14  C   UNL     1       4.963   4.046  16.753  0.00  0.00    +0.000 A 
ATOM     15  F   UNL     1       3.742   3.681  16.334  0.00  0.00    +0.000 F 
ATOM     16  C   UNL     1       6.006   4.006  15.831  0.00  0.00    +0.000 A 
ATOM     17  C   UNL     1       7.268   4.473  16.193  0.00  0.00    +0.000 A 
ATOM     18  C   UNL     1       7.476   4.970  17.480  0.00  0.00    +0.000 A 
ATOM     19  C   UNL     1       6.429   4.985  18.402  0.00  0.00    +0.000 A 
ATOM     20  F   UNL     1       6.667   5.463  19.630  0.00  0.00    +0.000 F 
ENDBRANCH   7  13
BRANCH   1  24
ATOM     21  C   UNL     1       0.735  12.496  18.895  0.00  0.00    +0.000 A 
ATOM     22  C   UNL     1      -0.124  11.392  19.001  0.00  0.00    +0.000 A 
ATOM     23  C   UNL     1       0.269  10.096  18.624  0.00  0.00    +0.000 A 
ATOM     24  C   UNL     1       1.548   9.843  18.119  0.00  0.00    +0.000 A 
ATOM     25  C   UNL     1       2.429  10.919  18.064  0.00  0.00    +0.000 A 
ATOM     26  C   UNL     1       2.031  12.210  18.442  0.00  0.00    +0.000 A 
BRANCH  21  28
ATOM     27  C   UNL     1       1.303  14.887  19.195  0.00  0.00    +0.000 C 
ATOM     28  N   UNL     1       0.346  13.789  19.234  0.00  0.00    +0.000 N 
ATOM     29  C   UNL     1      -0.883  13.998  19.994  0.00  0.00    +0.000 C 
ENDBRANCH  21  28
ENDBRANCH   1  24
TORSDOF 3
ENDMDL
MODEL 2
REMARK VINA RESULT:      -7.9      0.220      1.775
REMARK  Name = 
REMARK  5 active torsions:
REMARK  status: ('A' for Active; 'I' for Inactive)
REMARK    1  A    between atoms: C_1  and  N_2
REMARK    2  A    between atoms: N_2  and  C_3
REMARK    3  A    between atoms: N_2  and  C_4
REMARK    4  A    between atoms: C_7  and  N_8
REMARK    5  A    between atoms: C_14  and  C_16
REMARK                            x       y       z     vdW  Elec       q    Type
REMARK                         _______ _______ _______ _____ _____    ______ ____
ROOT
ATOM      1  N   UNL     1       1.903   8.796  17.700  0.00  0.00    +0.000 N 
ATOM      2  C   UNL     1       2.190   7.662  18.372  0.00  0.00    +0.000 A 
ATOM      3  N   UNL     1       1.744   7.430  19.642  0.00  0.00    +0.000 NA
ATOM      4  C   UNL     1       2.317   6.309  19.987  0.00  0.00    +0.000 A 
ATOM      5  N   UNL     1       2.244   5.705  21.189  0.00  0.00    +0.000 N 
ATOM      6  N   UNL     1       3.112   5.871  18.942  0.00  0.00    +0.000 N 
ATOM      7  C   UNL     1       3.994   4.782  18.908  0.00  0.00    +0.000 C 
ATOM      8  O   UNL     1       3.831   3.886  19.738  0.00  0.00    +0.000 OA
ATOM      9  N   UNL     1       2.959   6.693  17.869  0.00  0.00    +0.000 NA
ATOM     10  H   UNL     1       2.274   8.817  16.760  0.00  0.00    +0.000 HD
ATOM     11  H   UNL     1       1.515   6.001  21.830  0.00  0.00    +0.000 HD
ATOM     12  H   UNL     1       2.543   4.734  21.288  0.00  0.00    +0.000 HD
ENDROOT
BRANCH   7  13
ATOM     13  C   UNL     1       5.136   4.700  17.989  0.00  0.00    +0.000 A 
ATOM     14  C   UNL     1       6.410   5.067  18.429  0.00  0.00    +0.000 A 
ATOM     15  F   UNL     1       6.611   5.495  19.685  0.00  0.00    +0.000 F 
ATOM     16  C   UNL     1       7.522   4.939  17.600  0.00  0.00    +0.000 A 
ATOM     17  C   UNL     1       7.375   4.402  16.323  0.00  0.00    +0.000 A 
ATOM     18  C   UNL     1       6.112   4.003  15.884  0.00  0.00    +0.000 A 
ATOM     19  C   UNL     1       5.002   4.156  16.715  0.00  0.00    +0.000 A 
ATOM     20  F   UNL     1       3.804   3.770  16.258  0.00  0.00    +0.000 F 
ENDBRANCH   7  13
BRANCH   1  24
ATOM     21  C   UNL     1       0.800  12.709  19.068  0.00  0.00    +0.000 A 
ATOM     22  C   UNL     1      -0.013  11.581  19.257  0.00  0.00    +0.000 A 
ATOM     23  C   UNL     1       0.373  10.297  18.832  0.00  0.00    +0.000 A 
ATOM     24  C   UNL     1       1.597  10.081  18.193  0.00  0.00    +0.000 A 
ATOM     25  C   UNL     1       2.439  11.181  18.053  0.00  0.00    +0.000 A 
ATOM     26  C   UNL     1       2.048  12.460  18.478  0.00  0.00    +0.000 A 
BRANCH  21  28
ATOM     27  C   UNL     1      -0.956  14.258  19.871  0.00  0.00    +0.000 C 
ATOM     28  N   UNL     1       0.414  13.989  19.453  0.00  0.00    +0.000 N 
ATOM     29  C   UNL     1       1.238  15.135  19.080  0.00  0.00    +0.000 C 
ENDBRANCH  21  28
ENDBRANCH   1  24
TORSDOF 3
ENDMDL
MODEL 3
REMARK VINA RESULT:      -7.9      0.558      1.158
REMARK  Name = 
REMARK  5 active torsions:
REMARK  status: ('A' for Active; 'I' for Inactive)
REMARK    1  A    between atoms: C_1  and  N_2
REMARK    2  A    between atoms: N_2  and  C_3
REMARK    3  A    between atoms: N_2  and  C_4
REMARK    4  A    between atoms: C_7  and  N_8
REMARK    5  A    between atoms: C_14  and  C_16
REMARK                            x       y       z     vdW  Elec       q    Type
REMARK                         _______ _______ _______ _____ _____    ______ ____
ROOT
ATOM      1  N   UNL     1       1.932   8.602  17.803  0.00  0.00    +0.000 N 
ATOM      2  C   UNL     1       2.228   7.465  18.467  0.00  0.00    +0.000 A 
ATOM      3  N   UNL     1       1.805   7.230  19.745  0.00  0.00    +0.000 NA
ATOM      4  C   UNL     1       2.381   6.107  20.076  0.00  0.00    +0.000 A 
ATOM      5  N   UNL     1       2.328   5.500  21.277  0.00  0.00    +0.000 N 
ATOM      6  N   UNL     1       3.157   5.670  19.017  0.00  0.00    +0.000 N 
ATOM      7  C   UNL     1       4.036   4.579  18.964  0.00  0.00    +0.000 C 
ATOM      8  O   UNL     1       3.885   3.682  19.795  0.00  0.00    +0.000 OA
ATOM      9  N   UNL     1       2.987   6.496  17.948  0.00  0.00    +0.000 NA
ATOM     10  H   UNL     1       2.288   8.624  16.857  0.00  0.00    +0.000 HD
ATOM     11  H   UNL     1       1.611   5.796  21.932  0.00  0.00    +0.000 HD
ATOM     12  H   UNL     1       2.626   4.528  21.369  0.00  0.00    +0.000 HD
ENDROOT
BRANCH   7  13
ATOM     13  C   UNL     1       5.161   4.498  18.025  0.00  0.00    +0.000 A 
ATOM     14  C   UNL     1       4.948   4.033  16.724  0.00  0.00    +0.000 A 
ATOM     15  F   UNL     1       3.726   3.658  16.316  0.00  0.00    +0.000 F 
ATOM     16  C   UNL     1       5.982   4.005  15.792  0.00  0.00    +0.000 A 
ATOM     17  C   UNL     1       7.243   4.482  16.143  0.00  0.00    +0.000 A 
ATOM     18  C   UNL     1       7.459   4.977  17.429  0.00  0.00    +0.000 A 
ATOM     19  C   UNL     1       6.421   4.980  18.362  0.00  0.00    +0.000 A 
ATOM     20  F   UNL     1       6.667   5.456  19.589  0.00  0.00    +0.000 F 
ENDBRANCH   7  13
BRANCH   1  24
ATOM     21  C   UNL     1       1.241  12.515  19.415  0.00  0.00    +0.000 A 
ATOM     22  C   UNL     1       2.210  12.259  18.433  0.00  0.00    +0.000 A 
ATOM     23  C   UNL     1       2.407  10.977  17.889  0.00  0.00    +0.000 A 
ATOM     24  C   UNL     1       1.639   9.885  18.306  0.00  0.00    +0.000 A 
ATOM     25  C   UNL     1       0.634  10.139  19.236  0.00  0.00    +0.000 A 
ATOM     26  C   UNL     1       0.444  11.420  19.776  0.00  0.00    +0.000 A 
BRANCH  21  28
ATOM     27  C   UNL     1       0.737  13.907  21.400  0.00  0.00    +0.000 C 
ATOM     28  N   UNL     1       1.061  13.772  19.985  0.00  0.00    +0.000 N 
ATOM     29  C   UNL     1       0.806  14.925  19.127  0.00  0.00    +0.000 C 
ENDBRANCH  21  28
ENDBRANCH   1  24
TORSDOF 3
ENDMDL
MODEL 4
REMARK VINA RESULT:      -7.8      0.669      2.001
REMARK  Name = 
REMARK  5 active torsions:
REMARK  status: ('A' for Active; 'I' for Inactive)
REMARK    1  A    between atoms: C_1  and  N_2
REMARK    2  A    between atoms: N_2  and  C_3
REMARK    3  A    between atoms: N_2  and  C_4
REMARK    4  A    between atoms: C_7  and  N_8
REMARK    5  A    between atoms: C_14  and  C_16
REMARK                            x       y       z     vdW  Elec       q    Type
REMARK                         _______ _______ _______ _____ _____    ______ ____
ROOT
ATOM      1  N   UNL     1       1.993   8.982  17.724  0.00  0.00    +0.000 N 
ATOM      2  C   UNL     1       2.235   7.831  18.385  0.00  0.00    +0.000 A 
ATOM      3  N   UNL     1       1.754   7.591  19.641  0.00  0.00    +0.000 NA
ATOM      4  C   UNL     1       2.290   6.450  19.981  0.00  0.00    +0.000 A 
ATOM      5  N   UNL     1       2.173   5.831  21.171  0.00  0.00    +0.000 N 
ATOM      6  N   UNL     1       3.099   6.008  18.948  0.00  0.00    +0.000 N 
ATOM      7  C   UNL     1       3.953   4.898  18.918  0.00  0.00    +0.000 C 
ATOM      8  O   UNL     1       3.748   3.994  19.730  0.00  0.00    +0.000 OA
ATOM      9  N   UNL     1       2.991   6.850  17.885  0.00  0.00    +0.000 NA
ATOM     10  H   UNL     1       2.387   9.008  16.793  0.00  0.00    +0.000 HD
ATOM     11  H   UNL     1       1.437   6.136  21.799  0.00  0.00    +0.000 HD
ATOM     12  H   UNL     1       2.444   4.851  21.262  0.00  0.00    +0.000 HD
ENDROOT
BRANCH   7  13
ATOM     13  C   UNL     1       5.114   4.801  18.024  0.00  0.00    +0.000 A 
ATOM     14  C   UNL     1       6.381   5.164  18.489  0.00  0.00    +0.000 A 
ATOM     15  F   UNL     1       6.556   5.603  19.745  0.00  0.00    +0.000 F 
ATOM     16  C   UNL     1       7.509   5.022  17.686  0.00  0.00    +0.000 A 
ATOM     17  C   UNL     1       7.387   4.474  16.411  0.00  0.00    +0.000 A 
ATOM     18  C   UNL     1       6.131   4.078  15.948  0.00  0.00    +0.000 A 
ATOM     19  C   UNL     1       5.004   4.246  16.754  0.00  0.00    +0.000 A 
ATOM     20  F   UNL     1       3.814   3.862  16.273  0.00  0.00    +0.000 F 
ENDBRANCH   7  13
BRANCH   1  24
ATOM     21  C   UNL     1       1.325  12.890  19.360  0.00  0.00    +0.000 A 
ATOM     22  C   UNL     1       2.341  12.619  18.432  0.00  0.00    +0.000 A 
ATOM     23  C   UNL     1       2.531  11.341  17.877  0.00  0.00    +0.000 A 
ATOM     24  C   UNL     1       1.708  10.266  18.230  0.00  0.00    +0.000 A 
ATOM     25  C   UNL     1       0.659  10.536  19.105  0.00  0.00    +0.000 A 
ATOM     26  C   UNL     1       0.475  11.814  19.655  0.00  0.00    +0.000 A 
BRANCH  21  28
ATOM     27  C   UNL     1       0.849  15.307  19.117  0.00  0.00    +0.000 C 
ATOM     28  N   UNL     1       1.148  14.143  19.940  0.00  0.00    +0.000 N 
ATOM     29  C   UNL     1       1.637  14.387  21.293  0.00  0.00    +0.000 C 
ENDBRANCH  21  28
ENDBRANCH   1  24
TORSDOF 3
ENDMDL
MODEL 5
REMARK VINA RESULT:      -7.5      1.103      2.093
REMARK  Name = 
REMARK  5 active torsions:
REMARK  status: ('A' for Active; 'I' for Inactive)
REMARK    1  A    between atoms: C_1  and  N_2
REMARK    2  A    between atoms: N_2  and  C_3
REMARK    3  A    between atoms: N_2  and  C_4
REMARK    4  A    between atoms: C_7  and  N_8
REMARK    5  A    between atoms: C_14  and  C_16
REMARK                            x       y       z     vdW  Elec       q    Type
REMARK                         _______ _______ _______ _____ _____    ______ ____
ROOT
ATOM      1  N   UNL     1       1.776   8.407  18.393  0.00  0.00    +0.000 N 
ATOM      2  C   UNL     1       2.127   7.197  18.877  0.00  0.00    +0.000 A 
ATOM      3  N   UNL     1       1.720   6.752  20.102  0.00  0.00    +0.000 NA
ATOM      4  C   UNL     1       2.349   5.619  20.261  0.00  0.00    +0.000 A 
ATOM      5  N   UNL     1       2.328   4.835  21.356  0.00  0.00    +0.000 N 
ATOM      6  N   UNL     1       3.140   5.384  19.149  0.00  0.00    +0.000 N 
ATOM      7  C   UNL     1       4.067   4.356  18.934  0.00  0.00    +0.000 C 
ATOM      8  O   UNL     1       3.962   3.337  19.618  0.00  0.00    +0.000 OA
ATOM      9  N   UNL     1       2.927   6.354  18.219  0.00  0.00    +0.000 NA
ATOM     10  H   UNL     1       2.127   8.589  17.462  0.00  0.00    +0.000 HD
ATOM     11  H   UNL     1       1.602   4.994  22.046  0.00  0.00    +0.000 HD
ATOM     12  H   UNL     1       2.671   3.875  21.299  0.00  0.00    +0.000 HD
ENDROOT
BRANCH   7  13
ATOM     13  C   UNL     1       5.191   4.470  17.996  0.00  0.00    +0.000 A 
ATOM     14  C   UNL     1       6.431   4.928  18.450  0.00  0.00    +0.000 A 
ATOM     15  F   UNL     1       6.614   5.268  19.735  0.00  0.00    +0.000 F 
ATOM     16  C   UNL     1       7.532   4.986  17.599  0.00  0.00    +0.000 A 
ATOM     17  C   UNL     1       7.413   4.545  16.283  0.00  0.00    +0.000 A 
ATOM     18  C   UNL     1       6.187   4.056  15.828  0.00  0.00    +0.000 A 
ATOM     19  C   UNL     1       5.086   4.023  16.683  0.00  0.00    +0.000 A 
ATOM     20  F   UNL     1       3.924   3.554  16.210  0.00  0.00    +0.000 F 
ENDBRANCH   7  13
BRANCH   1  24
ATOM     21  C   UNL     1       0.918  12.057  20.474  0.00  0.00    +0.000 A 
ATOM     22  C   UNL     1       1.336  12.027  19.135  0.00  0.00    +0.000 A 
ATOM     23  C   UNL     1       1.584  10.822  18.452  0.00  0.00    +0.000 A 
ATOM     24  C   UNL     1       1.426   9.584  19.083  0.00  0.00    +0.000 A 
ATOM     25  C   UNL     1       0.955   9.599  20.393  0.00  0.00    +0.000 A 
ATOM     26  C   UNL     1       0.709  10.804  21.069  0.00  0.00    +0.000 A 
BRANCH  21  28
ATOM     27  C   UNL     1       1.768  14.228  21.307  0.00  0.00    +0.000 C 
ATOM     28  N   UNL     1       0.702  13.243  21.169  0.00  0.00    +0.000 N 
ATOM     29  C   UNL     1      -0.428  13.348  22.086  0.00  0.00    +0.000 C 
ENDBRANCH  21  28
ENDBRANCH   1  24
TORSDOF 3
ENDMDL
MODEL 6
REMARK VINA RESULT:      -7.5      1.671      1.987
REMARK  Name = 
REMARK  5 active torsions:
REMARK  status: ('A' for Active; 'I' for Inactive)
REMARK    1  A    between atoms: C_1  and  N_2
REMARK    2  A    between atoms: N_2  and  C_3
REMARK    3  A    between atoms: N_2  and  C_4
REMARK    4  A    between atoms: C_7  and  N_8
REMARK    5  A    between atoms: C_14  and  C_16
REMARK                            x       y       z     vdW  Elec       q    Type
REMARK                         _______ _______ _______ _____ _____    ______ ____
ROOT
ATOM      1  N   UNL     1       1.629   8.040  18.956  0.00  0.00    +0.000 N 
ATOM      2  C   UNL     1       2.067   6.814  19.311  0.00  0.00    +0.000 A 
ATOM      3  N   UNL     1       1.690   6.211  20.477  0.00  0.00    +0.000 NA
ATOM      4  C   UNL     1       2.401   5.116  20.520  0.00  0.00    +0.000 A 
ATOM      5  N   UNL     1       2.435   4.220  21.524  0.00  0.00    +0.000 N 
ATOM      6  N   UNL     1       3.210   5.062  19.398  0.00  0.00    +0.000 N 
ATOM      7  C   UNL     1       4.212   4.133  19.084  0.00  0.00    +0.000 C 
ATOM      8  O   UNL     1       4.180   3.041  19.653  0.00  0.00    +0.000 OA
ATOM      9  N   UNL     1       2.929   6.108  18.575  0.00  0.00    +0.000 NA
ATOM     10  H   UNL     1       1.967   8.347  18.053  0.00  0.00    +0.000 HD
ATOM     11  H   UNL     1       1.697   4.250  22.219  0.00  0.00    +0.000 HD
ATOM     12  H   UNL     1       2.848   3.299  21.368  0.00  0.00    +0.000 HD
ENDROOT
BRANCH   7  13
ATOM     13  C   UNL     1       5.327   4.430  18.176  0.00  0.00    +0.000 A 
ATOM     14  C   UNL     1       5.217   4.121  16.817  0.00  0.00    +0.000 A 
ATOM     15  F   UNL     1       4.105   3.555  16.325  0.00  0.00    +0.000 F 
ATOM     16  C   UNL     1       6.232   4.449  15.921  0.00  0.00    +0.000 A 
ATOM     17  C   UNL     1       7.360   5.129  16.372  0.00  0.00    +0.000 A 
ATOM     18  C   UNL     1       7.466   5.470  17.721  0.00  0.00    +0.000 A 
ATOM     19  C   UNL     1       6.453   5.118  18.614  0.00  0.00    +0.000 A 
ATOM     20  F   UNL     1       6.592   5.455  19.903  0.00  0.00    +0.000 F 
ENDBRANCH   7  13
BRANCH   1  24
ATOM     21  C   UNL     1       0.113  11.175  21.459  0.00  0.00    +0.000 A 
ATOM     22  C   UNL     1       0.405   9.891  21.943  0.00  0.00    +0.000 A 
ATOM     23  C   UNL     1       0.932   8.880  21.120  0.00  0.00    +0.000 A 
ATOM     24  C   UNL     1       1.191   9.108  19.765  0.00  0.00    +0.000 A 
ATOM     25  C   UNL     1       0.961  10.394  19.286  0.00  0.00    +0.000 A 
ATOM     26  C   UNL     1       0.434  11.399  20.113  0.00  0.00    +0.000 A 
BRANCH  21  28
ATOM     27  C   UNL     1      -1.637  11.915  23.046  0.00  0.00    +0.000 C 
ATOM     28  N   UNL     1      -0.441  12.173  22.256  0.00  0.00    +0.000 N 
ATOM     29  C   UNL     1      -0.083  13.568  22.020  0.00  0.00    +0.000 C 
ENDBRANCH  21  28
ENDBRANCH   1  24
TORSDOF 3
ENDMDL
MODEL 7
REMARK VINA RESULT:      -7.4      1.482      2.365
REMARK  Name = 
REMARK  5 active torsions:
REMARK  status: ('A' for Active; 'I' for Inactive)
REMARK    1  A    between atoms: C_1  and  N_2
REMARK    2  A    between atoms: N_2  and  C_3
REMARK    3  A    between atoms: N_2  and  C_4
REMARK    4  A    between atoms: C_7  and  N_8
REMARK    5  A    between atoms: C_14  and  C_16
REMARK                            x       y       z     vdW  Elec       q    Type
REMARK                         _______ _______ _______ _____ _____    ______ ____
ROOT
ATOM      1  N   UNL     1       1.633   8.229  18.813  0.00  0.00    +0.000 N 
ATOM      2  C   UNL     1       2.042   7.003  19.202  0.00  0.00    +0.000 A 
ATOM      3  N   UNL     1       1.693   6.461  20.406  0.00  0.00    +0.000 NA
ATOM      4  C   UNL     1       2.366   5.344  20.466  0.00  0.00    +0.000 A 
ATOM      5  N   UNL     1       2.410   4.488  21.504  0.00  0.00    +0.000 N 
ATOM      6  N   UNL     1       3.125   5.214  19.316  0.00  0.00    +0.000 N 
ATOM      7  C   UNL     1       4.079   4.237  19.001  0.00  0.00    +0.000 C 
ATOM      8  O   UNL     1       4.033   3.171  19.616  0.00  0.00    +0.000 OA
ATOM      9  N   UNL     1       2.847   6.236  18.461  0.00  0.00    +0.000 NA
ATOM     10  H   UNL     1       1.944   8.487  17.886  0.00  0.00    +0.000 HD
ATOM     11  H   UNL     1       1.703   4.573  22.227  0.00  0.00    +0.000 HD
ATOM     12  H   UNL     1       2.784   3.547  21.371  0.00  0.00    +0.000 HD
ENDROOT
BRANCH   7  13
ATOM     13  C   UNL     1       5.165   4.456  18.037  0.00  0.00    +0.000 A 
ATOM     14  C   UNL     1       6.400   4.939  18.479  0.00  0.00    +0.000 A 
ATOM     15  F   UNL     1       6.612   5.208  19.776  0.00  0.00    +0.000 F 
ATOM     16  C   UNL     1       7.468   5.095  17.599  0.00  0.00    +0.000 A 
ATOM     17  C   UNL     1       7.323   4.729  16.263  0.00  0.00    +0.000 A 
ATOM     18  C   UNL     1       6.104   4.216  15.817  0.00  0.00    +0.000 A 
ATOM     19  C   UNL     1       5.034   4.085  16.703  0.00  0.00    +0.000 A 
ATOM     20  F   UNL     1       3.877   3.596  16.238  0.00  0.00    +0.000 F 
ENDBRANCH   7  13
BRANCH   1  24
ATOM     21  C   UNL     1       0.319  11.533  21.211  0.00  0.00    +0.000 A 
ATOM     22  C   UNL     1       0.388  10.220  21.700  0.00  0.00    +0.000 A 
ATOM     23  C   UNL     1       0.851   9.149  20.915  0.00  0.00    +0.000 A 
ATOM     24  C   UNL     1       1.267   9.343  19.594  0.00  0.00    +0.000 A 
ATOM     25  C   UNL     1       1.259  10.651  19.116  0.00  0.00    +0.000 A 
ATOM     26  C   UNL     1       0.796  11.715  19.905  0.00  0.00    +0.000 A 
BRANCH  21  28
ATOM     27  C   UNL     1      -1.337  12.423  22.823  0.00  0.00    +0.000 C 
ATOM     28  N   UNL     1      -0.169  12.594  21.968  0.00  0.00    +0.000 N 
ATOM     29  C   UNL     1       0.219  13.960  21.631  0.00  0.00    +0.000 C 
ENDBRANCH  21  28
ENDBRANCH   1  24
TORSDOF 3
ENDMDL
MODEL 8
REMARK VINA RESULT:      -7.4      4.850      6.474
REMARK  Name = 
REMARK  5 active torsions:
REMARK  status: ('A' for Active; 'I' for Inactive)
REMARK    1  A    between atoms: C_1  and  N_2
REMARK    2  A    between atoms: N_2  and  C_3
REMARK    3  A    between atoms: N_2  and  C_4
REMARK    4  A    between atoms: C_7  and  N_8
REMARK    5  A    between atoms: C_14  and  C_16
REMARK                            x       y       z     vdW  Elec       q    Type
REMARK                         _______ _______ _______ _____ _____    ______ ____
ROOT
ATOM      1  N   UNL     1       8.135   7.906  18.901  0.00  0.00    +0.000 N 
ATOM      2  C   UNL     1       7.516   6.992  18.124  0.00  0.00    +0.000 A 
ATOM      3  N   UNL     1       7.663   6.964  16.766  0.00  0.00    +0.000 NA
ATOM      4  C   UNL     1       6.833   6.038  16.370  0.00  0.00    +0.000 A 
ATOM      5  N   UNL     1       6.563   5.693  15.096  0.00  0.00    +0.000 N 
ATOM      6  N   UNL     1       6.179   5.518  17.473  0.00  0.00    +0.000 N 
ATOM      7  C   UNL     1       5.128   4.591  17.514  0.00  0.00    +0.000 C 
ATOM      8  O   UNL     1       4.959   3.873  16.527  0.00  0.00    +0.000 OA
ATOM      9  N   UNL     1       6.685   6.067  18.611  0.00  0.00    +0.000 NA
ATOM     10  H   UNL     1       7.957   7.787  19.889  0.00  0.00    +0.000 HD
ATOM     11  H   UNL     1       7.202   6.002  14.370  0.00  0.00    +0.000 HD
ATOM     12  H   UNL     1       6.072   4.820  14.900  0.00  0.00    +0.000 HD
ENDROOT
BRANCH   7  13
ATOM     13  C   UNL     1       4.185   4.494  18.634  0.00  0.00    +0.000 A 
ATOM     14  C   UNL     1       3.226   5.493  18.824  0.00  0.00    +0.000 A 
ATOM     15  F   UNL     1       3.152   6.545  17.996  0.00  0.00    +0.000 F 
ATOM     16  C   UNL     1       2.278   5.395  19.839  0.00  0.00    +0.000 A 
ATOM     17  C   UNL     1       2.254   4.268  20.658  0.00  0.00    +0.000 A 
ATOM     18  C   UNL     1       3.187   3.250  20.457  0.00  0.00    +0.000 A 
ATOM     19  C   UNL     1       4.146   3.369  19.451  0.00  0.00    +0.000 A 
ATOM     20  F   UNL     1       5.030   2.375  19.293  0.00  0.00    +0.000 F 
ENDBRANCH   7  13
BRANCH   1  24
ATOM     21  C   UNL     1       9.443  11.916  18.129  0.00  0.00    +0.000 A 
ATOM     22  C   UNL     1      10.062  11.085  19.074  0.00  0.00    +0.000 A 
ATOM     23  C   UNL     1       9.645   9.760  19.297  0.00  0.00    +0.000 A 
ATOM     24  C   UNL     1       8.581   9.204  18.580  0.00  0.00    +0.000 A 
ATOM     25  C   UNL     1       7.998   9.999  17.597  0.00  0.00    +0.000 A 
ATOM     26  C   UNL     1       8.418  11.320  17.380  0.00  0.00    +0.000 A 
BRANCH  21  28
ATOM     27  C   UNL     1       8.888  14.329  18.161  0.00  0.00    +0.000 C 
ATOM     28  N   UNL     1       9.826  13.239  17.924  0.00  0.00    +0.000 N 
ATOM     29  C   UNL     1      11.003  13.533  17.114  0.00  0.00    +0.000 C 
ENDBRANCH  21  28
ENDBRANCH   1  24
TORSDOF 3
ENDMDL
MODEL 9
REMARK VINA RESULT:      -7.3      4.812      6.495
REMARK  Name = 
REMARK  5 active torsions:
REMARK  status: ('A' for Active; 'I' for Inactive)
REMARK    1  A    between atoms: C_1  and  N_2
REMARK    2  A    between atoms: N_2  and  C_3
REMARK    3  A    between atoms: N_2  and  C_4
REMARK    4  A    between atoms: C_7  and  N_8
REMARK    5  A    between atoms: C_14  and  C_16
REMARK                            x       y       z     vdW  Elec       q    Type
REMARK                         _______ _______ _______ _____ _____    ______ ____
ROOT
ATOM      1  N   UNL     1       8.041   7.911  18.870  0.00  0.00    +0.000 N 
ATOM      2  C   UNL     1       7.467   6.988  18.071  0.00  0.00    +0.000 A 
ATOM      3  N   UNL     1       7.703   6.934  16.727  0.00  0.00    +0.000 NA
ATOM      4  C   UNL     1       6.892   6.007  16.293  0.00  0.00    +0.000 A 
ATOM      5  N   UNL     1       6.704   5.640  15.011  0.00  0.00    +0.000 N 
ATOM      6  N   UNL     1       6.162   5.512  17.360  0.00  0.00    +0.000 N 
ATOM      7  C   UNL     1       5.103   4.595  17.348  0.00  0.00    +0.000 C 
ATOM      8  O   UNL     1       4.993   3.860  16.366  0.00  0.00    +0.000 OA
ATOM      9  N   UNL     1       6.597   6.079  18.519  0.00  0.00    +0.000 NA
ATOM     10  H   UNL     1       7.797   7.813  19.847  0.00  0.00    +0.000 HD
ATOM     11  H   UNL     1       7.391   5.931  14.323  0.00  0.00    +0.000 HD
ATOM     12  H   UNL     1       6.219   4.767  14.798  0.00  0.00    +0.000 HD
ENDROOT
BRANCH   7  13
ATOM     13  C   UNL     1       4.087   4.525  18.406  0.00  0.00    +0.000 A 
ATOM     14  C   UNL     1       4.110   3.470  19.322  0.00  0.00    +0.000 A 
ATOM     15  F   UNL     1       5.049   2.515  19.253  0.00  0.00    +0.000 F 
ATOM     16  C   UNL     1       3.199   3.412  20.374  0.00  0.00    +0.000 A 
ATOM     17  C   UNL     1       2.272   4.438  20.544  0.00  0.00    +0.000 A 
ATOM     18  C   UNL     1       2.261   5.512  19.653  0.00  0.00    +0.000 A 
ATOM     19  C   UNL     1       3.164   5.548  18.590  0.00  0.00    +0.000 A 
ATOM     20  F   UNL     1       3.119   6.591  17.751  0.00  0.00    +0.000 F 
ENDBRANCH   7  13
BRANCH   1  24
ATOM     21  C   UNL     1       9.448  11.893  18.120  0.00  0.00    +0.000 A 
ATOM     22  C   UNL     1      10.048  11.040  19.059  0.00  0.00    +0.000 A 
ATOM     23  C   UNL     1       9.598   9.725  19.274  0.00  0.00    +0.000 A 
ATOM     24  C   UNL     1       8.519   9.200  18.556  0.00  0.00    +0.000 A 
ATOM     25  C   UNL     1       7.953  10.015  17.581  0.00  0.00    +0.000 A 
ATOM     26  C   UNL     1       8.406  11.327  17.371  0.00  0.00    +0.000 A 
BRANCH  21  28
ATOM     27  C   UNL     1       8.956  14.319  18.177  0.00  0.00    +0.000 C 
ATOM     28  N   UNL     1       9.863  13.207  17.922  0.00  0.00    +0.000 N 
ATOM     29  C   UNL     1      11.039  13.477  17.103  0.00  0.00    +0.000 C 
ENDBRANCH  21  28
ENDBRANCH   1  24
TORSDOF 3
ENDMDL
