MODEL 1
REMARK VINA RESULT:      -8.1      0.000      0.000
REMARK  Name = 
REMARK  4 active torsions:
REMARK  status: ('A' for Active; 'I' for Inactive)
REMARK    1  A    between atoms: C_1  and  C_2
REMARK    2  A    between atoms: C_4  and  C_5
REMARK    3  A    between atoms: C_8  and  S_9
REMARK    4  A    between atoms: S_9  and  N_12
REMARK                            x       y       z     vdW  Elec       q    Type
REMARK                         _______ _______ _______ _____ _____    ______ ____
ROOT
ATOM      1  S   UNL     1       2.257   3.544  18.869  0.00  0.00    +0.000 S 
ATOM      2  O   UNL     1       2.271   2.854  20.146  0.00  0.00    +0.000 OA
ATOM      3  O   UNL     1       1.225   3.303  17.883  0.00  0.00    +0.000 OA
ENDROOT
BRANCH   1   4
ATOM      4  N   UNL     1       3.752   3.361  18.130  0.00  0.00    +0.000 NA
ATOM      5  C   UNL     1       4.974   3.597  18.927  0.00  0.00    +0.000 C 
ATOM      6  C   UNL     1       5.755   4.824  18.457  0.00  0.00    +0.000 C 
ATOM      7  C   UNL     1       6.060   4.726  16.986  0.00  0.00    +0.000 A 
ATOM      8  C   UNL     1       7.225   5.287  16.451  0.00  0.00    +0.000 A 
ATOM      9  C   UNL     1       7.504   5.154  15.091  0.00  0.00    +0.000 A 
ATOM     10  C   UNL     1       6.619   4.470  14.261  0.00  0.00    +0.000 A 
ATOM     11  C   UNL     1       5.436   3.948  14.781  0.00  0.00    +0.000 A 
ATOM     12  C   UNL     1       5.143   4.078  16.145  0.00  0.00    +0.000 A 
ATOM     13  C   UNL     1       3.807   3.621  16.683  0.00  0.00    +0.000 C 
ENDBRANCH   1   4
BRANCH   1  17
ATOM     14  C   UNL     1       1.559   7.316  20.556  0.00  0.00    +0.000 A 
ATOM     15  C   UNL     1       2.176   7.596  19.352  0.00  0.00    +0.000 A 
ATOM     16  C   UNL     1       2.438   6.421  18.592  0.00  0.00    +0.000 A 
ATOM     17  C   UNL     1       2.102   5.272  19.277  0.00  0.00    +0.000 A 
ATOM     18  S   UNL     1       1.448   5.625  20.814  0.00  0.00    +0.000 S 
BRANCH  14  22
ATOM     19  C   UNL     1      -1.239  10.677  23.067  0.00  0.00    +0.000 C 
ATOM     20  C   UNL     1      -0.171   9.769  22.602  0.00  0.00    +0.000 A 
ATOM     21  C   UNL     1      -0.244   8.800  21.583  0.00  0.00    +0.000 A 
ATOM     22  C   UNL     1       1.027   8.271  21.487  0.00  0.00    +0.000 A 
ATOM     23  O   UNL     1       1.796   8.874  22.450  0.00  0.00    +0.000 OA
ATOM     24  N   UNL     1       1.052   9.812  23.142  0.00  0.00    +0.000 NA
ENDBRANCH  14  22
ENDBRANCH   1  17
TORSDOF 3
ENDMDL
MODEL 2
REMARK VINA RESULT:      -8.1      4.586      6.863
REMARK  Name = 
REMARK  4 active torsions:
REMARK  status: ('A' for Active; 'I' for Inactive)
REMARK    1  A    between atoms: C_1  and  C_2
REMARK    2  A    between atoms: C_4  and  C_5
REMARK    3  A    between atoms: C_8  and  S_9
REMARK    4  A    between atoms: S_9  and  N_12
REMARK                            x       y       z     vdW  Elec       q    Type
REMARK                         _______ _______ _______ _____ _____    ______ ____
ROOT
ATOM      1  S   UNL     1       5.621   5.108  16.152  0.00  0.00    +0.000 S 
ATOM      2  O   UNL     1       5.429   5.937  14.976  0.00  0.00    +0.000 OA
ATOM      3  O   UNL     1       6.220   3.793  16.069  0.00  0.00    +0.000 OA
ENDROOT
BRANCH   1   4
ATOM      4  N   UNL     1       4.164   4.978  16.976  0.00  0.00    +0.000 NA
ATOM      5  C   UNL     1       3.671   6.144  17.738  0.00  0.00    +0.000 C 
ATOM      6  C   UNL     1       3.660   5.899  19.247  0.00  0.00    +0.000 C 
ATOM      7  C   UNL     1       2.885   4.651  19.575  0.00  0.00    +0.000 A 
ATOM      8  C   UNL     1       2.177   4.535  20.776  0.00  0.00    +0.000 A 
ATOM      9  C   UNL     1       1.438   3.383  21.043  0.00  0.00    +0.000 A 
ATOM     10  C   UNL     1       1.409   2.341  20.119  0.00  0.00    +0.000 A 
ATOM     11  C   UNL     1       2.148   2.434  18.940  0.00  0.00    +0.000 A 
ATOM     12  C   UNL     1       2.897   3.585  18.661  0.00  0.00    +0.000 A 
ATOM     13  C   UNL     1       3.792   3.634  17.446  0.00  0.00    +0.000 C 
ENDBRANCH   1   4
BRANCH   1  17
ATOM     14  C   UNL     1       7.926   7.969  18.167  0.00  0.00    +0.000 A 
ATOM     15  C   UNL     1       8.196   6.790  18.835  0.00  0.00    +0.000 A 
ATOM     16  C   UNL     1       7.541   5.672  18.245  0.00  0.00    +0.000 A 
ATOM     17  C   UNL     1       6.716   6.041  17.204  0.00  0.00    +0.000 A 
ATOM     18  S   UNL     1       6.763   7.726  16.931  0.00  0.00    +0.000 S 
BRANCH  14  22
ATOM     19  C   UNL     1       9.799  12.641  17.852  0.00  0.00    +0.000 C 
ATOM     20  C   UNL     1       9.390  11.291  18.292  0.00  0.00    +0.000 A 
ATOM     21  C   UNL     1       8.551  10.382  17.621  0.00  0.00    +0.000 A 
ATOM     22  C   UNL     1       8.537   9.247  18.406  0.00  0.00    +0.000 A 
ATOM     23  O   UNL     1       9.298   9.507  19.517  0.00  0.00    +0.000 OA
ATOM     24  N   UNL     1       9.835  10.780  19.444  0.00  0.00    +0.000 NA
ENDBRANCH  14  22
ENDBRANCH   1  17
TORSDOF 3
ENDMDL
MODEL 3
REMARK VINA RESULT:      -7.7      2.279      2.784
REMARK  Name = 
REMARK  4 active torsions:
REMARK  status: ('A' for Active; 'I' for Inactive)
REMARK    1  A    between atoms: C_1  and  C_2
REMARK    2  A    between atoms: C_4  and  C_5
REMARK    3  A    between atoms: C_8  and  S_9
REMARK    4  A    between atoms: S_9  and  N_12
REMARK                            x       y       z     vdW  Elec       q    Type
REMARK                         _______ _______ _______ _____ _____    ______ ____
ROOT
ATOM      1  S   UNL     1       4.709   4.072  18.246  0.00  0.00    +0.000 S 
ATOM      2  O   UNL     1       5.426   4.114  19.507  0.00  0.00    +0.000 OA
ATOM      3  O   UNL     1       3.579   3.192  18.041  0.00  0.00    +0.000 OA
ENDROOT
BRANCH   1   4
ATOM      4  N   UNL     1       5.806   3.828  16.999  0.00  0.00    +0.000 NA
ATOM      5  C   UNL     1       7.133   4.472  17.083  0.00  0.00    +0.000 C 
ATOM      6  C   UNL     1       7.335   5.547  16.015  0.00  0.00    +0.000 C 
ATOM      7  C   UNL     1       7.074   4.986  14.643  0.00  0.00    +0.000 A 
ATOM      8  C   UNL     1       7.763   5.465  13.524  0.00  0.00    +0.000 A 
ATOM      9  C   UNL     1       7.530   4.906  12.267  0.00  0.00    +0.000 A 
ATOM     10  C   UNL     1       6.603   3.876  12.122  0.00  0.00    +0.000 A 
ATOM     11  C   UNL     1       5.882   3.426  13.227  0.00  0.00    +0.000 A 
ATOM     12  C   UNL     1       6.105   3.981  14.495  0.00  0.00    +0.000 A 
ATOM     13  C   UNL     1       5.239   3.579  15.664  0.00  0.00    +0.000 C 
ENDBRANCH   1   4
BRANCH   1  17
ATOM     14  C   UNL     1       2.661   7.724  18.390  0.00  0.00    +0.000 A 
ATOM     15  C   UNL     1       3.599   7.905  17.392  0.00  0.00    +0.000 A 
ATOM     16  C   UNL     1       4.363   6.729  17.148  0.00  0.00    +0.000 A 
ATOM     17  C   UNL     1       4.053   5.714  18.030  0.00  0.00    +0.000 A 
ATOM     18  S   UNL     1       2.826   6.182  19.121  0.00  0.00    +0.000 S 
BRANCH  14  22
ATOM     19  C   UNL     1      -0.828  11.358  18.625  0.00  0.00    +0.000 C 
ATOM     20  C   UNL     1       0.112  10.258  18.921  0.00  0.00    +0.000 A 
ATOM     21  C   UNL     1       0.871   9.501  18.008  0.00  0.00    +0.000 A 
ATOM     22  C   UNL     1       1.636   8.652  18.780  0.00  0.00    +0.000 A 
ATOM     23  O   UNL     1       1.297   8.872  20.091  0.00  0.00    +0.000 OA
ATOM     24  N   UNL     1       0.351   9.877  20.181  0.00  0.00    +0.000 NA
ENDBRANCH  14  22
ENDBRANCH   1  17
TORSDOF 3
ENDMDL
MODEL 4
REMARK VINA RESULT:      -7.5      4.843      7.166
REMARK  Name = 
REMARK  4 active torsions:
REMARK  status: ('A' for Active; 'I' for Inactive)
REMARK    1  A    between atoms: C_1  and  C_2
REMARK    2  A    between atoms: C_4  and  C_5
REMARK    3  A    between atoms: C_8  and  S_9
REMARK    4  A    between atoms: S_9  and  N_12
REMARK                            x       y       z     vdW  Elec       q    Type
REMARK                         _______ _______ _______ _____ _____    ______ ____
ROOT
ATOM      1  S   UNL     1       5.747   5.879  16.531  0.00  0.00    +0.000 S 
ATOM      2  O   UNL     1       4.802   6.901  16.119  0.00  0.00    +0.000 OA
ATOM      3  O   UNL     1       6.537   5.139  15.571  0.00  0.00    +0.000 OA
ENDROOT
BRANCH   1   4
ATOM      4  N   UNL     1       4.968   4.783  17.535  0.00  0.00    +0.000 NA
ATOM      5  C   UNL     1       4.497   3.504  16.964  0.00  0.00    +0.000 C 
ATOM      6  C   UNL     1       2.973   3.393  16.944  0.00  0.00    +0.000 C 
ATOM      7  C   UNL     1       2.407   3.630  18.319  0.00  0.00    +0.000 A 
ATOM      8  C   UNL     1       1.236   2.991  18.738  0.00  0.00    +0.000 A 
ATOM      9  C   UNL     1       0.749   3.199  20.029  0.00  0.00    +0.000 A 
ATOM     10  C   UNL     1       1.423   4.051  20.900  0.00  0.00    +0.000 A 
ATOM     11  C   UNL     1       2.566   4.724  20.473  0.00  0.00    +0.000 A 
ATOM     12  C   UNL     1       3.064   4.526  19.177  0.00  0.00    +0.000 A 
ATOM     13  C   UNL     1       4.228   5.347  18.676  0.00  0.00    +0.000 C 
ENDBRANCH   1   4
BRANCH   1  17
ATOM     14  C   UNL     1       8.288   8.575  18.489  0.00  0.00    +0.000 A 
ATOM     15  C   UNL     1       8.545   7.365  19.105  0.00  0.00    +0.000 A 
ATOM     16  C   UNL     1       7.809   6.295  18.522  0.00  0.00    +0.000 A 
ATOM     17  C   UNL     1       6.941   6.732  17.543  0.00  0.00    +0.000 A 
ATOM     18  S   UNL     1       7.045   8.421  17.318  0.00  0.00    +0.000 S 
BRANCH  14  22
ATOM     19  C   UNL     1      10.792  12.939  18.137  0.00  0.00    +0.000 C 
ATOM     20  C   UNL     1      10.086  11.729  18.608  0.00  0.00    +0.000 A 
ATOM     21  C   UNL     1       9.375  10.789  17.838  0.00  0.00    +0.000 A 
ATOM     22  C   UNL     1       8.966   9.818  18.728  0.00  0.00    +0.000 A 
ATOM     23  O   UNL     1       9.381  10.206  19.977  0.00  0.00    +0.000 OA
ATOM     24  N   UNL     1      10.084  11.395  19.903  0.00  0.00    +0.000 NA
ENDBRANCH  14  22
ENDBRANCH   1  17
TORSDOF 3
ENDMDL
MODEL 5
REMARK VINA RESULT:      -7.5      1.758      1.792
REMARK  Name = 
REMARK  4 active torsions:
REMARK  status: ('A' for Active; 'I' for Inactive)
REMARK    1  A    between atoms: C_1  and  C_2
REMARK    2  A    between atoms: C_4  and  C_5
REMARK    3  A    between atoms: C_8  and  S_9
REMARK    4  A    between atoms: S_9  and  N_12
REMARK                            x       y       z     vdW  Elec       q    Type
REMARK                         _______ _______ _______ _____ _____    ______ ____
ROOT
ATOM      1  S   UNL     1       2.432   4.776  19.580  0.00  0.00    +0.000 S 
ATOM      2  O   UNL     1       2.638   4.678  21.014  0.00  0.00    +0.000 OA
ATOM      3  O   UNL     1       1.333   4.106  18.920  0.00  0.00    +0.000 OA
ENDROOT
BRANCH   1   4
ATOM      4  N   UNL     1       3.856   4.366  18.792  0.00  0.00    +0.000 NA
ATOM      5  C   UNL     1       5.133   4.910  19.300  0.00  0.00    +0.000 C 
ATOM      6  C   UNL     1       5.783   5.892  18.326  0.00  0.00    +0.000 C 
ATOM      7  C   UNL     1       5.947   5.262  16.969  0.00  0.00    +0.000 A 
ATOM      8  C   UNL     1       7.015   5.610  16.135  0.00  0.00    +0.000 A 
ATOM      9  C   UNL     1       7.166   4.988  14.896  0.00  0.00    +0.000 A 
ATOM     10  C   UNL     1       6.249   4.024  14.482  0.00  0.00    +0.000 A 
ATOM     11  C   UNL     1       5.159   3.706  15.290  0.00  0.00    +0.000 A 
ATOM     12  C   UNL     1       4.994   4.327  16.536  0.00  0.00    +0.000 A 
ATOM     13  C   UNL     1       3.750   4.072  17.354  0.00  0.00    +0.000 C 
ENDBRANCH   1   4
BRANCH   1  17
ATOM     14  C   UNL     1       1.538   8.868  19.658  0.00  0.00    +0.000 A 
ATOM     15  C   UNL     1       2.048   8.661  18.391  0.00  0.00    +0.000 A 
ATOM     16  C   UNL     1       2.356   7.293  18.149  0.00  0.00    +0.000 A 
ATOM     17  C   UNL     1       2.162   6.510  19.268  0.00  0.00    +0.000 A 
ATOM     18  S   UNL     1       1.584   7.428  20.586  0.00  0.00    +0.000 S 
BRANCH  14  22
ATOM     19  C   UNL     1      -0.477  13.449  20.293  0.00  0.00    +0.000 C 
ATOM     20  C   UNL     1       0.126  12.113  20.482  0.00  0.00    +0.000 A 
ATOM     21  C   UNL     1       0.341  11.117  19.510  0.00  0.00    +0.000 A 
ATOM     22  C   UNL     1       0.990  10.094  20.170  0.00  0.00    +0.000 A 
ATOM     23  O   UNL     1       1.103  10.461  21.487  0.00  0.00    +0.000 OA
ATOM     24  N   UNL     1       0.570  11.723  21.682  0.00  0.00    +0.000 NA
ENDBRANCH  14  22
ENDBRANCH   1  17
TORSDOF 3
ENDMDL
MODEL 6
REMARK VINA RESULT:      -7.3      2.484      7.897
REMARK  Name = 
REMARK  4 active torsions:
REMARK  status: ('A' for Active; 'I' for Inactive)
REMARK    1  A    between atoms: C_1  and  C_2
REMARK    2  A    between atoms: C_4  and  C_5
REMARK    3  A    between atoms: C_8  and  S_9
REMARK    4  A    between atoms: S_9  and  N_12
REMARK                            x       y       z     vdW  Elec       q    Type
REMARK                         _______ _______ _______ _____ _____    ______ ____
ROOT
ATOM      1  S   UNL     1       3.273   3.487  19.326  0.00  0.00    +0.000 S 
ATOM      2  O   UNL     1       2.717   2.378  18.574  0.00  0.00    +0.000 OA
ATOM      3  O   UNL     1       3.784   3.318  20.669  0.00  0.00    +0.000 OA
ENDROOT
BRANCH   1   4
ATOM      4  N   UNL     1       2.170   4.753  19.333  0.00  0.00    +0.000 NA
ATOM      5  C   UNL     1       1.843   5.418  18.055  0.00  0.00    +0.000 C 
ATOM      6  C   UNL     1       2.333   6.866  18.002  0.00  0.00    +0.000 C 
ATOM      7  C   UNL     1       1.816   7.643  19.183  0.00  0.00    +0.000 A 
ATOM      8  C   UNL     1       1.540   9.010  19.083  0.00  0.00    +0.000 A 
ATOM      9  C   UNL     1       1.029   9.703  20.180  0.00  0.00    +0.000 A 
ATOM     10  C   UNL     1       0.801   9.036  21.382  0.00  0.00    +0.000 A 
ATOM     11  C   UNL     1       1.116   7.684  21.500  0.00  0.00    +0.000 A 
ATOM     12  C   UNL     1       1.633   6.977  20.405  0.00  0.00    +0.000 A 
ATOM     13  C   UNL     1       2.088   5.547  20.570  0.00  0.00    +0.000 C 
ENDBRANCH   1   4
BRANCH   1  17
ATOM     14  C   UNL     1       6.061   4.626  16.415  0.00  0.00    +0.000 A 
ATOM     15  C   UNL     1       6.702   4.885  17.611  0.00  0.00    +0.000 A 
ATOM     16  C   UNL     1       5.922   4.496  18.737  0.00  0.00    +0.000 A 
ATOM     17  C   UNL     1       4.672   4.040  18.372  0.00  0.00    +0.000 A 
ATOM     18  S   UNL     1       4.465   4.060  16.678  0.00  0.00    +0.000 S 
BRANCH  14  22
ATOM     19  C   UNL     1       7.346   4.129  11.563  0.00  0.00    +0.000 C 
ATOM     20  C   UNL     1       7.224   4.551  12.973  0.00  0.00    +0.000 A 
ATOM     21  C   UNL     1       6.268   4.134  13.919  0.00  0.00    +0.000 A 
ATOM     22  C   UNL     1       6.622   4.758  15.098  0.00  0.00    +0.000 A 
ATOM     23  O   UNL     1       7.712   5.547  14.834  0.00  0.00    +0.000 OA
ATOM     24  N   UNL     1       8.092   5.415  13.510  0.00  0.00    +0.000 NA
ENDBRANCH  14  22
ENDBRANCH   1  17
TORSDOF 3
ENDMDL
MODEL 7
REMARK VINA RESULT:      -7.3      2.785      8.065
REMARK  Name = 
REMARK  4 active torsions:
REMARK  status: ('A' for Active; 'I' for Inactive)
REMARK    1  A    between atoms: C_1  and  C_2
REMARK    2  A    between atoms: C_4  and  C_5
REMARK    3  A    between atoms: C_8  and  S_9
REMARK    4  A    between atoms: S_9  and  N_12
REMARK                            x       y       z     vdW  Elec       q    Type
REMARK                         _______ _______ _______ _____ _____    ______ ____
ROOT
ATOM      1  S   UNL     1       2.423   5.529  19.774  0.00  0.00    +0.000 S 
ATOM      2  O   UNL     1       1.396   5.130  18.829  0.00  0.00    +0.000 OA
ATOM      3  O   UNL     1       2.626   4.825  21.022  0.00  0.00    +0.000 OA
ENDROOT
BRANCH   1   4
ATOM      4  N   UNL     1       2.255   7.165  20.109  0.00  0.00    +0.000 NA
ATOM      5  C   UNL     1       1.695   7.571  21.415  0.00  0.00    +0.000 C 
ATOM      6  C   UNL     1       0.329   8.246  21.286  0.00  0.00    +0.000 C 
ATOM      7  C   UNL     1       0.400   9.404  20.327  0.00  0.00    +0.000 A 
ATOM      8  C   UNL     1      -0.414  10.530  20.492  0.00  0.00    +0.000 A 
ATOM      9  C   UNL     1      -0.307  11.606  19.611  0.00  0.00    +0.000 A 
ATOM     10  C   UNL     1       0.604  11.558  18.558  0.00  0.00    +0.000 A 
ATOM     11  C   UNL     1       1.385  10.420  18.363  0.00  0.00    +0.000 A 
ATOM     12  C   UNL     1       1.284   9.331  19.239  0.00  0.00    +0.000 A 
ATOM     13  C   UNL     1       2.039   8.054  18.956  0.00  0.00    +0.000 C 
ENDBRANCH   1   4
BRANCH   1  17
ATOM     14  C   UNL     1       5.555   5.217  17.010  0.00  0.00    +0.000 A 
ATOM     15  C   UNL     1       6.180   5.114  18.237  0.00  0.00    +0.000 A 
ATOM     16  C   UNL     1       5.255   5.135  19.319  0.00  0.00    +0.000 A 
ATOM     17  C   UNL     1       3.961   5.349  18.893  0.00  0.00    +0.000 A 
ATOM     18  S   UNL     1       3.873   5.492  17.194  0.00  0.00    +0.000 S 
BRANCH  14  22
ATOM     19  C   UNL     1       6.929   3.851  12.353  0.00  0.00    +0.000 C 
ATOM     20  C   UNL     1       6.815   4.488  13.681  0.00  0.00    +0.000 A 
ATOM     21  C   UNL     1       5.780   4.341  14.623  0.00  0.00    +0.000 A 
ATOM     22  C   UNL     1       6.173   5.080  15.720  0.00  0.00    +0.000 A 
ATOM     23  O   UNL     1       7.369   5.676  15.406  0.00  0.00    +0.000 OA
ATOM     24  N   UNL     1       7.773   5.302  14.137  0.00  0.00    +0.000 NA
ENDBRANCH  14  22
ENDBRANCH   1  17
TORSDOF 3
ENDMDL
MODEL 8
REMARK VINA RESULT:      -7.3      3.886      8.536
REMARK  Name = 
REMARK  4 active torsions:
REMARK  status: ('A' for Active; 'I' for Inactive)
REMARK    1  A    between atoms: C_1  and  C_2
REMARK    2  A    between atoms: C_4  and  C_5
REMARK    3  A    between atoms: C_8  and  S_9
REMARK    4  A    between atoms: S_9  and  N_12
REMARK                            x       y       z     vdW  Elec       q    Type
REMARK                         _______ _______ _______ _____ _____    ______ ____
ROOT
ATOM      1  S   UNL     1       0.403   9.975  20.488  0.00  0.00    +0.000 S 
ATOM      2  O   UNL     1      -0.519   9.136  21.231  0.00  0.00    +0.000 OA
ATOM      3  O   UNL     1       1.308  10.888  21.153  0.00  0.00    +0.000 OA
ENDROOT
BRANCH   1   4
ATOM      4  N   UNL     1      -0.449  10.826  19.320  0.00  0.00    +0.000 NA
ATOM      5  C   UNL     1      -1.169  12.054  19.717  0.00  0.00    +0.000 C 
ATOM      6  C   UNL     1      -2.687  11.907  19.612  0.00  0.00    +0.000 C 
ATOM      7  C   UNL     1      -3.080  11.453  18.232  0.00  0.00    +0.000 A 
ATOM      8  C   UNL     1      -4.297  11.843  17.663  0.00  0.00    +0.000 A 
ATOM      9  C   UNL     1      -4.625  11.438  16.369  0.00  0.00    +0.000 A 
ATOM     10  C   UNL     1      -3.746  10.637  15.644  0.00  0.00    +0.000 A 
ATOM     11  C   UNL     1      -2.553  10.209  16.223  0.00  0.00    +0.000 A 
ATOM     12  C   UNL     1      -2.213  10.606  17.524  0.00  0.00    +0.000 A 
ATOM     13  C   UNL     1      -0.982  10.043  18.193  0.00  0.00    +0.000 C 
ENDBRANCH   1   4
BRANCH   1  17
ATOM     14  C   UNL     1       2.788   6.813  19.122  0.00  0.00    +0.000 A 
ATOM     15  C   UNL     1       2.794   7.713  18.075  0.00  0.00    +0.000 A 
ATOM     16  C   UNL     1       2.076   8.904  18.381  0.00  0.00    +0.000 A 
ATOM     17  C   UNL     1       1.463   8.839  19.615  0.00  0.00    +0.000 A 
ATOM     18  S   UNL     1       1.784   7.358  20.400  0.00  0.00    +0.000 S 
BRANCH  14  22
ATOM     19  C   UNL     1       4.388   2.087  19.862  0.00  0.00    +0.000 C 
ATOM     20  C   UNL     1       4.274   3.523  19.536  0.00  0.00    +0.000 A 
ATOM     21  C   UNL     1       3.105   4.306  19.476  0.00  0.00    +0.000 A 
ATOM     22  C   UNL     1       3.534   5.588  19.201  0.00  0.00    +0.000 A 
ATOM     23  O   UNL     1       4.898   5.542  19.057  0.00  0.00    +0.000 OA
ATOM     24  N   UNL     1       5.361   4.256  19.271  0.00  0.00    +0.000 NA
ENDBRANCH  14  22
ENDBRANCH   1  17
TORSDOF 3
ENDMDL
MODEL 9
REMARK VINA RESULT:      -7.2      2.113      2.335
REMARK  Name = 
REMARK  4 active torsions:
REMARK  status: ('A' for Active; 'I' for Inactive)
REMARK    1  A    between atoms: C_1  and  C_2
REMARK    2  A    between atoms: C_4  and  C_5
REMARK    3  A    between atoms: C_8  and  S_9
REMARK    4  A    between atoms: S_9  and  N_12
REMARK                            x       y       z     vdW  Elec       q    Type
REMARK                         _______ _______ _______ _____ _____    ______ ____
ROOT
ATOM      1  S   UNL     1       2.187   3.316  19.023  0.00  0.00    +0.000 S 
ATOM      2  O   UNL     1       2.164   2.538  20.248  0.00  0.00    +0.000 OA
ATOM      3  O   UNL     1       1.202   3.127  17.980  0.00  0.00    +0.000 OA
ENDROOT
BRANCH   1   4
ATOM      4  N   UNL     1       3.715   3.212  18.336  0.00  0.00    +0.000 NA
ATOM      5  C   UNL     1       4.894   3.507  19.175  0.00  0.00    +0.000 C 
ATOM      6  C   UNL     1       5.628   4.774  18.736  0.00  0.00    +0.000 C 
ATOM      7  C   UNL     1       5.988   4.699  17.277  0.00  0.00    +0.000 A 
ATOM      8  C   UNL     1       7.141   5.320  16.784  0.00  0.00    +0.000 A 
ATOM      9  C   UNL     1       7.473   5.208  15.435  0.00  0.00    +0.000 A 
ATOM     10  C   UNL     1       6.653   4.484  14.571  0.00  0.00    +0.000 A 
ATOM     11  C   UNL     1       5.481   3.900  15.049  0.00  0.00    +0.000 A 
ATOM     12  C   UNL     1       5.134   4.009  16.403  0.00  0.00    +0.000 A 
ATOM     13  C   UNL     1       3.806   3.482  16.892  0.00  0.00    +0.000 C 
ENDBRANCH   1   4
BRANCH   1  17
ATOM     14  C   UNL     1       1.755   7.465  19.416  0.00  0.00    +0.000 A 
ATOM     15  C   UNL     1       1.628   6.991  20.707  0.00  0.00    +0.000 A 
ATOM     16  C   UNL     1       1.813   5.582  20.787  0.00  0.00    +0.000 A 
ATOM     17  C   UNL     1       1.980   5.007  19.544  0.00  0.00    +0.000 A 
ATOM     18  S   UNL     1       1.943   6.177  18.301  0.00  0.00    +0.000 S 
BRANCH  14  22
ATOM     19  C   UNL     1       0.896  12.387  18.732  0.00  0.00    +0.000 C 
ATOM     20  C   UNL     1       1.408  11.004  18.669  0.00  0.00    +0.000 A 
ATOM     21  C   UNL     1       1.102   9.929  19.526  0.00  0.00    +0.000 A 
ATOM     22  C   UNL     1       1.776   8.842  19.008  0.00  0.00    +0.000 A 
ATOM     23  O   UNL     1       2.488   9.281  17.920  0.00  0.00    +0.000 OA
ATOM     24  N   UNL     1       2.255  10.627  17.704  0.00  0.00    +0.000 NA
ENDBRANCH  14  22
ENDBRANCH   1  17
TORSDOF 3
ENDMDL
