MODEL 1
REMARK VINA RESULT:      -8.4      0.000      0.000
REMARK  Name = 
REMARK  8 active torsions:
REMARK  status: ('A' for Active; 'I' for Inactive)
REMARK    1  A    between atoms: C_1  and  C_2
REMARK    2  A    between atoms: C_2  and  N_3
REMARK    3  A    between atoms: C_2  and  C_28
REMARK    4  A    between atoms: C_4  and  C_6
REMARK    5  A    between atoms: C_12  and  C_13
REMARK    6  A    between atoms: N_15  and  C_16
REMARK    7  A    between atoms: C_19  and  C_20
REMARK    8  A    between atoms: C_32  and  C_33
REMARK                            x       y       z     vdW  Elec       q    Type
REMARK                         _______ _______ _______ _____ _____    ______ ____
ROOT
ATOM      1  C   UNL     1       1.307   8.418  21.055  0.00  0.00    +0.000 A 
ATOM      2  C   UNL     1       1.761   8.811  22.307  0.00  0.00    +0.000 A 
ATOM      3  N   UNL     1       1.208  10.030  22.615  0.00  0.00    +0.000 N 
ATOM      4  C   UNL     1       0.372  10.419  21.606  0.00  0.00    +0.000 A 
ATOM      5  N   UNL     1      -0.351  11.557  21.565  0.00  0.00    +0.000 NA
ATOM      6  C   UNL     1      -1.105  11.612  20.430  0.00  0.00    +0.000 A 
ATOM      7  C   UNL     1      -1.123  10.624  19.443  0.00  0.00    +0.000 A 
ATOM      8  N   UNL     1      -0.343   9.510  19.498  0.00  0.00    +0.000 NA
ATOM      9  C   UNL     1       0.404   9.428  20.631  0.00  0.00    +0.000 A 
ATOM     10  H   UNL     1       1.376  10.570  23.453  0.00  0.00    +0.000 HD
ENDROOT
BRANCH   7  11
ATOM     11  C   UNL     1      -2.026  10.710  18.296  0.00  0.00    +0.000 A 
ATOM     12  N   UNL     1      -1.711  10.208  17.087  0.00  0.00    +0.000 NA
ATOM     13  N   UNL     1      -2.795  10.468  16.328  0.00  0.00    +0.000 N 
ATOM     14  C   UNL     1      -2.829  10.006  14.960  0.00  0.00    +0.000 C 
ATOM     15  C   UNL     1      -3.781  11.170  16.972  0.00  0.00    +0.000 A 
ATOM     16  C   UNL     1      -5.019  11.682  16.546  0.00  0.00    +0.000 A 
ATOM     17  C   UNL     1      -5.814  12.410  17.454  0.00  0.00    +0.000 A 
ATOM     18  C   UNL     1      -5.348  12.562  18.769  0.00  0.00    +0.000 A 
ATOM     19  C   UNL     1      -4.118  12.037  19.192  0.00  0.00    +0.000 A 
ATOM     20  C   UNL     1      -3.318  11.335  18.270  0.00  0.00    +0.000 A 
BRANCH  17  21
ATOM     21  C   UNL     1      -7.083  13.092  16.994  0.00  0.00    +0.000 C 
ATOM     22  C   UNL     1      -7.899  13.923  17.955  0.00  0.00    +0.000 C 
ATOM     23  C   UNL     1      -7.162  14.592  16.833  0.00  0.00    +0.000 C 
ENDBRANCH  17  21
ENDBRANCH   7  11
BRANCH   1  25
ATOM     24  N   UNL     1       2.394   7.436  19.181  0.00  0.00    +0.000 N 
ATOM     25  C   UNL     1       1.712   7.207  20.355  0.00  0.00    +0.000 C 
ATOM     26  O   UNL     1       1.509   6.088  20.810  0.00  0.00    +0.000 OA
ATOM     27  H   UNL     1       2.396   8.388  18.827  0.00  0.00    +0.000 HD
BRANCH  24  29
ATOM     28  C   UNL     1       1.722   5.334  18.042  0.00  0.00    +0.000 C 
ATOM     29  C   UNL     1       2.817   6.370  18.283  0.00  0.00    +0.000 C 
BRANCH  29  30
ATOM     30  C   UNL     1       4.181   5.703  18.596  0.00  0.00    +0.000 C 
ATOM     31  O   UNL     1       4.353   5.003  19.598  0.00  0.00    +0.000 OA
ATOM     32  N   UNL     1       5.123   5.710  17.598  0.00  0.00    +0.000 N 
ATOM     33  C   UNL     1       6.426   5.061  17.595  0.00  0.00    +0.000 C 
ATOM     34  C   UNL     1       6.938   6.284  16.820  0.00  0.00    +0.000 C 
ATOM     35  C   UNL     1       5.460   6.627  16.530  0.00  0.00    +0.000 C 
BRANCH  34  36
ATOM     36  C   UNL     1       7.655   7.255  17.620  0.00  0.00    +0.000 C 
ATOM     37  N   UNL     1       8.245   8.012  18.271  0.00  0.00    +0.000 NA
ENDBRANCH  34  36
ENDBRANCH  29  30
ENDBRANCH  24  29
ENDBRANCH   1  25
TORSDOF 6
ENDMDL
MODEL 2
REMARK VINA RESULT:      -8.3      1.367      1.518
REMARK  Name = 
REMARK  8 active torsions:
REMARK  status: ('A' for Active; 'I' for Inactive)
REMARK    1  A    between atoms: C_1  and  C_2
REMARK    2  A    between atoms: C_2  and  N_3
REMARK    3  A    between atoms: C_2  and  C_28
REMARK    4  A    between atoms: C_4  and  C_6
REMARK    5  A    between atoms: C_12  and  C_13
REMARK    6  A    between atoms: N_15  and  C_16
REMARK    7  A    between atoms: C_19  and  C_20
REMARK    8  A    between atoms: C_32  and  C_33
REMARK                            x       y       z     vdW  Elec       q    Type
REMARK                         _______ _______ _______ _____ _____    ______ ____
ROOT
ATOM      1  C   UNL     1       1.438   8.460  20.725  0.00  0.00    +0.000 A 
ATOM      2  C   UNL     1       1.871   8.688  22.024  0.00  0.00    +0.000 A 
ATOM      3  N   UNL     1       1.219   9.791  22.521  0.00  0.00    +0.000 N 
ATOM      4  C   UNL     1       0.341  10.261  21.585  0.00  0.00    +0.000 A 
ATOM      5  N   UNL     1      -0.478  11.324  21.723  0.00  0.00    +0.000 NA
ATOM      6  C   UNL     1      -1.247  11.492  20.609  0.00  0.00    +0.000 A 
ATOM      7  C   UNL     1      -1.191  10.675  19.479  0.00  0.00    +0.000 A 
ATOM      8  N   UNL     1      -0.318   9.638  19.358  0.00  0.00    +0.000 NA
ATOM      9  C   UNL     1       0.446   9.443  20.465  0.00  0.00    +0.000 A 
ATOM     10  H   UNL     1       1.350  10.204  23.434  0.00  0.00    +0.000 HD
ENDROOT
BRANCH   7  11
ATOM     11  C   UNL     1      -2.112  10.863  18.357  0.00  0.00    +0.000 A 
ATOM     12  N   UNL     1      -1.815  10.473  17.104  0.00  0.00    +0.000 NA
ATOM     13  N   UNL     1      -2.911  10.800  16.388  0.00  0.00    +0.000 N 
ATOM     14  C   UNL     1      -2.966  10.463  14.984  0.00  0.00    +0.000 C 
ATOM     15  C   UNL     1      -3.887  11.438  17.108  0.00  0.00    +0.000 A 
ATOM     16  C   UNL     1      -5.133  11.983  16.749  0.00  0.00    +0.000 A 
ATOM     17  C   UNL     1      -5.914  12.623  17.732  0.00  0.00    +0.000 A 
ATOM     18  C   UNL     1      -5.429  12.657  19.048  0.00  0.00    +0.000 A 
ATOM     19  C   UNL     1      -4.191  12.098  19.402  0.00  0.00    +0.000 A 
ATOM     20  C   UNL     1      -3.405  11.484  18.409  0.00  0.00    +0.000 A 
BRANCH  17  21
ATOM     21  C   UNL     1      -7.191  13.341  17.356  0.00  0.00    +0.000 C 
ATOM     22  C   UNL     1      -7.492  14.713  17.909  0.00  0.00    +0.000 C 
ATOM     23  C   UNL     1      -7.182  14.552  16.452  0.00  0.00    +0.000 C 
ENDBRANCH  17  21
ENDBRANCH   7  11
BRANCH   1  25
ATOM     24  N   UNL     1       2.071   6.185  20.447  0.00  0.00    +0.000 N 
ATOM     25  C   UNL     1       1.937   7.415  19.843  0.00  0.00    +0.000 C 
ATOM     26  O   UNL     1       2.160   7.610  18.655  0.00  0.00    +0.000 OA
ATOM     27  H   UNL     1       1.986   6.156  21.459  0.00  0.00    +0.000 HD
BRANCH  24  29
ATOM     28  C   UNL     1       2.356   3.719  20.521  0.00  0.00    +0.000 C 
ATOM     29  C   UNL     1       2.630   5.021  19.773  0.00  0.00    +0.000 C 
BRANCH  29  30
ATOM     30  C   UNL     1       4.111   5.128  19.325  0.00  0.00    +0.000 C 
ATOM     31  O   UNL     1       4.984   5.598  20.060  0.00  0.00    +0.000 OA
ATOM     32  N   UNL     1       4.468   4.454  18.184  0.00  0.00    +0.000 N 
ATOM     33  C   UNL     1       5.799   4.300  17.618  0.00  0.00    +0.000 C 
ATOM     34  C   UNL     1       5.132   4.407  16.239  0.00  0.00    +0.000 C 
ATOM     35  C   UNL     1       3.789   4.126  16.948  0.00  0.00    +0.000 C 
BRANCH  34  36
ATOM     36  C   UNL     1       5.241   5.706  15.609  0.00  0.00    +0.000 C 
ATOM     37  N   UNL     1       5.337   6.757  15.128  0.00  0.00    +0.000 NA
ENDBRANCH  34  36
ENDBRANCH  29  30
ENDBRANCH  24  29
ENDBRANCH   1  25
TORSDOF 6
ENDMDL
MODEL 3
REMARK VINA RESULT:      -8.2      2.823      9.793
REMARK  Name = 
REMARK  8 active torsions:
REMARK  status: ('A' for Active; 'I' for Inactive)
REMARK    1  A    between atoms: C_1  and  C_2
REMARK    2  A    between atoms: C_2  and  N_3
REMARK    3  A    between atoms: C_2  and  C_28
REMARK    4  A    between atoms: C_4  and  C_6
REMARK    5  A    between atoms: C_12  and  C_13
REMARK    6  A    between atoms: N_15  and  C_16
REMARK    7  A    between atoms: C_19  and  C_20
REMARK    8  A    between atoms: C_32  and  C_33
REMARK                            x       y       z     vdW  Elec       q    Type
REMARK                         _______ _______ _______ _____ _____    ______ ____
ROOT
ATOM      1  C   UNL     1      -0.813  11.364  19.783  0.00  0.00    +0.000 A 
ATOM      2  C   UNL     1      -0.738  12.465  20.626  0.00  0.00    +0.000 A 
ATOM      3  N   UNL     1       0.021  12.131  21.722  0.00  0.00    +0.000 N 
ATOM      4  C   UNL     1       0.475  10.848  21.589  0.00  0.00    +0.000 A 
ATOM      5  N   UNL     1       1.256  10.184  22.465  0.00  0.00    +0.000 NA
ATOM      6  C   UNL     1       1.550   8.935  22.004  0.00  0.00    +0.000 A 
ATOM      7  C   UNL     1       1.100   8.415  20.788  0.00  0.00    +0.000 A 
ATOM      8  N   UNL     1       0.274   9.100  19.951  0.00  0.00    +0.000 NA
ATOM      9  C   UNL     1      -0.017  10.354  20.385  0.00  0.00    +0.000 A 
ATOM     10  H   UNL     1       0.228  12.727  22.512  0.00  0.00    +0.000 HD
ENDROOT
BRANCH   7  11
ATOM     11  C   UNL     1       1.532   7.099  20.317  0.00  0.00    +0.000 A 
ATOM     12  N   UNL     1       1.167   5.956  20.928  0.00  0.00    +0.000 NA
ATOM     13  N   UNL     1       1.744   4.987  20.189  0.00  0.00    +0.000 N 
ATOM     14  C   UNL     1       1.509   3.602  20.528  0.00  0.00    +0.000 C 
ATOM     15  C   UNL     1       2.517   5.449  19.155  0.00  0.00    +0.000 A 
ATOM     16  C   UNL     1       3.316   4.798  18.198  0.00  0.00    +0.000 A 
ATOM     17  C   UNL     1       4.037   5.568  17.263  0.00  0.00    +0.000 A 
ATOM     18  C   UNL     1       3.896   6.963  17.303  0.00  0.00    +0.000 A 
ATOM     19  C   UNL     1       3.085   7.606  18.252  0.00  0.00    +0.000 A 
ATOM     20  C   UNL     1       2.390   6.830  19.199  0.00  0.00    +0.000 A 
BRANCH  17  21
ATOM     21  C   UNL     1       5.013   4.912  16.313  0.00  0.00    +0.000 C 
ATOM     22  C   UNL     1       6.182   5.687  15.756  0.00  0.00    +0.000 C 
ATOM     23  C   UNL     1       6.424   4.576  16.733  0.00  0.00    +0.000 C 
ENDBRANCH  17  21
ENDBRANCH   7  11
BRANCH   1  25
ATOM     24  N   UNL     1      -2.578  10.361  18.544  0.00  0.00    +0.000 N 
ATOM     25  C   UNL     1      -1.575  11.305  18.544  0.00  0.00    +0.000 C 
ATOM     26  O   UNL     1      -1.370  12.070  17.611  0.00  0.00    +0.000 OA
ATOM     27  H   UNL     1      -2.582   9.693  19.309  0.00  0.00    +0.000 HD
BRANCH  24  29
ATOM     28  C   UNL     1      -2.591   9.590  16.184  0.00  0.00    +0.000 C 
ATOM     29  C   UNL     1      -3.406  10.077  17.380  0.00  0.00    +0.000 C 
BRANCH  29  30
ATOM     30  C   UNL     1      -4.427  11.170  16.974  0.00  0.00    +0.000 C 
ATOM     31  O   UNL     1      -4.307  11.824  15.935  0.00  0.00    +0.000 OA
ATOM     32  N   UNL     1      -5.604  11.218  17.679  0.00  0.00    +0.000 N 
ATOM     33  C   UNL     1      -6.762  12.062  17.429  0.00  0.00    +0.000 C 
ATOM     34  C   UNL     1      -6.918  12.153  18.954  0.00  0.00    +0.000 C 
ATOM     35  C   UNL     1      -5.975  10.933  19.050  0.00  0.00    +0.000 C 
BRANCH  34  36
ATOM     36  C   UNL     1      -6.415  13.375  19.547  0.00  0.00    +0.000 C 
ATOM     37  N   UNL     1      -6.018  14.366  19.998  0.00  0.00    +0.000 NA
ENDBRANCH  34  36
ENDBRANCH  29  30
ENDBRANCH  24  29
ENDBRANCH   1  25
TORSDOF 6
ENDMDL
MODEL 4
REMARK VINA RESULT:      -8.2      4.353      7.409
REMARK  Name = 
REMARK  8 active torsions:
REMARK  status: ('A' for Active; 'I' for Inactive)
REMARK    1  A    between atoms: C_1  and  C_2
REMARK    2  A    between atoms: C_2  and  N_3
REMARK    3  A    between atoms: C_2  and  C_28
REMARK    4  A    between atoms: C_4  and  C_6
REMARK    5  A    between atoms: C_12  and  C_13
REMARK    6  A    between atoms: N_15  and  C_16
REMARK    7  A    between atoms: C_19  and  C_20
REMARK    8  A    between atoms: C_32  and  C_33
REMARK                            x       y       z     vdW  Elec       q    Type
REMARK                         _______ _______ _______ _____ _____    ______ ____
ROOT
ATOM      1  C   UNL     1      -2.733  10.922  17.350  0.00  0.00    +0.000 A 
ATOM      2  C   UNL     1      -3.043  10.911  15.996  0.00  0.00    +0.000 A 
ATOM      3  N   UNL     1      -4.326  11.378  15.832  0.00  0.00    +0.000 N 
ATOM      4  C   UNL     1      -4.841  11.730  17.049  0.00  0.00    +0.000 A 
ATOM      5  N   UNL     1      -6.070  12.236  17.277  0.00  0.00    +0.000 NA
ATOM      6  C   UNL     1      -6.244  12.509  18.602  0.00  0.00    +0.000 A 
ATOM      7  C   UNL     1      -5.279  12.290  19.588  0.00  0.00    +0.000 A 
ATOM      8  N   UNL     1      -4.066  11.734  19.325  0.00  0.00    +0.000 NA
ATOM      9  C   UNL     1      -3.866  11.470  18.006  0.00  0.00    +0.000 A 
ATOM     10  H   UNL     1      -4.826  11.461  14.959  0.00  0.00    +0.000 HD
ENDROOT
BRANCH   7  11
ATOM     11  C   UNL     1      -5.506  12.692  20.977  0.00  0.00    +0.000 A 
ATOM     12  N   UNL     1      -6.723  12.662  21.550  0.00  0.00    +0.000 NA
ATOM     13  N   UNL     1      -6.504  13.079  22.813  0.00  0.00    +0.000 N 
ATOM     14  C   UNL     1      -7.604  13.113  23.749  0.00  0.00    +0.000 C 
ATOM     15  C   UNL     1      -5.206  13.436  23.074  0.00  0.00    +0.000 A 
ATOM     16  C   UNL     1      -4.574  13.961  24.215  0.00  0.00    +0.000 A 
ATOM     17  C   UNL     1      -3.199  14.266  24.162  0.00  0.00    +0.000 A 
ATOM     18  C   UNL     1      -2.504  13.996  22.973  0.00  0.00    +0.000 A 
ATOM     19  C   UNL     1      -3.139  13.458  21.843  0.00  0.00    +0.000 A 
ATOM     20  C   UNL     1      -4.518  13.181  21.896  0.00  0.00    +0.000 A 
BRANCH  17  21
ATOM     21  C   UNL     1      -2.518  14.960  25.320  0.00  0.00    +0.000 C 
ATOM     22  C   UNL     1      -1.204  15.677  25.120  0.00  0.00    +0.000 C 
ATOM     23  C   UNL     1      -2.445  16.467  25.409  0.00  0.00    +0.000 C 
ENDBRANCH  17  21
ENDBRANCH   7  11
BRANCH   1  25
ATOM     24  N   UNL     1      -1.214  10.960  19.179  0.00  0.00    +0.000 N 
ATOM     25  C   UNL     1      -1.485  10.447  17.930  0.00  0.00    +0.000 C 
ATOM     26  O   UNL     1      -0.775   9.620  17.372  0.00  0.00    +0.000 OA
ATOM     27  H   UNL     1      -1.793  11.732  19.496  0.00  0.00    +0.000 HD
BRANCH  24  29
ATOM     28  C   UNL     1      -0.098   9.469  20.822  0.00  0.00    +0.000 C 
ATOM     29  C   UNL     1       0.019  10.684  19.904  0.00  0.00    +0.000 C 
BRANCH  29  30
ATOM     30  C   UNL     1       0.682  11.886  20.623  0.00  0.00    +0.000 C 
ATOM     31  O   UNL     1       0.445  12.155  21.804  0.00  0.00    +0.000 OA
ATOM     32  N   UNL     1       1.730  12.496  19.981  0.00  0.00    +0.000 N 
ATOM     33  C   UNL     1       2.588  13.560  20.482  0.00  0.00    +0.000 C 
ATOM     34  C   UNL     1       2.594  14.113  19.050  0.00  0.00    +0.000 C 
ATOM     35  C   UNL     1       2.067  12.735  18.592  0.00  0.00    +0.000 C 
BRANCH  34  36
ATOM     36  C   UNL     1       1.696  15.227  18.823  0.00  0.00    +0.000 C 
ATOM     37  N   UNL     1       0.985  16.129  18.666  0.00  0.00    +0.000 NA
ENDBRANCH  34  36
ENDBRANCH  29  30
ENDBRANCH  24  29
ENDBRANCH   1  25
TORSDOF 6
ENDMDL
MODEL 5
REMARK VINA RESULT:      -8.1      5.007      8.714
REMARK  Name = 
REMARK  8 active torsions:
REMARK  status: ('A' for Active; 'I' for Inactive)
REMARK    1  A    between atoms: C_1  and  C_2
REMARK    2  A    between atoms: C_2  and  N_3
REMARK    3  A    between atoms: C_2  and  C_28
REMARK    4  A    between atoms: C_4  and  C_6
REMARK    5  A    between atoms: C_12  and  C_13
REMARK    6  A    between atoms: N_15  and  C_16
REMARK    7  A    between atoms: C_19  and  C_20
REMARK    8  A    between atoms: C_32  and  C_33
REMARK                            x       y       z     vdW  Elec       q    Type
REMARK                         _______ _______ _______ _____ _____    ______ ____
ROOT
ATOM      1  C   UNL     1      -5.978  11.141  19.143  0.00  0.00    +0.000 A 
ATOM      2  C   UNL     1      -6.883  10.103  18.960  0.00  0.00    +0.000 A 
ATOM      3  N   UNL     1      -7.682  10.013  20.074  0.00  0.00    +0.000 N 
ATOM      4  C   UNL     1      -7.342  10.997  20.960  0.00  0.00    +0.000 A 
ATOM      5  N   UNL     1      -7.916  11.223  22.159  0.00  0.00    +0.000 NA
ATOM      6  C   UNL     1      -7.357  12.306  22.770  0.00  0.00    +0.000 A 
ATOM      7  C   UNL     1      -6.326  13.076  22.225  0.00  0.00    +0.000 A 
ATOM      8  N   UNL     1      -5.740  12.788  21.031  0.00  0.00    +0.000 NA
ATOM      9  C   UNL     1      -6.295  11.721  20.399  0.00  0.00    +0.000 A 
ATOM     10  H   UNL     1      -8.416   9.336  20.232  0.00  0.00    +0.000 HD
ENDROOT
BRANCH   7  11
ATOM     11  C   UNL     1      -5.838  14.279  22.899  0.00  0.00    +0.000 A 
ATOM     12  N   UNL     1      -6.590  15.386  23.038  0.00  0.00    +0.000 NA
ATOM     13  N   UNL     1      -5.798  16.241  23.718  0.00  0.00    +0.000 N 
ATOM     14  C   UNL     1      -6.316  17.534  24.102  0.00  0.00    +0.000 C 
ATOM     15  C   UNL     1      -4.540  15.761  23.978  0.00  0.00    +0.000 A 
ATOM     16  C   UNL     1      -3.413  16.329  24.598  0.00  0.00    +0.000 A 
ATOM     17  C   UNL     1      -2.223  15.579  24.686  0.00  0.00    +0.000 A 
ATOM     18  C   UNL     1      -2.225  14.270  24.180  0.00  0.00    +0.000 A 
ATOM     19  C   UNL     1      -3.358  13.704  23.576  0.00  0.00    +0.000 A 
ATOM     20  C   UNL     1      -4.534  14.470  23.468  0.00  0.00    +0.000 A 
BRANCH  17  21
ATOM     21  C   UNL     1      -0.954  16.206  25.218  0.00  0.00    +0.000 C 
ATOM     22  C   UNL     1      -1.016  17.411  26.125  0.00  0.00    +0.000 C 
ATOM     23  C   UNL     1      -0.563  16.091  26.673  0.00  0.00    +0.000 C 
ENDBRANCH  17  21
ENDBRANCH   7  11
BRANCH   1  25
ATOM     24  N   UNL     1      -3.709  10.926  18.463  0.00  0.00    +0.000 N 
ATOM     25  C   UNL     1      -4.927  11.515  18.207  0.00  0.00    +0.000 C 
ATOM     26  O   UNL     1      -5.135  12.244  17.245  0.00  0.00    +0.000 OA
ATOM     27  H   UNL     1      -3.607  10.445  19.352  0.00  0.00    +0.000 HD
BRANCH  24  29
ATOM     28  C   UNL     1      -2.517  10.602  16.308  0.00  0.00    +0.000 C 
ATOM     29  C   UNL     1      -2.503  11.225  17.703  0.00  0.00    +0.000 C 
BRANCH  29  30
ATOM     30  C   UNL     1      -1.153  10.986  18.426  0.00  0.00    +0.000 C 
ATOM     31  O   UNL     1      -0.362  10.110  18.063  0.00  0.00    +0.000 OA
ATOM     32  N   UNL     1      -0.750  11.940  19.326  0.00  0.00    +0.000 N 
ATOM     33  C   UNL     1       0.513  12.012  20.046  0.00  0.00    +0.000 C 
ATOM     34  C   UNL     1      -0.294  12.556  21.234  0.00  0.00    +0.000 C 
ATOM     35  C   UNL     1      -1.441  12.830  20.236  0.00  0.00    +0.000 C 
BRANCH  34  36
ATOM     36  C   UNL     1      -0.589  11.584  22.267  0.00  0.00    +0.000 C 
ATOM     37  N   UNL     1      -0.851  10.817  23.096  0.00  0.00    +0.000 NA
ENDBRANCH  34  36
ENDBRANCH  29  30
ENDBRANCH  24  29
ENDBRANCH   1  25
TORSDOF 6
ENDMDL
MODEL 6
REMARK VINA RESULT:      -7.9      5.250      8.321
REMARK  Name = 
REMARK  8 active torsions:
REMARK  status: ('A' for Active; 'I' for Inactive)
REMARK    1  A    between atoms: C_1  and  C_2
REMARK    2  A    between atoms: C_2  and  N_3
REMARK    3  A    between atoms: C_2  and  C_28
REMARK    4  A    between atoms: C_4  and  C_6
REMARK    5  A    between atoms: C_12  and  C_13
REMARK    6  A    between atoms: N_15  and  C_16
REMARK    7  A    between atoms: C_19  and  C_20
REMARK    8  A    between atoms: C_32  and  C_33
REMARK                            x       y       z     vdW  Elec       q    Type
REMARK                         _______ _______ _______ _____ _____    ______ ____
ROOT
ATOM      1  C   UNL     1       3.074  15.632  19.311  0.00  0.00    +0.000 A 
ATOM      2  C   UNL     1       2.490  16.746  18.723  0.00  0.00    +0.000 A 
ATOM      3  N   UNL     1       1.184  16.450  18.414  0.00  0.00    +0.000 N 
ATOM      4  C   UNL     1       0.896  15.178  18.827  0.00  0.00    +0.000 A 
ATOM      5  N   UNL     1      -0.290  14.549  18.699  0.00  0.00    +0.000 NA
ATOM      6  C   UNL     1      -0.240  13.302  19.250  0.00  0.00    +0.000 A 
ATOM      7  C   UNL     1       0.889  12.752  19.861  0.00  0.00    +0.000 A 
ATOM      8  N   UNL     1       2.083  13.402  19.929  0.00  0.00    +0.000 NA
ATOM      9  C   UNL     1       2.049  14.654  19.400  0.00  0.00    +0.000 A 
ATOM     10  H   UNL     1       0.522  17.062  17.959  0.00  0.00    +0.000 HD
ENDROOT
BRANCH   7  11
ATOM     11  C   UNL     1       0.841  11.442  20.510  0.00  0.00    +0.000 A 
ATOM     12  N   UNL     1       0.426  11.279  21.780  0.00  0.00    +0.000 NA
ATOM     13  N   UNL     1       0.511   9.949  21.987  0.00  0.00    +0.000 N 
ATOM     14  C   UNL     1       0.077   9.399  23.250  0.00  0.00    +0.000 C 
ATOM     15  C   UNL     1       1.018   9.243  20.927  0.00  0.00    +0.000 A 
ATOM     16  C   UNL     1       1.317   7.880  20.744  0.00  0.00    +0.000 A 
ATOM     17  C   UNL     1       1.878   7.455  19.523  0.00  0.00    +0.000 A 
ATOM     18  C   UNL     1       2.082   8.411  18.518  0.00  0.00    +0.000 A 
ATOM     19  C   UNL     1       1.768   9.767  18.701  0.00  0.00    +0.000 A 
ATOM     20  C   UNL     1       1.234  10.188  19.934  0.00  0.00    +0.000 A 
BRANCH  17  21
ATOM     21  C   UNL     1       2.339   6.026  19.344  0.00  0.00    +0.000 C 
ATOM     22  C   UNL     1       3.081   5.611  18.097  0.00  0.00    +0.000 C 
ATOM     23  C   UNL     1       3.801   5.651  19.411  0.00  0.00    +0.000 C 
ENDBRANCH  17  21
ENDBRANCH   7  11
BRANCH   1  25
ATOM     24  N   UNL     1       5.373  15.834  18.737  0.00  0.00    +0.000 N 
ATOM     25  C   UNL     1       4.465  15.534  19.728  0.00  0.00    +0.000 C 
ATOM     26  O   UNL     1       4.788  15.263  20.878  0.00  0.00    +0.000 OA
ATOM     27  H   UNL     1       5.012  15.917  17.791  0.00  0.00    +0.000 HD
BRANCH  24  29
ATOM     28  C   UNL     1       7.556  17.003  18.552  0.00  0.00    +0.000 C 
ATOM     29  C   UNL     1       6.814  15.718  18.913  0.00  0.00    +0.000 C 
BRANCH  29  30
ATOM     30  C   UNL     1       7.489  14.470  18.290  0.00  0.00    +0.000 C 
ATOM     31  O   UNL     1       6.977  13.847  17.355  0.00  0.00    +0.000 OA
ATOM     32  N   UNL     1       8.793  14.224  18.641  0.00  0.00    +0.000 N 
ATOM     33  C   UNL     1       9.681  13.197  18.117  0.00  0.00    +0.000 C 
ATOM     34  C   UNL     1      10.244  13.079  19.540  0.00  0.00    +0.000 C 
ATOM     35  C   UNL     1       9.576  14.439  19.840  0.00  0.00    +0.000 C 
BRANCH  34  36
ATOM     36  C   UNL     1       9.738  11.958  20.305  0.00  0.00    +0.000 C 
ATOM     37  N   UNL     1       9.310  11.059  20.900  0.00  0.00    +0.000 NA
ENDBRANCH  34  36
ENDBRANCH  29  30
ENDBRANCH  24  29
ENDBRANCH   1  25
TORSDOF 6
ENDMDL
MODEL 7
REMARK VINA RESULT:      -7.8      4.919      7.808
REMARK  Name = 
REMARK  8 active torsions:
REMARK  status: ('A' for Active; 'I' for Inactive)
REMARK    1  A    between atoms: C_1  and  C_2
REMARK    2  A    between atoms: C_2  and  N_3
REMARK    3  A    between atoms: C_2  and  C_28
REMARK    4  A    between atoms: C_4  and  C_6
REMARK    5  A    between atoms: C_12  and  C_13
REMARK    6  A    between atoms: N_15  and  C_16
REMARK    7  A    between atoms: C_19  and  C_20
REMARK    8  A    between atoms: C_32  and  C_33
REMARK                            x       y       z     vdW  Elec       q    Type
REMARK                         _______ _______ _______ _____ _____    ______ ____
ROOT
ATOM      1  C   UNL     1       0.709   9.747  18.651  0.00  0.00    +0.000 A 
ATOM      2  C   UNL     1      -0.456   9.616  17.906  0.00  0.00    +0.000 A 
ATOM      3  N   UNL     1      -1.042  10.852  17.780  0.00  0.00    +0.000 N 
ATOM      4  C   UNL     1      -0.260  11.792  18.393  0.00  0.00    +0.000 A 
ATOM      5  N   UNL     1      -0.513  13.115  18.464  0.00  0.00    +0.000 NA
ATOM      6  C   UNL     1       0.492  13.766  19.117  0.00  0.00    +0.000 A 
ATOM      7  C   UNL     1       1.627  13.145  19.642  0.00  0.00    +0.000 A 
ATOM      8  N   UNL     1       1.824  11.799  19.591  0.00  0.00    +0.000 NA
ATOM      9  C   UNL     1       0.841  11.133  18.929  0.00  0.00    +0.000 A 
ATOM     10  H   UNL     1      -1.912  11.058  17.309  0.00  0.00    +0.000 HD
ENDROOT
BRANCH   7  11
ATOM     11  C   UNL     1       2.708  13.921  20.250  0.00  0.00    +0.000 A 
ATOM     12  N   UNL     1       2.744  14.204  21.565  0.00  0.00    +0.000 NA
ATOM     13  N   UNL     1       3.886  14.904  21.721  0.00  0.00    +0.000 N 
ATOM     14  C   UNL     1       4.283  15.328  23.045  0.00  0.00    +0.000 C 
ATOM     15  C   UNL     1       4.569  15.141  20.556  0.00  0.00    +0.000 A 
ATOM     16  C   UNL     1       5.744  15.857  20.269  0.00  0.00    +0.000 A 
ATOM     17  C   UNL     1       6.185  15.952  18.934  0.00  0.00    +0.000 A 
ATOM     18  C   UNL     1       5.446  15.290  17.942  0.00  0.00    +0.000 A 
ATOM     19  C   UNL     1       4.281  14.565  18.237  0.00  0.00    +0.000 A 
ATOM     20  C   UNL     1       3.833  14.498  19.570  0.00  0.00    +0.000 A 
BRANCH  17  21
ATOM     21  C   UNL     1       7.364  16.827  18.571  0.00  0.00    +0.000 C 
ATOM     22  C   UNL     1       8.452  17.105  19.579  0.00  0.00    +0.000 C 
ATOM     23  C   UNL     1       8.748  16.253  18.382  0.00  0.00    +0.000 C 
ENDBRANCH  17  21
ENDBRANCH   7  11
BRANCH   1  25
ATOM     24  N   UNL     1       2.255   8.061  18.001  0.00  0.00    +0.000 N 
ATOM     25  C   UNL     1       1.582   8.652  19.047  0.00  0.00    +0.000 C 
ATOM     26  O   UNL     1       1.739   8.329  20.218  0.00  0.00    +0.000 OA
ATOM     27  H   UNL     1       1.959   8.312  17.062  0.00  0.00    +0.000 HD
BRANCH  24  29
ATOM     28  C   UNL     1       4.324   6.925  17.230  0.00  0.00    +0.000 C 
ATOM     29  C   UNL     1       3.115   6.896  18.162  0.00  0.00    +0.000 C 
BRANCH  29  30
ATOM     30  C   UNL     1       2.413   5.514  18.152  0.00  0.00    +0.000 C 
ATOM     31  O   UNL     1       1.326   5.335  17.597  0.00  0.00    +0.000 OA
ATOM     32  N   UNL     1       3.154   4.435  18.565  0.00  0.00    +0.000 N 
ATOM     33  C   UNL     1       2.776   3.030  18.544  0.00  0.00    +0.000 C 
ATOM     34  C   UNL     1       3.543   2.892  19.867  0.00  0.00    +0.000 C 
ATOM     35  C   UNL     1       4.212   4.245  19.536  0.00  0.00    +0.000 C 
BRANCH  34  36
ATOM     36  C   UNL     1       2.714   2.885  21.055  0.00  0.00    +0.000 C 
ATOM     37  N   UNL     1       2.072   2.869  22.021  0.00  0.00    +0.000 NA
ENDBRANCH  34  36
ENDBRANCH  29  30
ENDBRANCH  24  29
ENDBRANCH   1  25
TORSDOF 6
ENDMDL
MODEL 8
REMARK VINA RESULT:      -7.8      4.822      9.540
REMARK  Name = 
REMARK  8 active torsions:
REMARK  status: ('A' for Active; 'I' for Inactive)
REMARK    1  A    between atoms: C_1  and  C_2
REMARK    2  A    between atoms: C_2  and  N_3
REMARK    3  A    between atoms: C_2  and  C_28
REMARK    4  A    between atoms: C_4  and  C_6
REMARK    5  A    between atoms: C_12  and  C_13
REMARK    6  A    between atoms: N_15  and  C_16
REMARK    7  A    between atoms: C_19  and  C_20
REMARK    8  A    between atoms: C_32  and  C_33
REMARK                            x       y       z     vdW  Elec       q    Type
REMARK                         _______ _______ _______ _____ _____    ______ ____
ROOT
ATOM      1  C   UNL     1      -6.220  12.507  19.518  0.00  0.00    +0.000 A 
ATOM      2  C   UNL     1      -7.281  12.322  18.641  0.00  0.00    +0.000 A 
ATOM      3  N   UNL     1      -6.792  11.840  17.450  0.00  0.00    +0.000 N 
ATOM      4  C   UNL     1      -5.439  11.670  17.549  0.00  0.00    +0.000 A 
ATOM      5  N   UNL     1      -4.622  11.206  16.581  0.00  0.00    +0.000 NA
ATOM      6  C   UNL     1      -3.335  11.130  17.028  0.00  0.00    +0.000 A 
ATOM      7  C   UNL     1      -2.922  11.486  18.314  0.00  0.00    +0.000 A 
ATOM      8  N   UNL     1      -3.770  11.995  19.249  0.00  0.00    +0.000 NA
ATOM      9  C   UNL     1      -5.061  12.063  18.828  0.00  0.00    +0.000 A 
ATOM     10  H   UNL     1      -7.330  11.633  16.621  0.00  0.00    +0.000 HD
ENDROOT
BRANCH   7  11
ATOM     11  C   UNL     1      -1.539  11.291  18.750  0.00  0.00    +0.000 A 
ATOM     12  N   UNL     1      -1.095  10.122  19.246  0.00  0.00    +0.000 NA
ATOM     13  N   UNL     1       0.210  10.346  19.503  0.00  0.00    +0.000 N 
ATOM     14  C   UNL     1       1.031   9.265  19.999  0.00  0.00    +0.000 C 
ATOM     15  C   UNL     1       0.623  11.629  19.252  0.00  0.00    +0.000 A 
ATOM     16  C   UNL     1       1.855  12.285  19.428  0.00  0.00    +0.000 A 
ATOM     17  C   UNL     1       1.961  13.652  19.102  0.00  0.00    +0.000 A 
ATOM     18  C   UNL     1       0.833  14.298  18.575  0.00  0.00    +0.000 A 
ATOM     19  C   UNL     1      -0.390  13.634  18.388  0.00  0.00    +0.000 A 
ATOM     20  C   UNL     1      -0.494  12.275  18.742  0.00  0.00    +0.000 A 
BRANCH  17  21
ATOM     21  C   UNL     1       3.226  14.421  19.408  0.00  0.00    +0.000 C 
ATOM     22  C   UNL     1       3.159  15.866  19.842  0.00  0.00    +0.000 C 
ATOM     23  C   UNL     1       3.592  14.815  20.820  0.00  0.00    +0.000 C 
ENDBRANCH  17  21
ENDBRANCH   7  11
BRANCH   1  25
ATOM     24  N   UNL     1      -5.634  12.346  21.817  0.00  0.00    +0.000 N 
ATOM     25  C   UNL     1      -6.326  13.057  20.861  0.00  0.00    +0.000 C 
ATOM     26  O   UNL     1      -6.933  14.093  21.100  0.00  0.00    +0.000 OA
ATOM     27  H   UNL     1      -5.274  11.436  21.544  0.00  0.00    +0.000 HD
BRANCH  24  29
ATOM     28  C   UNL     1      -7.085  12.631  23.811  0.00  0.00    +0.000 C 
ATOM     29  C   UNL     1      -5.671  12.672  23.236  0.00  0.00    +0.000 C 
BRANCH  29  30
ATOM     30  C   UNL     1      -4.909  13.949  23.672  0.00  0.00    +0.000 C 
ATOM     31  O   UNL     1      -5.490  15.014  23.899  0.00  0.00    +0.000 OA
ATOM     32  N   UNL     1      -3.596  13.796  24.042  0.00  0.00    +0.000 N 
ATOM     33  C   UNL     1      -2.700  14.802  24.594  0.00  0.00    +0.000 C 
ATOM     34  C   UNL     1      -1.585  14.134  23.776  0.00  0.00    +0.000 C 
ATOM     35  C   UNL     1      -2.523  12.915  23.628  0.00  0.00    +0.000 C 
BRANCH  34  36
ATOM     36  C   UNL     1      -1.247  14.810  22.540  0.00  0.00    +0.000 C 
ATOM     37  N   UNL     1      -1.004  15.352  21.544  0.00  0.00    +0.000 NA
ENDBRANCH  34  36
ENDBRANCH  29  30
ENDBRANCH  24  29
ENDBRANCH   1  25
TORSDOF 6
ENDMDL
MODEL 9
REMARK VINA RESULT:      -7.7      4.702      9.150
REMARK  Name = 
REMARK  8 active torsions:
REMARK  status: ('A' for Active; 'I' for Inactive)
REMARK    1  A    between atoms: C_1  and  C_2
REMARK    2  A    between atoms: C_2  and  N_3
REMARK    3  A    between atoms: C_2  and  C_28
REMARK    4  A    between atoms: C_4  and  C_6
REMARK    5  A    between atoms: C_12  and  C_13
REMARK    6  A    between atoms: N_15  and  C_16
REMARK    7  A    between atoms: C_19  and  C_20
REMARK    8  A    between atoms: C_32  and  C_33
REMARK                            x       y       z     vdW  Elec       q    Type
REMARK                         _______ _______ _______ _____ _____    ______ ____
ROOT
ATOM      1  C   UNL     1      -5.544  12.594  20.581  0.00  0.00    +0.000 A 
ATOM      2  C   UNL     1      -6.814  12.473  20.031  0.00  0.00    +0.000 A 
ATOM      3  N   UNL     1      -6.692  12.086  18.718  0.00  0.00    +0.000 N 
ATOM      4  C   UNL     1      -5.369  11.913  18.415  0.00  0.00    +0.000 A 
ATOM      5  N   UNL     1      -4.869  11.527  17.224  0.00  0.00    +0.000 NA
ATOM      6  C   UNL     1      -3.510  11.421  17.279  0.00  0.00    +0.000 A 
ATOM      7  C   UNL     1      -2.743  11.679  18.417  0.00  0.00    +0.000 A 
ATOM      8  N   UNL     1      -3.281  12.111  19.590  0.00  0.00    +0.000 NA
ATOM      9  C   UNL     1      -4.637  12.208  19.560  0.00  0.00    +0.000 A 
ATOM     10  H   UNL     1      -7.447  11.941  18.063  0.00  0.00    +0.000 HD
ENDROOT
BRANCH   7  11
ATOM     11  C   UNL     1      -1.297  11.455  18.427  0.00  0.00    +0.000 A 
ATOM     12  N   UNL     1      -0.754  10.226  18.347  0.00  0.00    +0.000 NA
ATOM     13  N   UNL     1       0.576  10.451  18.366  0.00  0.00    +0.000 N 
ATOM     14  C   UNL     1       1.484   9.335  18.233  0.00  0.00    +0.000 C 
ATOM     15  C   UNL     1       0.925  11.768  18.513  0.00  0.00    +0.000 A 
ATOM     16  C   UNL     1       2.167  12.417  18.632  0.00  0.00    +0.000 A 
ATOM     17  C   UNL     1       2.201  13.814  18.812  0.00  0.00    +0.000 A 
ATOM     18  C   UNL     1       0.983  14.511  18.827  0.00  0.00    +0.000 A 
ATOM     19  C   UNL     1      -0.253  13.859  18.694  0.00  0.00    +0.000 A 
ATOM     20  C   UNL     1      -0.278  12.459  18.542  0.00  0.00    +0.000 A 
BRANCH  17  21
ATOM     21  C   UNL     1       3.507  14.526  19.082  0.00  0.00    +0.000 C 
ATOM     22  C   UNL     1       3.523  15.993  19.438  0.00  0.00    +0.000 C 
ATOM     23  C   UNL     1       3.893  14.973  20.473  0.00  0.00    +0.000 C 
ENDBRANCH  17  21
ENDBRANCH   7  11
BRANCH   1  25
ATOM     24  N   UNL     1      -4.156  12.433  22.506  0.00  0.00    +0.000 N 
ATOM     25  C   UNL     1      -5.254  13.039  21.937  0.00  0.00    +0.000 C 
ATOM     26  O   UNL     1      -5.902  13.917  22.492  0.00  0.00    +0.000 OA
ATOM     27  H   UNL     1      -3.769  11.629  22.019  0.00  0.00    +0.000 HD
BRANCH  24  29
ATOM     28  C   UNL     1      -4.819  12.299  24.895  0.00  0.00    +0.000 C 
ATOM     29  C   UNL     1      -3.738  12.668  23.881  0.00  0.00    +0.000 C 
BRANCH  29  30
ATOM     30  C   UNL     1      -3.111  14.052  24.186  0.00  0.00    +0.000 C 
ATOM     31  O   UNL     1      -3.677  14.884  24.901  0.00  0.00    +0.000 OA
ATOM     32  N   UNL     1      -1.795  14.230  23.842  0.00  0.00    +0.000 N 
ATOM     33  C   UNL     1      -0.946  15.380  24.118  0.00  0.00    +0.000 C 
ATOM     34  C   UNL     1      -0.315  15.137  22.740  0.00  0.00    +0.000 C 
ATOM     35  C   UNL     1      -0.950  13.729  22.777  0.00  0.00    +0.000 C 
BRANCH  34  36
ATOM     36  C   UNL     1      -0.796  16.007  21.686  0.00  0.00    +0.000 C 
ATOM     37  N   UNL     1      -1.189  16.680  20.828  0.00  0.00    +0.000 NA
ENDBRANCH  34  36
ENDBRANCH  29  30
ENDBRANCH  24  29
ENDBRANCH   1  25
TORSDOF 6
ENDMDL
