MODEL 1
REMARK VINA RESULT:      -7.9      0.000      0.000
REMARK  Name = 
REMARK  7 active torsions:
REMARK  status: ('A' for Active; 'I' for Inactive)
REMARK    1  A    between atoms: C_1  and  S_2
REMARK    2  A    between atoms: S_2  and  N_5
REMARK    3  A    between atoms: N_5  and  C_6
REMARK    4  A    between atoms: N_5  and  C_13
REMARK    5  A    between atoms: C_6  and  C_7
REMARK    6  A    between atoms: N_17  and  C_18
REMARK    7  A    between atoms: C_18  and  C_19
REMARK                            x       y       z     vdW  Elec       q    Type
REMARK                         _______ _______ _______ _____ _____    ______ ____
ROOT
ATOM      1  C   UNL     1       4.324   5.071  17.086  0.00  0.00    +0.000 C 
ATOM      2  C   UNL     1       3.840   3.642  17.313  0.00  0.00    +0.000 C 
ATOM      3  C   UNL     1       2.322   3.675  17.488  0.00  0.00    +0.000 C 
ATOM      4  C   UNL     1       1.918   4.567  18.666  0.00  0.00    +0.000 C 
ATOM      5  N   UNL     1       2.447   5.943  18.571  0.00  0.00    +0.000 NA
ATOM      6  C   UNL     1       3.895   5.961  18.278  0.00  0.00    +0.000 C 
ENDROOT
BRANCH   1   7
ATOM      7  N   UNL     1       5.784   5.194  16.782  0.00  0.00    +0.000 NA
BRANCH   7   9
ATOM      8  C   UNL     1       7.679   6.416  18.349  0.00  0.00    +0.000 C 
ATOM      9  S   UNL     1       7.029   4.836  17.853  0.00  0.00    +0.000 S 
ATOM     10  O   UNL     1       8.101   4.196  17.121  0.00  0.00    +0.000 OA
ATOM     11  O   UNL     1       6.444   4.222  19.025  0.00  0.00    +0.000 OA
ENDBRANCH   7   9
BRANCH   7  12
ATOM     12  C   UNL     1       6.103   5.849  15.481  0.00  0.00    +0.000 C 
BRANCH  12  13
ATOM     13  C   UNL     1       6.264   4.980  14.256  0.00  0.00    +0.000 A 
ATOM     14  C   UNL     1       5.332   4.018  13.850  0.00  0.00    +0.000 A 
ATOM     15  C   UNL     1       5.575   3.256  12.708  0.00  0.00    +0.000 A 
ATOM     16  C   UNL     1       6.726   3.505  11.977  0.00  0.00    +0.000 A 
ATOM     17  N   UNL     1       7.626   4.455  12.304  0.00  0.00    +0.000 NA
ATOM     18  C   UNL     1       7.378   5.159  13.433  0.00  0.00    +0.000 A 
ENDBRANCH  12  13
ENDBRANCH   7  12
ENDBRANCH   1   7
BRANCH   5  19
ATOM     19  C   UNL     1       2.214   6.665  19.847  0.00  0.00    +0.000 C 
BRANCH  19  20
ATOM     20  C   UNL     1       1.725   8.077  19.675  0.00  0.00    +0.000 A 
ATOM     21  C   UNL     1       1.818   8.724  18.438  0.00  0.00    +0.000 A 
ATOM     22  C   UNL     1       1.400  10.044  18.339  0.00  0.00    +0.000 A 
ATOM     23  N   UNL     1       0.901  10.755  19.375  0.00  0.00    +0.000 NA
ATOM     24  C   UNL     1       0.813  10.110  20.562  0.00  0.00    +0.000 A 
ATOM     25  C   UNL     1       1.208   8.796  20.753  0.00  0.00    +0.000 A 
ATOM     26  F   UNL     1       1.090   8.232  21.963  0.00  0.00    +0.000 F 
ENDBRANCH  19  20
ENDBRANCH   5  19
TORSDOF 6
ENDMDL
MODEL 2
REMARK VINA RESULT:      -7.6      2.068      3.748
REMARK  Name = 
REMARK  7 active torsions:
REMARK  status: ('A' for Active; 'I' for Inactive)
REMARK    1  A    between atoms: C_1  and  S_2
REMARK    2  A    between atoms: S_2  and  N_5
REMARK    3  A    between atoms: N_5  and  C_6
REMARK    4  A    between atoms: N_5  and  C_13
REMARK    5  A    between atoms: C_6  and  C_7
REMARK    6  A    between atoms: N_17  and  C_18
REMARK    7  A    between atoms: C_18  and  C_19
REMARK                            x       y       z     vdW  Elec       q    Type
REMARK                         _______ _______ _______ _____ _____    ______ ____
ROOT
ATOM      1  C   UNL     1       4.875   6.248  18.475  0.00  0.00    +0.000 C 
ATOM      2  C   UNL     1       4.265   6.821  17.199  0.00  0.00    +0.000 C 
ATOM      3  C   UNL     1       3.263   7.905  17.596  0.00  0.00    +0.000 C 
ATOM      4  C   UNL     1       2.165   7.342  18.504  0.00  0.00    +0.000 C 
ATOM      5  N   UNL     1       2.688   6.669  19.711  0.00  0.00    +0.000 NA
ATOM      6  C   UNL     1       3.752   5.696  19.387  0.00  0.00    +0.000 C 
ENDROOT
BRANCH   1   7
ATOM      7  N   UNL     1       5.965   5.249  18.250  0.00  0.00    +0.000 NA
BRANCH   7   9
ATOM      8  C   UNL     1       8.086   6.990  18.358  0.00  0.00    +0.000 C 
ATOM      9  S   UNL     1       7.531   5.373  18.849  0.00  0.00    +0.000 S 
ATOM     10  O   UNL     1       8.378   4.445  18.129  0.00  0.00    +0.000 OA
ATOM     11  O   UNL     1       7.456   5.361  20.293  0.00  0.00    +0.000 OA
ENDBRANCH   7   9
BRANCH   7  12
ATOM     12  C   UNL     1       5.638   4.169  17.275  0.00  0.00    +0.000 C 
BRANCH  12  13
ATOM     13  C   UNL     1       6.113   4.316  15.849  0.00  0.00    +0.000 A 
ATOM     14  C   UNL     1       5.586   3.597  14.769  0.00  0.00    +0.000 A 
ATOM     15  C   UNL     1       6.099   3.796  13.488  0.00  0.00    +0.000 A 
ATOM     16  C   UNL     1       7.099   4.739  13.313  0.00  0.00    +0.000 A 
ATOM     17  N   UNL     1       7.601   5.490  14.315  0.00  0.00    +0.000 NA
ATOM     18  C   UNL     1       7.104   5.254  15.552  0.00  0.00    +0.000 A 
ENDBRANCH  12  13
ENDBRANCH   7  12
ENDBRANCH   1   7
BRANCH   5  19
ATOM     19  C   UNL     1       1.590   5.953  20.408  0.00  0.00    +0.000 C 
BRANCH  19  20
ATOM     20  C   UNL     1       1.555   4.472  20.143  0.00  0.00    +0.000 A 
ATOM     21  C   UNL     1       1.099   3.972  18.918  0.00  0.00    +0.000 A 
ATOM     22  C   UNL     1       1.038   2.598  18.736  0.00  0.00    +0.000 A 
ATOM     23  N   UNL     1       1.395   1.697  19.680  0.00  0.00    +0.000 NA
ATOM     24  C   UNL     1       1.841   2.200  20.855  0.00  0.00    +0.000 A 
ATOM     25  C   UNL     1       1.933   3.556  21.124  0.00  0.00    +0.000 A 
ATOM     26  F   UNL     1       2.382   3.971  22.316  0.00  0.00    +0.000 F 
ENDBRANCH  19  20
ENDBRANCH   5  19
TORSDOF 6
ENDMDL
MODEL 3
REMARK VINA RESULT:      -7.4      2.764      3.942
REMARK  Name = 
REMARK  7 active torsions:
REMARK  status: ('A' for Active; 'I' for Inactive)
REMARK    1  A    between atoms: C_1  and  S_2
REMARK    2  A    between atoms: S_2  and  N_5
REMARK    3  A    between atoms: N_5  and  C_6
REMARK    4  A    between atoms: N_5  and  C_13
REMARK    5  A    between atoms: C_6  and  C_7
REMARK    6  A    between atoms: N_17  and  C_18
REMARK    7  A    between atoms: C_18  and  C_19
REMARK                            x       y       z     vdW  Elec       q    Type
REMARK                         _______ _______ _______ _____ _____    ______ ____
ROOT
ATOM      1  C   UNL     1       2.932   6.299  19.118  0.00  0.00    +0.000 C 
ATOM      2  C   UNL     1       2.572   7.066  17.849  0.00  0.00    +0.000 C 
ATOM      3  C   UNL     1       2.448   8.547  18.206  0.00  0.00    +0.000 C 
ATOM      4  C   UNL     1       1.382   8.771  19.283  0.00  0.00    +0.000 C 
ATOM      5  N   UNL     1       1.604   7.972  20.506  0.00  0.00    +0.000 NA
ATOM      6  C   UNL     1       1.852   6.547  20.200  0.00  0.00    +0.000 C 
ENDROOT
BRANCH   1   7
ATOM      7  N   UNL     1       3.203   4.842  18.910  0.00  0.00    +0.000 NA
BRANCH   7   9
ATOM      8  C   UNL     1       2.923   2.143  18.495  0.00  0.00    +0.000 C 
ATOM      9  S   UNL     1       2.031   3.638  18.855  0.00  0.00    +0.000 S 
ATOM     10  O   UNL     1       1.186   3.865  17.702  0.00  0.00    +0.000 OA
ATOM     11  O   UNL     1       1.474   3.500  20.183  0.00  0.00    +0.000 OA
ENDBRANCH   7   9
BRANCH   7  12
ATOM     12  C   UNL     1       4.644   4.461  18.930  0.00  0.00    +0.000 C 
BRANCH  12  13
ATOM     13  C   UNL     1       5.428   4.535  17.642  0.00  0.00    +0.000 A 
ATOM     14  C   UNL     1       4.844   4.566  16.370  0.00  0.00    +0.000 A 
ATOM     15  C   UNL     1       5.655   4.625  15.237  0.00  0.00    +0.000 A 
ATOM     16  C   UNL     1       7.029   4.694  15.407  0.00  0.00    +0.000 A 
ATOM     17  N   UNL     1       7.631   4.718  16.614  0.00  0.00    +0.000 NA
ATOM     18  C   UNL     1       6.821   4.630  17.694  0.00  0.00    +0.000 A 
ENDBRANCH  12  13
ENDBRANCH   7  12
ENDBRANCH   1   7
BRANCH   5  19
ATOM     19  C   UNL     1       0.417   8.063  21.394  0.00  0.00    +0.000 C 
BRANCH  19  20
ATOM     20  C   UNL     1      -0.166   9.446  21.502  0.00  0.00    +0.000 A 
ATOM     21  C   UNL     1      -0.529  10.164  20.358  0.00  0.00    +0.000 A 
ATOM     22  C   UNL     1      -1.016  11.456  20.504  0.00  0.00    +0.000 A 
ATOM     23  N   UNL     1      -1.163  12.074  21.698  0.00  0.00    +0.000 NA
ATOM     24  C   UNL     1      -0.813  11.360  22.793  0.00  0.00    +0.000 A 
ATOM     25  C   UNL     1      -0.317  10.067  22.741  0.00  0.00    +0.000 A 
ATOM     26  F   UNL     1       0.010   9.432  23.875  0.00  0.00    +0.000 F 
ENDBRANCH  19  20
ENDBRANCH   5  19
TORSDOF 6
ENDMDL
MODEL 4
REMARK VINA RESULT:      -7.4      0.920      1.301
REMARK  Name = 
REMARK  7 active torsions:
REMARK  status: ('A' for Active; 'I' for Inactive)
REMARK    1  A    between atoms: C_1  and  S_2
REMARK    2  A    between atoms: S_2  and  N_5
REMARK    3  A    between atoms: N_5  and  C_6
REMARK    4  A    between atoms: N_5  and  C_13
REMARK    5  A    between atoms: C_6  and  C_7
REMARK    6  A    between atoms: N_17  and  C_18
REMARK    7  A    between atoms: C_18  and  C_19
REMARK                            x       y       z     vdW  Elec       q    Type
REMARK                         _______ _______ _______ _____ _____    ______ ____
ROOT
ATOM      1  C   UNL     1       4.336   5.177  17.098  0.00  0.00    +0.000 C 
ATOM      2  C   UNL     1       3.786   3.764  17.264  0.00  0.00    +0.000 C 
ATOM      3  C   UNL     1       2.272   3.859  17.449  0.00  0.00    +0.000 C 
ATOM      4  C   UNL     1       1.915   4.714  18.669  0.00  0.00    +0.000 C 
ATOM      5  N   UNL     1       2.508   6.067  18.633  0.00  0.00    +0.000 NA
ATOM      6  C   UNL     1       3.954   6.031  18.333  0.00  0.00    +0.000 C 
ENDROOT
BRANCH   1   7
ATOM      7  N   UNL     1       5.798   5.246  16.791  0.00  0.00    +0.000 NA
BRANCH   7   9
ATOM      8  C   UNL     1       7.712   6.414  18.376  0.00  0.00    +0.000 C 
ATOM      9  S   UNL     1       7.032   4.853  17.863  0.00  0.00    +0.000 S 
ATOM     10  O   UNL     1       8.093   4.197  17.129  0.00  0.00    +0.000 OA
ATOM     11  O   UNL     1       6.431   4.240  19.028  0.00  0.00    +0.000 OA
ENDBRANCH   7   9
BRANCH   7  12
ATOM     12  C   UNL     1       6.138   5.877  15.484  0.00  0.00    +0.000 C 
BRANCH  12  13
ATOM     13  C   UNL     1       6.268   4.993  14.267  0.00  0.00    +0.000 A 
ATOM     14  C   UNL     1       5.305   4.056  13.873  0.00  0.00    +0.000 A 
ATOM     15  C   UNL     1       5.521   3.277  12.737  0.00  0.00    +0.000 A 
ATOM     16  C   UNL     1       6.676   3.484  12.000  0.00  0.00    +0.000 A 
ATOM     17  N   UNL     1       7.606   4.410  12.314  0.00  0.00    +0.000 NA
ATOM     18  C   UNL     1       7.383   5.131  13.438  0.00  0.00    +0.000 A 
ENDBRANCH  12  13
ENDBRANCH   7  12
ENDBRANCH   1   7
BRANCH   5  19
ATOM     19  C   UNL     1       2.315   6.741  19.943  0.00  0.00    +0.000 C 
BRANCH  19  20
ATOM     20  C   UNL     1       1.675   8.099  19.848  0.00  0.00    +0.000 A 
ATOM     21  C   UNL     1       1.085   8.695  20.968  0.00  0.00    +0.000 A 
ATOM     22  C   UNL     1       0.462   9.926  20.822  0.00  0.00    +0.000 A 
ATOM     23  N   UNL     1       0.388  10.598  19.651  0.00  0.00    +0.000 NA
ATOM     24  C   UNL     1       0.971  10.009  18.581  0.00  0.00    +0.000 A 
ATOM     25  C   UNL     1       1.612   8.781  18.634  0.00  0.00    +0.000 A 
ATOM     26  F   UNL     1       2.161   8.266  17.526  0.00  0.00    +0.000 F 
ENDBRANCH  19  20
ENDBRANCH   5  19
TORSDOF 6
ENDMDL
MODEL 5
REMARK VINA RESULT:      -7.4      2.564      3.851
REMARK  Name = 
REMARK  7 active torsions:
REMARK  status: ('A' for Active; 'I' for Inactive)
REMARK    1  A    between atoms: C_1  and  S_2
REMARK    2  A    between atoms: S_2  and  N_5
REMARK    3  A    between atoms: N_5  and  C_6
REMARK    4  A    between atoms: N_5  and  C_13
REMARK    5  A    between atoms: C_6  and  C_7
REMARK    6  A    between atoms: N_17  and  C_18
REMARK    7  A    between atoms: C_18  and  C_19
REMARK                            x       y       z     vdW  Elec       q    Type
REMARK                         _______ _______ _______ _____ _____    ______ ____
ROOT
ATOM      1  C   UNL     1       2.343   5.647  19.112  0.00  0.00    +0.000 C 
ATOM      2  C   UNL     1       2.456   5.858  20.619  0.00  0.00    +0.000 C 
ATOM      3  C   UNL     1       1.391   6.871  21.040  0.00  0.00    +0.000 C 
ATOM      4  C   UNL     1       1.570   8.202  20.302  0.00  0.00    +0.000 C 
ATOM      5  N   UNL     1       1.583   8.062  18.831  0.00  0.00    +0.000 NA
ATOM      6  C   UNL     1       2.512   7.003  18.384  0.00  0.00    +0.000 C 
ENDROOT
BRANCH   1   7
ATOM      7  N   UNL     1       3.248   4.591  18.562  0.00  0.00    +0.000 NA
BRANCH   7   9
ATOM      8  C   UNL     1       1.374   2.660  19.106  0.00  0.00    +0.000 C 
ATOM      9  S   UNL     1       2.762   3.060  18.068  0.00  0.00    +0.000 S 
ATOM     10  O   UNL     1       3.792   2.108  18.426  0.00  0.00    +0.000 OA
ATOM     11  O   UNL     1       2.270   3.165  16.712  0.00  0.00    +0.000 OA
ENDBRANCH   7   9
BRANCH   7  12
ATOM     12  C   UNL     1       4.704   4.908  18.636  0.00  0.00    +0.000 C 
BRANCH  12  13
ATOM     13  C   UNL     1       5.508   4.910  17.358  0.00  0.00    +0.000 A 
ATOM     14  C   UNL     1       5.000   5.301  16.113  0.00  0.00    +0.000 A 
ATOM     15  C   UNL     1       5.820   5.259  14.987  0.00  0.00    +0.000 A 
ATOM     16  C   UNL     1       7.140   4.866  15.141  0.00  0.00    +0.000 A 
ATOM     17  N   UNL     1       7.685   4.529  16.328  0.00  0.00    +0.000 NA
ATOM     18  C   UNL     1       6.857   4.552  17.399  0.00  0.00    +0.000 A 
ENDBRANCH  12  13
ENDBRANCH   7  12
ENDBRANCH   1   7
BRANCH   5  19
ATOM     19  C   UNL     1       1.992   9.345  18.204  0.00  0.00    +0.000 C 
BRANCH  19  20
ATOM     20  C   UNL     1       0.977  10.447  18.338  0.00  0.00    +0.000 A 
ATOM     21  C   UNL     1      -0.390  10.186  18.198  0.00  0.00    +0.000 A 
ATOM     22  C   UNL     1      -1.286  11.242  18.280  0.00  0.00    +0.000 A 
ATOM     23  N   UNL     1      -0.918  12.526  18.490  0.00  0.00    +0.000 NA
ATOM     24  C   UNL     1       0.408  12.758  18.630  0.00  0.00    +0.000 A 
ATOM     25  C   UNL     1       1.373  11.765  18.560  0.00  0.00    +0.000 A 
ATOM     26  F   UNL     1       2.667  12.081  18.707  0.00  0.00    +0.000 F 
ENDBRANCH  19  20
ENDBRANCH   5  19
TORSDOF 6
ENDMDL
MODEL 6
REMARK VINA RESULT:      -7.4      2.562      3.764
REMARK  Name = 
REMARK  7 active torsions:
REMARK  status: ('A' for Active; 'I' for Inactive)
REMARK    1  A    between atoms: C_1  and  S_2
REMARK    2  A    between atoms: S_2  and  N_5
REMARK    3  A    between atoms: N_5  and  C_6
REMARK    4  A    between atoms: N_5  and  C_13
REMARK    5  A    between atoms: C_6  and  C_7
REMARK    6  A    between atoms: N_17  and  C_18
REMARK    7  A    between atoms: C_18  and  C_19
REMARK                            x       y       z     vdW  Elec       q    Type
REMARK                         _______ _______ _______ _____ _____    ______ ____
ROOT
ATOM      1  C   UNL     1       2.399   5.384  18.996  0.00  0.00    +0.000 C 
ATOM      2  C   UNL     1       2.589   5.665  20.483  0.00  0.00    +0.000 C 
ATOM      3  C   UNL     1       1.583   6.739  20.898  0.00  0.00    +0.000 C 
ATOM      4  C   UNL     1       1.775   8.023  20.085  0.00  0.00    +0.000 C 
ATOM      5  N   UNL     1       1.715   7.809  18.624  0.00  0.00    +0.000 NA
ATOM      6  C   UNL     1       2.583   6.694  18.191  0.00  0.00    +0.000 C 
ENDROOT
BRANCH   1   7
ATOM      7  N   UNL     1       3.239   4.267  18.461  0.00  0.00    +0.000 NA
BRANCH   7   9
ATOM      8  C   UNL     1       1.303   2.414  19.060  0.00  0.00    +0.000 C 
ATOM      9  S   UNL     1       2.657   2.771  17.963  0.00  0.00    +0.000 S 
ATOM     10  O   UNL     1       3.657   1.765  18.252  0.00  0.00    +0.000 OA
ATOM     11  O   UNL     1       2.107   2.928  16.635  0.00  0.00    +0.000 OA
ENDBRANCH   7   9
BRANCH   7  12
ATOM     12  C   UNL     1       4.711   4.485  18.557  0.00  0.00    +0.000 C 
BRANCH  12  13
ATOM     13  C   UNL     1       5.506   4.619  17.280  0.00  0.00    +0.000 A 
ATOM     14  C   UNL     1       4.938   4.887  16.028  0.00  0.00    +0.000 A 
ATOM     15  C   UNL     1       5.755   4.982  14.903  0.00  0.00    +0.000 A 
ATOM     16  C   UNL     1       7.125   4.849  15.065  0.00  0.00    +0.000 A 
ATOM     17  N   UNL     1       7.719   4.640  16.258  0.00  0.00    +0.000 NA
ATOM     18  C   UNL     1       6.898   4.523  17.328  0.00  0.00    +0.000 A 
ENDBRANCH  12  13
ENDBRANCH   7  12
ENDBRANCH   1   7
BRANCH   5  19
ATOM     19  C   UNL     1       2.141   9.042  17.913  0.00  0.00    +0.000 C 
BRANCH  19  20
ATOM     20  C   UNL     1       1.299  10.250  18.219  0.00  0.00    +0.000 A 
ATOM     21  C   UNL     1       1.867  11.398  18.783  0.00  0.00    +0.000 A 
ATOM     22  C   UNL     1       1.043  12.470  19.094  0.00  0.00    +0.000 A 
ATOM     23  N   UNL     1      -0.293  12.478  18.884  0.00  0.00    +0.000 NA
ATOM     24  C   UNL     1      -0.823  11.362  18.331  0.00  0.00    +0.000 A 
ATOM     25  C   UNL     1      -0.077  10.245  17.992  0.00  0.00    +0.000 A 
ATOM     26  F   UNL     1      -0.681   9.178  17.451  0.00  0.00    +0.000 F 
ENDBRANCH  19  20
ENDBRANCH   5  19
TORSDOF 6
ENDMDL
MODEL 7
REMARK VINA RESULT:      -7.4      4.945      8.649
REMARK  Name = 
REMARK  7 active torsions:
REMARK  status: ('A' for Active; 'I' for Inactive)
REMARK    1  A    between atoms: C_1  and  S_2
REMARK    2  A    between atoms: S_2  and  N_5
REMARK    3  A    between atoms: N_5  and  C_6
REMARK    4  A    between atoms: N_5  and  C_13
REMARK    5  A    between atoms: C_6  and  C_7
REMARK    6  A    between atoms: N_17  and  C_18
REMARK    7  A    between atoms: C_18  and  C_19
REMARK                            x       y       z     vdW  Elec       q    Type
REMARK                         _______ _______ _______ _____ _____    ______ ____
ROOT
ATOM      1  C   UNL     1       1.049   8.944  19.486  0.00  0.00    +0.000 C 
ATOM      2  C   UNL     1       1.977   9.612  18.476  0.00  0.00    +0.000 C 
ATOM      3  C   UNL     1       2.406   8.559  17.454  0.00  0.00    +0.000 C 
ATOM      4  C   UNL     1       3.117   7.384  18.133  0.00  0.00    +0.000 C 
ATOM      5  N   UNL     1       2.319   6.753  19.205  0.00  0.00    +0.000 NA
ATOM      6  C   UNL     1       1.778   7.751  20.152  0.00  0.00    +0.000 C 
ENDROOT
BRANCH   1   7
ATOM      7  N   UNL     1       0.448   9.874  20.492  0.00  0.00    +0.000 NA
BRANCH   7   9
ATOM      8  C   UNL     1      -0.727  10.901  22.751  0.00  0.00    +0.000 C 
ATOM      9  S   UNL     1       0.164   9.503  22.106  0.00  0.00    +0.000 S 
ATOM     10  O   UNL     1       1.428   9.499  22.811  0.00  0.00    +0.000 OA
ATOM     11  O   UNL     1      -0.728   8.365  22.149  0.00  0.00    +0.000 OA
ENDBRANCH   7   9
BRANCH   7  12
ATOM     12  C   UNL     1      -0.076  11.153  19.932  0.00  0.00    +0.000 C 
BRANCH  12  13
ATOM     13  C   UNL     1      -1.399  11.133  19.203  0.00  0.00    +0.000 A 
ATOM     14  C   UNL     1      -1.706  10.247  18.162  0.00  0.00    +0.000 A 
ATOM     15  C   UNL     1      -2.953  10.313  17.543  0.00  0.00    +0.000 A 
ATOM     16  C   UNL     1      -3.877  11.235  18.008  0.00  0.00    +0.000 A 
ATOM     17  N   UNL     1      -3.642  12.072  19.040  0.00  0.00    +0.000 NA
ATOM     18  C   UNL     1      -2.413  12.005  19.602  0.00  0.00    +0.000 A 
ENDBRANCH  12  13
ENDBRANCH   7  12
ENDBRANCH   1   7
BRANCH   5  19
ATOM     19  C   UNL     1       3.158   5.791  19.962  0.00  0.00    +0.000 C 
BRANCH  19  20
ATOM     20  C   UNL     1       2.930   4.351  19.592  0.00  0.00    +0.000 A 
ATOM     21  C   UNL     1       3.914   3.617  18.920  0.00  0.00    +0.000 A 
ATOM     22  C   UNL     1       3.639   2.307  18.554  0.00  0.00    +0.000 A 
ATOM     23  N   UNL     1       2.466   1.684  18.808  0.00  0.00    +0.000 NA
ATOM     24  C   UNL     1       1.530   2.408  19.465  0.00  0.00    +0.000 A 
ATOM     25  C   UNL     1       1.716   3.721  19.866  0.00  0.00    +0.000 A 
ATOM     26  F   UNL     1       0.735   4.368  20.510  0.00  0.00    +0.000 F 
ENDBRANCH  19  20
ENDBRANCH   5  19
TORSDOF 6
ENDMDL
MODEL 8
REMARK VINA RESULT:      -7.3      5.161      8.702
REMARK  Name = 
REMARK  7 active torsions:
REMARK  status: ('A' for Active; 'I' for Inactive)
REMARK    1  A    between atoms: C_1  and  S_2
REMARK    2  A    between atoms: S_2  and  N_5
REMARK    3  A    between atoms: N_5  and  C_6
REMARK    4  A    between atoms: N_5  and  C_13
REMARK    5  A    between atoms: C_6  and  C_7
REMARK    6  A    between atoms: N_17  and  C_18
REMARK    7  A    between atoms: C_18  and  C_19
REMARK                            x       y       z     vdW  Elec       q    Type
REMARK                         _______ _______ _______ _____ _____    ______ ____
ROOT
ATOM      1  C   UNL     1       0.841  10.118  19.819  0.00  0.00    +0.000 C 
ATOM      2  C   UNL     1       0.291   9.233  20.933  0.00  0.00    +0.000 C 
ATOM      3  C   UNL     1       1.384   8.245  21.342  0.00  0.00    +0.000 C 
ATOM      4  C   UNL     1       1.829   7.388  20.153  0.00  0.00    +0.000 C 
ATOM      5  N   UNL     1       2.273   8.181  18.988  0.00  0.00    +0.000 NA
ATOM      6  C   UNL     1       1.299   9.234  18.632  0.00  0.00    +0.000 C 
ENDROOT
BRANCH   1   7
ATOM      7  N   UNL     1      -0.076  11.218  19.386  0.00  0.00    +0.000 NA
BRANCH   7   9
ATOM      8  C   UNL     1       2.077  12.681  18.512  0.00  0.00    +0.000 C 
ATOM      9  S   UNL     1       0.393  12.801  19.071  0.00  0.00    +0.000 S 
ATOM     10  O   UNL     1       0.458  13.524  20.324  0.00  0.00    +0.000 OA
ATOM     11  O   UNL     1      -0.398  13.286  17.961  0.00  0.00    +0.000 OA
ENDBRANCH   7   9
BRANCH   7  12
ATOM     12  C   UNL     1      -1.527  10.877  19.418  0.00  0.00    +0.000 C 
BRANCH  12  13
ATOM     13  C   UNL     1      -2.276  10.788  18.110  0.00  0.00    +0.000 A 
ATOM     14  C   UNL     1      -1.905   9.952  17.050  0.00  0.00    +0.000 A 
ATOM     15  C   UNL     1      -2.656   9.949  15.875  0.00  0.00    +0.000 A 
ATOM     16  C   UNL     1      -3.784  10.750  15.807  0.00  0.00    +0.000 A 
ATOM     17  N   UNL     1      -4.207  11.533  16.821  0.00  0.00    +0.000 NA
ATOM     18  C   UNL     1      -3.442  11.537  17.938  0.00  0.00    +0.000 A 
ENDBRANCH  12  13
ENDBRANCH   7  12
ENDBRANCH   1   7
BRANCH   5  19
ATOM     19  C   UNL     1       2.460   7.294  17.812  0.00  0.00    +0.000 C 
BRANCH  19  20
ATOM     20  C   UNL     1       3.101   5.972  18.134  0.00  0.00    +0.000 A 
ATOM     21  C   UNL     1       4.405   5.909  18.637  0.00  0.00    +0.000 A 
ATOM     22  C   UNL     1       4.973   4.665  18.872  0.00  0.00    +0.000 A 
ATOM     23  N   UNL     1       4.339   3.493  18.643  0.00  0.00    +0.000 NA
ATOM     24  C   UNL     1       3.076   3.574  18.163  0.00  0.00    +0.000 A 
ATOM     25  C   UNL     1       2.432   4.772  17.897  0.00  0.00    +0.000 A 
ATOM     26  F   UNL     1       1.180   4.764  17.420  0.00  0.00    +0.000 F 
ENDBRANCH  19  20
ENDBRANCH   5  19
TORSDOF 6
ENDMDL
MODEL 9
REMARK VINA RESULT:      -7.3      3.288      4.482
REMARK  Name = 
REMARK  7 active torsions:
REMARK  status: ('A' for Active; 'I' for Inactive)
REMARK    1  A    between atoms: C_1  and  S_2
REMARK    2  A    between atoms: S_2  and  N_5
REMARK    3  A    between atoms: N_5  and  C_6
REMARK    4  A    between atoms: N_5  and  C_13
REMARK    5  A    between atoms: C_6  and  C_7
REMARK    6  A    between atoms: N_17  and  C_18
REMARK    7  A    between atoms: C_18  and  C_19
REMARK                            x       y       z     vdW  Elec       q    Type
REMARK                         _______ _______ _______ _____ _____    ______ ____
ROOT
ATOM      1  C   UNL     1       2.327   5.654  18.856  0.00  0.00    +0.000 C 
ATOM      2  C   UNL     1       2.556   5.796  20.358  0.00  0.00    +0.000 C 
ATOM      3  C   UNL     1       1.541   6.801  20.902  0.00  0.00    +0.000 C 
ATOM      4  C   UNL     1       1.682   8.161  20.212  0.00  0.00    +0.000 C 
ATOM      5  N   UNL     1       1.583   8.088  18.739  0.00  0.00    +0.000 NA
ATOM      6  C   UNL     1       2.460   7.040  18.177  0.00  0.00    +0.000 C 
ENDROOT
BRANCH   1   7
ATOM      7  N   UNL     1       3.172   4.614  18.192  0.00  0.00    +0.000 NA
BRANCH   7   9
ATOM      8  C   UNL     1       1.436   2.509  18.500  0.00  0.00    +0.000 C 
ATOM      9  S   UNL     1       3.152   2.973  18.556  0.00  0.00    +0.000 S 
ATOM     10  O   UNL     1       3.549   2.799  19.937  0.00  0.00    +0.000 OA
ATOM     11  O   UNL     1       3.824   2.271  17.484  0.00  0.00    +0.000 OA
ENDBRANCH   7   9
BRANCH   7  12
ATOM     12  C   UNL     1       4.214   5.145  17.268  0.00  0.00    +0.000 C 
BRANCH  12  13
ATOM     13  C   UNL     1       5.543   5.570  17.846  0.00  0.00    +0.000 A 
ATOM     14  C   UNL     1       6.392   6.511  17.251  0.00  0.00    +0.000 A 
ATOM     15  C   UNL     1       7.606   6.831  17.857  0.00  0.00    +0.000 A 
ATOM     16  C   UNL     1       7.921   6.231  19.066  0.00  0.00    +0.000 A 
ATOM     17  N   UNL     1       7.112   5.358  19.700  0.00  0.00    +0.000 NA
ATOM     18  C   UNL     1       5.954   5.045  19.073  0.00  0.00    +0.000 A 
ENDBRANCH  12  13
ENDBRANCH   7  12
ENDBRANCH   1   7
BRANCH   5  19
ATOM     19  C   UNL     1       1.963   9.392  18.139  0.00  0.00    +0.000 C 
BRANCH  19  20
ATOM     20  C   UNL     1       0.936  10.477  18.325  0.00  0.00    +0.000 A 
ATOM     21  C   UNL     1      -0.431  10.198  18.219  0.00  0.00    +0.000 A 
ATOM     22  C   UNL     1      -1.339  11.240  18.348  0.00  0.00    +0.000 A 
ATOM     23  N   UNL     1      -0.983  12.525  18.573  0.00  0.00    +0.000 NA
ATOM     24  C   UNL     1       0.344  12.773  18.679  0.00  0.00    +0.000 A 
ATOM     25  C   UNL     1       1.319  11.796  18.562  0.00  0.00    +0.000 A 
ATOM     26  F   UNL     1       2.613  12.127  18.678  0.00  0.00    +0.000 F 
ENDBRANCH  19  20
ENDBRANCH   5  19
TORSDOF 6
ENDMDL
