MODEL 1
REMARK VINA RESULT:      -8.4      0.000      0.000
REMARK  Name = 
REMARK  8 active torsions:
REMARK  status: ('A' for Active; 'I' for Inactive)
REMARK    1  A    between atoms: C_1  and  O_2
REMARK    2  A    between atoms: O_2  and  C_3
REMARK    3  A    between atoms: C_7  and  C_8
REMARK    4  A    between atoms: C_12  and  C_13
REMARK    5  A    between atoms: N_23  and  C_24
REMARK    6  A    between atoms: C_24  and  C_25
REMARK    7  A    between atoms: C_24  and  C_26
REMARK    8  A    between atoms: C_24  and  C_27
REMARK                            x       y       z     vdW  Elec       q    Type
REMARK                         _______ _______ _______ _____ _____    ______ ____
ROOT
ATOM      1  C   UNL     1       4.255   5.894  17.763  0.00  0.00    +0.000 A 
ATOM      2  N   UNL     1       3.840   7.144  17.959  0.00  0.00    +0.000 NA
ATOM      3  C   UNL     1       2.908   7.137  18.962  0.00  0.00    +0.000 A 
ATOM      4  C   UNL     1       2.165   8.216  19.511  0.00  0.00    +0.000 A 
ATOM      5  C   UNL     1       1.238   8.002  20.556  0.00  0.00    +0.000 A 
ATOM      6  C   UNL     1       1.088   6.688  21.009  0.00  0.00    +0.000 A 
ATOM      7  C   UNL     1       1.791   5.613  20.461  0.00  0.00    +0.000 A 
ATOM      8  C   UNL     1       2.726   5.847  19.440  0.00  0.00    +0.000 A 
ATOM      9  N   UNL     1       3.614   5.050  18.711  0.00  0.00    +0.000 N 
ENDROOT
BRANCH   5  10
ATOM     10  C   UNL     1       0.458   9.082  21.199  0.00  0.00    +0.000 A 
ATOM     11  C   UNL     1       0.429   9.276  22.574  0.00  0.00    +0.000 A 
ATOM     12  N   UNL     1      -0.167  10.312  23.207  0.00  0.00    +0.000 NA
ATOM     13  C   UNL     1      -0.770  11.206  22.427  0.00  0.00    +0.000 A 
ATOM     14  N   UNL     1      -1.333  12.302  23.042  0.00  0.00    +0.000 N 
ATOM     15  N   UNL     1      -0.880  11.103  21.100  0.00  0.00    +0.000 NA
ATOM     16  C   UNL     1      -0.256  10.047  20.518  0.00  0.00    +0.000 A 
ATOM     17  H   UNL     1      -1.520  12.094  24.014  0.00  0.00    +0.000 HD
ATOM     18  H   UNL     1      -2.095  12.658  22.485  0.00  0.00    +0.000 HD
ENDBRANCH   5  10
BRANCH   1  23
ATOM     19  C   UNL     1       5.627   4.485  14.486  0.00  0.00    +0.000 A 
ATOM     20  C   UNL     1       6.965   4.814  14.614  0.00  0.00    +0.000 A 
ATOM     21  N   UNL     1       7.467   5.515  15.640  0.00  0.00    +0.000 NA
ATOM     22  C   UNL     1       6.579   5.870  16.600  0.00  0.00    +0.000 A 
ATOM     23  C   UNL     1       5.214   5.581  16.642  0.00  0.00    +0.000 A 
ATOM     24  C   UNL     1       4.748   4.888  15.505  0.00  0.00    +0.000 A 
BRANCH  19  26
ATOM     25  C   UNL     1       6.388   3.522  12.453  0.00  0.00    +0.000 C 
ATOM     26  O   UNL     1       5.331   3.770  13.363  0.00  0.00    +0.000 OA
ENDBRANCH  19  26
ENDBRANCH   1  23
BRANCH   9  27
ATOM     27  C   UNL     1       3.838   3.597  18.912  0.00  0.00    +0.000 C 
ATOM     28  C   UNL     1       3.224   2.961  20.189  0.00  0.00    +0.000 C 
ATOM     29  C   UNL     1       3.141   2.802  17.776  0.00  0.00    +0.000 C 
ATOM     30  C   UNL     1       5.352   3.327  19.138  0.00  0.00    +0.000 C 
ENDBRANCH   9  27
TORSDOF 4
ENDMDL
MODEL 2
REMARK VINA RESULT:      -8.2      0.519      1.014
REMARK  Name = 
REMARK  8 active torsions:
REMARK  status: ('A' for Active; 'I' for Inactive)
REMARK    1  A    between atoms: C_1  and  O_2
REMARK    2  A    between atoms: O_2  and  C_3
REMARK    3  A    between atoms: C_7  and  C_8
REMARK    4  A    between atoms: C_12  and  C_13
REMARK    5  A    between atoms: N_23  and  C_24
REMARK    6  A    between atoms: C_24  and  C_25
REMARK    7  A    between atoms: C_24  and  C_26
REMARK    8  A    between atoms: C_24  and  C_27
REMARK                            x       y       z     vdW  Elec       q    Type
REMARK                         _______ _______ _______ _____ _____    ______ ____
ROOT
ATOM      1  C   UNL     1       4.177   5.478  17.942  0.00  0.00    +0.000 A 
ATOM      2  N   UNL     1       3.863   6.756  18.143  0.00  0.00    +0.000 NA
ATOM      3  C   UNL     1       2.875   6.815  19.088  0.00  0.00    +0.000 A 
ATOM      4  C   UNL     1       2.199   7.947  19.618  0.00  0.00    +0.000 A 
ATOM      5  C   UNL     1       1.195   7.798  20.602  0.00  0.00    +0.000 A 
ATOM      6  C   UNL     1       0.903   6.495  21.015  0.00  0.00    +0.000 A 
ATOM      7  C   UNL     1       1.541   5.371  20.485  0.00  0.00    +0.000 A 
ATOM      8  C   UNL     1       2.552   5.539  19.526  0.00  0.00    +0.000 A 
ATOM      9  N   UNL     1       3.409   4.678  18.832  0.00  0.00    +0.000 N 
ENDROOT
BRANCH   5  10
ATOM     10  C   UNL     1       0.476   8.932  21.222  0.00  0.00    +0.000 A 
ATOM     11  C   UNL     1       0.485   9.174  22.590  0.00  0.00    +0.000 A 
ATOM     12  N   UNL     1      -0.053  10.255  23.198  0.00  0.00    +0.000 NA
ATOM     13  C   UNL     1      -0.634  11.148  22.400  0.00  0.00    +0.000 A 
ATOM     14  N   UNL     1      -1.136  12.287  22.988  0.00  0.00    +0.000 N 
ATOM     15  N   UNL     1      -0.776  11.004  21.080  0.00  0.00    +0.000 NA
ATOM     16  C   UNL     1      -0.210   9.903  20.523  0.00  0.00    +0.000 A 
ATOM     17  H   UNL     1      -1.310  12.121  23.969  0.00  0.00    +0.000 HD
ATOM     18  H   UNL     1      -1.894  12.656  22.434  0.00  0.00    +0.000 HD
ENDBRANCH   5  10
BRANCH   1  23
ATOM     19  C   UNL     1       5.586   4.326  14.582  0.00  0.00    +0.000 A 
ATOM     20  C   UNL     1       6.930   4.223  14.897  0.00  0.00    +0.000 A 
ATOM     21  N   UNL     1       7.446   4.557  16.087  0.00  0.00    +0.000 NA
ATOM     22  C   UNL     1       6.555   4.981  17.016  0.00  0.00    +0.000 A 
ATOM     23  C   UNL     1       5.171   5.100  16.873  0.00  0.00    +0.000 A 
ATOM     24  C   UNL     1       4.708   4.783  15.578  0.00  0.00    +0.000 A 
BRANCH  19  26
ATOM     25  C   UNL     1       6.347   3.523  12.480  0.00  0.00    +0.000 C 
ATOM     26  O   UNL     1       5.276   3.936  13.312  0.00  0.00    +0.000 OA
ENDBRANCH  19  26
ENDBRANCH   1  23
BRANCH   9  27
ATOM     27  C   UNL     1       3.492   3.207  19.013  0.00  0.00    +0.000 C 
ATOM     28  C   UNL     1       3.635   2.349  17.725  0.00  0.00    +0.000 C 
ATOM     29  C   UNL     1       4.784   2.852  19.795  0.00  0.00    +0.000 C 
ATOM     30  C   UNL     1       2.149   2.674  19.584  0.00  0.00    +0.000 C 
ENDBRANCH   9  27
TORSDOF 4
ENDMDL
MODEL 3
REMARK VINA RESULT:      -7.7      4.042     10.183
REMARK  Name = 
REMARK  8 active torsions:
REMARK  status: ('A' for Active; 'I' for Inactive)
REMARK    1  A    between atoms: C_1  and  O_2
REMARK    2  A    between atoms: O_2  and  C_3
REMARK    3  A    between atoms: C_7  and  C_8
REMARK    4  A    between atoms: C_12  and  C_13
REMARK    5  A    between atoms: N_23  and  C_24
REMARK    6  A    between atoms: C_24  and  C_25
REMARK    7  A    between atoms: C_24  and  C_26
REMARK    8  A    between atoms: C_24  and  C_27
REMARK                            x       y       z     vdW  Elec       q    Type
REMARK                         _______ _______ _______ _____ _____    ______ ____
ROOT
ATOM      1  C   UNL     1      -0.283  11.270  21.359  0.00  0.00    +0.000 A 
ATOM      2  N   UNL     1       0.322  10.156  21.767  0.00  0.00    +0.000 NA
ATOM      3  C   UNL     1       0.842   9.520  20.673  0.00  0.00    +0.000 A 
ATOM      4  C   UNL     1       1.552   8.292  20.595  0.00  0.00    +0.000 A 
ATOM      5  C   UNL     1       2.013   7.797  19.354  0.00  0.00    +0.000 A 
ATOM      6  C   UNL     1       1.729   8.566  18.222  0.00  0.00    +0.000 A 
ATOM      7  C   UNL     1       1.009   9.762  18.279  0.00  0.00    +0.000 A 
ATOM      8  C   UNL     1       0.580  10.251  19.523  0.00  0.00    +0.000 A 
ATOM      9  N   UNL     1      -0.101  11.394  19.954  0.00  0.00    +0.000 N 
ENDROOT
BRANCH   5  10
ATOM     10  C   UNL     1       2.788   6.547  19.202  0.00  0.00    +0.000 A 
ATOM     11  C   UNL     1       3.819   6.405  18.283  0.00  0.00    +0.000 A 
ATOM     12  N   UNL     1       4.637   5.332  18.182  0.00  0.00    +0.000 NA
ATOM     13  C   UNL     1       4.415   4.343  19.044  0.00  0.00    +0.000 A 
ATOM     14  N   UNL     1       5.271   3.266  19.001  0.00  0.00    +0.000 N 
ATOM     15  N   UNL     1       3.415   4.319  19.928  0.00  0.00    +0.000 NA
ATOM     16  C   UNL     1       2.631   5.425  19.991  0.00  0.00    +0.000 A 
ATOM     17  H   UNL     1       5.720   3.217  18.097  0.00  0.00    +0.000 HD
ATOM     18  H   UNL     1       4.802   2.438  19.337  0.00  0.00    +0.000 HD
ENDBRANCH   5  10
BRANCH   1  23
ATOM     19  C   UNL     1      -3.080  12.505  23.651  0.00  0.00    +0.000 A 
ATOM     20  C   UNL     1      -2.572  13.737  24.023  0.00  0.00    +0.000 A 
ATOM     21  N   UNL     1      -1.366  14.190  23.655  0.00  0.00    +0.000 NA
ATOM     22  C   UNL     1      -0.654  13.373  22.840  0.00  0.00    +0.000 A 
ATOM     23  C   UNL     1      -1.039  12.126  22.343  0.00  0.00    +0.000 A 
ATOM     24  C   UNL     1      -2.296  11.692  22.816  0.00  0.00    +0.000 A 
BRANCH  19  26
ATOM     25  C   UNL     1      -5.385  13.076  23.703  0.00  0.00    +0.000 C 
ATOM     26  O   UNL     1      -4.326  12.242  24.140  0.00  0.00    +0.000 OA
ENDBRANCH  19  26
ENDBRANCH   1  23
BRANCH   9  27
ATOM     27  C   UNL     1      -0.535  12.521  19.092  0.00  0.00    +0.000 C 
ATOM     28  C   UNL     1      -1.417  13.615  19.756  0.00  0.00    +0.000 C 
ATOM     29  C   UNL     1       0.707  13.330  18.630  0.00  0.00    +0.000 C 
ATOM     30  C   UNL     1      -1.488  11.995  17.983  0.00  0.00    +0.000 C 
ENDBRANCH   9  27
TORSDOF 4
ENDMDL
MODEL 4
REMARK VINA RESULT:      -7.6      3.980     10.191
REMARK  Name = 
REMARK  8 active torsions:
REMARK  status: ('A' for Active; 'I' for Inactive)
REMARK    1  A    between atoms: C_1  and  O_2
REMARK    2  A    between atoms: O_2  and  C_3
REMARK    3  A    between atoms: C_7  and  C_8
REMARK    4  A    between atoms: C_12  and  C_13
REMARK    5  A    between atoms: N_23  and  C_24
REMARK    6  A    between atoms: C_24  and  C_25
REMARK    7  A    between atoms: C_24  and  C_26
REMARK    8  A    between atoms: C_24  and  C_27
REMARK                            x       y       z     vdW  Elec       q    Type
REMARK                         _______ _______ _______ _____ _____    ______ ____
ROOT
ATOM      1  C   UNL     1      -0.404  11.261  21.173  0.00  0.00    +0.000 A 
ATOM      2  N   UNL     1       0.432  10.294  21.547  0.00  0.00    +0.000 NA
ATOM      3  C   UNL     1       0.847   9.625  20.427  0.00  0.00    +0.000 A 
ATOM      4  C   UNL     1       1.719   8.508  20.314  0.00  0.00    +0.000 A 
ATOM      5  C   UNL     1       2.028   7.954  19.051  0.00  0.00    +0.000 A 
ATOM      6  C   UNL     1       1.433   8.550  17.936  0.00  0.00    +0.000 A 
ATOM      7  C   UNL     1       0.553   9.631  18.033  0.00  0.00    +0.000 A 
ATOM      8  C   UNL     1       0.276  10.185  19.293  0.00  0.00    +0.000 A 
ATOM      9  N   UNL     1      -0.491  11.259  19.754  0.00  0.00    +0.000 N 
ENDROOT
BRANCH   5  10
ATOM     10  C   UNL     1       2.954   6.817  18.855  0.00  0.00    +0.000 A 
ATOM     11  C   UNL     1       3.898   6.780  17.838  0.00  0.00    +0.000 A 
ATOM     12  N   UNL     1       4.845   5.827  17.682  0.00  0.00    +0.000 NA
ATOM     13  C   UNL     1       4.852   4.854  18.591  0.00  0.00    +0.000 A 
ATOM     14  N   UNL     1       5.844   3.904  18.489  0.00  0.00    +0.000 N 
ATOM     15  N   UNL     1       3.959   4.730  19.575  0.00  0.00    +0.000 NA
ATOM     16  C   UNL     1       3.037   5.720  19.688  0.00  0.00    +0.000 A 
ATOM     17  H   UNL     1       6.202   3.879  17.545  0.00  0.00    +0.000 HD
ATOM     18  H   UNL     1       5.532   3.035  18.896  0.00  0.00    +0.000 HD
ENDBRANCH   5  10
BRANCH   1  23
ATOM     19  C   UNL     1      -3.005  12.393  23.733  0.00  0.00    +0.000 A 
ATOM     20  C   UNL     1      -2.546  13.669  24.007  0.00  0.00    +0.000 A 
ATOM     21  N   UNL     1      -1.424  14.187  23.490  0.00  0.00    +0.000 NA
ATOM     22  C   UNL     1      -0.753  13.388  22.624  0.00  0.00    +0.000 A 
ATOM     23  C   UNL     1      -1.103  12.102  22.211  0.00  0.00    +0.000 A 
ATOM     24  C   UNL     1      -2.265  11.604  22.838  0.00  0.00    +0.000 A 
BRANCH  19  26
ATOM     25  C   UNL     1      -5.296  12.888  24.123  0.00  0.00    +0.000 C 
ATOM     26  O   UNL     1      -4.167  12.067  24.368  0.00  0.00    +0.000 OA
ENDBRANCH  19  26
ENDBRANCH   1  23
BRANCH   9  27
ATOM     27  C   UNL     1      -1.242  12.215  18.902  0.00  0.00    +0.000 C 
ATOM     28  C   UNL     1      -1.559  11.763  17.449  0.00  0.00    +0.000 C 
ATOM     29  C   UNL     1      -2.658  12.438  19.497  0.00  0.00    +0.000 C 
ATOM     30  C   UNL     1      -0.376  13.479  18.644  0.00  0.00    +0.000 C 
ENDBRANCH   9  27
TORSDOF 4
ENDMDL
MODEL 5
REMARK VINA RESULT:      -7.6      1.557      2.065
REMARK  Name = 
REMARK  8 active torsions:
REMARK  status: ('A' for Active; 'I' for Inactive)
REMARK    1  A    between atoms: C_1  and  O_2
REMARK    2  A    between atoms: O_2  and  C_3
REMARK    3  A    between atoms: C_7  and  C_8
REMARK    4  A    between atoms: C_12  and  C_13
REMARK    5  A    between atoms: N_23  and  C_24
REMARK    6  A    between atoms: C_24  and  C_25
REMARK    7  A    between atoms: C_24  and  C_26
REMARK    8  A    between atoms: C_24  and  C_27
REMARK                            x       y       z     vdW  Elec       q    Type
REMARK                         _______ _______ _______ _____ _____    ______ ____
ROOT
ATOM      1  C   UNL     1       4.450   6.427  17.077  0.00  0.00    +0.000 A 
ATOM      2  N   UNL     1       3.956   7.641  16.841  0.00  0.00    +0.000 NA
ATOM      3  C   UNL     1       3.062   7.944  17.832  0.00  0.00    +0.000 A 
ATOM      4  C   UNL     1       2.265   9.108  18.004  0.00  0.00    +0.000 A 
ATOM      5  C   UNL     1       1.392   9.233  19.108  0.00  0.00    +0.000 A 
ATOM      6  C   UNL     1       1.349   8.162  20.005  0.00  0.00    +0.000 A 
ATOM      7  C   UNL     1       2.106   7.000  19.835  0.00  0.00    +0.000 A 
ATOM      8  C   UNL     1       2.987   6.903  18.746  0.00  0.00    +0.000 A 
ATOM      9  N   UNL     1       3.902   5.946  18.297  0.00  0.00    +0.000 N 
ENDROOT
BRANCH   5  10
ATOM     10  C   UNL     1       0.561  10.428  19.370  0.00  0.00    +0.000 A 
ATOM     11  C   UNL     1       1.031  11.725  19.206  0.00  0.00    +0.000 A 
ATOM     12  N   UNL     1       0.285  12.848  19.315  0.00  0.00    +0.000 NA
ATOM     13  C   UNL     1      -1.002  12.671  19.604  0.00  0.00    +0.000 A 
ATOM     14  N   UNL     1      -1.795  13.796  19.661  0.00  0.00    +0.000 N 
ATOM     15  N   UNL     1      -1.565  11.488  19.858  0.00  0.00    +0.000 NA
ATOM     16  C   UNL     1      -0.772  10.395  19.726  0.00  0.00    +0.000 A 
ATOM     17  H   UNL     1      -1.224  14.613  19.828  0.00  0.00    +0.000 HD
ATOM     18  H   UNL     1      -2.576  13.636  20.280  0.00  0.00    +0.000 HD
ENDBRANCH   5  10
BRANCH   1  23
ATOM     19  C   UNL     1       5.693   4.374  14.103  0.00  0.00    +0.000 A 
ATOM     20  C   UNL     1       7.060   4.426  14.318  0.00  0.00    +0.000 A 
ATOM     21  N   UNL     1       7.634   5.124  15.307  0.00  0.00    +0.000 NA
ATOM     22  C   UNL     1       6.784   5.772  16.140  0.00  0.00    +0.000 A 
ATOM     23  C   UNL     1       5.389   5.785  16.087  0.00  0.00    +0.000 A 
ATOM     24  C   UNL     1       4.858   5.073  14.990  0.00  0.00    +0.000 A 
BRANCH  19  26
ATOM     25  C   UNL     1       6.342   3.206  12.139  0.00  0.00    +0.000 C 
ATOM     26  O   UNL     1       5.322   3.607  13.039  0.00  0.00    +0.000 OA
ENDBRANCH  19  26
ENDBRANCH   1  23
BRANCH   9  27
ATOM     27  C   UNL     1       4.234   4.674  18.987  0.00  0.00    +0.000 C 
ATOM     28  C   UNL     1       4.139   3.372  18.144  0.00  0.00    +0.000 C 
ATOM     29  C   UNL     1       5.726   4.688  19.412  0.00  0.00    +0.000 C 
ATOM     30  C   UNL     1       3.185   4.392  20.098  0.00  0.00    +0.000 C 
ENDBRANCH   9  27
TORSDOF 4
ENDMDL
MODEL 6
REMARK VINA RESULT:      -7.5      1.033      1.622
REMARK  Name = 
REMARK  8 active torsions:
REMARK  status: ('A' for Active; 'I' for Inactive)
REMARK    1  A    between atoms: C_1  and  O_2
REMARK    2  A    between atoms: O_2  and  C_3
REMARK    3  A    between atoms: C_7  and  C_8
REMARK    4  A    between atoms: C_12  and  C_13
REMARK    5  A    between atoms: N_23  and  C_24
REMARK    6  A    between atoms: C_24  and  C_25
REMARK    7  A    between atoms: C_24  and  C_26
REMARK    8  A    between atoms: C_24  and  C_27
REMARK                            x       y       z     vdW  Elec       q    Type
REMARK                         _______ _______ _______ _____ _____    ______ ____
ROOT
ATOM      1  C   UNL     1       4.375   6.261  17.342  0.00  0.00    +0.000 A 
ATOM      2  N   UNL     1       3.881   7.493  17.236  0.00  0.00    +0.000 NA
ATOM      3  C   UNL     1       2.973   7.682  18.242  0.00  0.00    +0.000 A 
ATOM      4  C   UNL     1       2.171   8.818  18.533  0.00  0.00    +0.000 A 
ATOM      5  C   UNL     1       1.282   8.818  19.632  0.00  0.00    +0.000 A 
ATOM      6  C   UNL     1       1.230   7.653  20.403  0.00  0.00    +0.000 A 
ATOM      7  C   UNL     1       1.993   6.519  20.114  0.00  0.00    +0.000 A 
ATOM      8  C   UNL     1       2.889   6.545  19.033  0.00  0.00    +0.000 A 
ATOM      9  N   UNL     1       3.813   5.645  18.493  0.00  0.00    +0.000 N 
ENDROOT
BRANCH   5  10
ATOM     10  C   UNL     1       0.445   9.975  20.015  0.00  0.00    +0.000 A 
ATOM     11  C   UNL     1      -0.637  10.406  19.259  0.00  0.00    +0.000 A 
ATOM     12  N   UNL     1      -1.507  11.378  19.618  0.00  0.00    +0.000 NA
ATOM     13  C   UNL     1      -1.286  11.955  20.797  0.00  0.00    +0.000 A 
ATOM     14  N   UNL     1      -2.191  12.906  21.213  0.00  0.00    +0.000 N 
ATOM     15  N   UNL     1      -0.244  11.688  21.588  0.00  0.00    +0.000 NA
ATOM     16  C   UNL     1       0.591  10.699  21.181  0.00  0.00    +0.000 A 
ATOM     17  H   UNL     1      -2.687  13.282  20.416  0.00  0.00    +0.000 HD
ATOM     18  H   UNL     1      -1.743  13.560  21.837  0.00  0.00    +0.000 HD
ENDBRANCH   5  10
BRANCH   1  23
ATOM     19  C   UNL     1       5.685   4.409  14.266  0.00  0.00    +0.000 A 
ATOM     20  C   UNL     1       7.048   4.584  14.431  0.00  0.00    +0.000 A 
ATOM     21  N   UNL     1       7.594   5.308  15.417  0.00  0.00    +0.000 NA
ATOM     22  C   UNL     1       6.721   5.852  16.300  0.00  0.00    +0.000 A 
ATOM     23  C   UNL     1       5.330   5.736  16.299  0.00  0.00    +0.000 A 
ATOM     24  C   UNL     1       4.824   5.004  15.203  0.00  0.00    +0.000 A 
BRANCH  19  26
ATOM     25  C   UNL     1       6.342   3.410  12.214  0.00  0.00    +0.000 C 
ATOM     26  O   UNL     1       5.344   3.637  13.195  0.00  0.00    +0.000 OA
ENDBRANCH  19  26
ENDBRANCH   1  23
BRANCH   9  27
ATOM     27  C   UNL     1       4.138   4.305  19.040  0.00  0.00    +0.000 C 
ATOM     28  C   UNL     1       3.973   3.094  18.080  0.00  0.00    +0.000 C 
ATOM     29  C   UNL     1       5.647   4.242  19.397  0.00  0.00    +0.000 C 
ATOM     30  C   UNL     1       3.129   3.939  20.164  0.00  0.00    +0.000 C 
ENDBRANCH   9  27
TORSDOF 4
ENDMDL
MODEL 7
REMARK VINA RESULT:      -7.5      4.066     10.199
REMARK  Name = 
REMARK  8 active torsions:
REMARK  status: ('A' for Active; 'I' for Inactive)
REMARK    1  A    between atoms: C_1  and  O_2
REMARK    2  A    between atoms: O_2  and  C_3
REMARK    3  A    between atoms: C_7  and  C_8
REMARK    4  A    between atoms: C_12  and  C_13
REMARK    5  A    between atoms: N_23  and  C_24
REMARK    6  A    between atoms: C_24  and  C_25
REMARK    7  A    between atoms: C_24  and  C_26
REMARK    8  A    between atoms: C_24  and  C_27
REMARK                            x       y       z     vdW  Elec       q    Type
REMARK                         _______ _______ _______ _____ _____    ______ ____
ROOT
ATOM      1  C   UNL     1      -0.317  11.239  21.070  0.00  0.00    +0.000 A 
ATOM      2  N   UNL     1       0.148  10.077  21.524  0.00  0.00    +0.000 NA
ATOM      3  C   UNL     1       0.808   9.448  20.504  0.00  0.00    +0.000 A 
ATOM      4  C   UNL     1       1.452   8.181  20.491  0.00  0.00    +0.000 A 
ATOM      5  C   UNL     1       2.088   7.702  19.323  0.00  0.00    +0.000 A 
ATOM      6  C   UNL     1       2.042   8.526  18.194  0.00  0.00    +0.000 A 
ATOM      7  C   UNL     1       1.390   9.761  18.184  0.00  0.00    +0.000 A 
ATOM      8  C   UNL     1       0.785  10.233  19.360  0.00  0.00    +0.000 A 
ATOM      9  N   UNL     1       0.106  11.401  19.723  0.00  0.00    +0.000 N 
ENDROOT
BRANCH   5  10
ATOM     10  C   UNL     1       2.807   6.412  19.247  0.00  0.00    +0.000 A 
ATOM     11  C   UNL     1       3.876   6.194  18.388  0.00  0.00    +0.000 A 
ATOM     12  N   UNL     1       4.644   5.080  18.360  0.00  0.00    +0.000 NA
ATOM     13  C   UNL     1       4.329   4.129  19.236  0.00  0.00    +0.000 A 
ATOM     14  N   UNL     1       5.132   3.011  19.268  0.00  0.00    +0.000 N 
ATOM     15  N   UNL     1       3.284   4.179  20.065  0.00  0.00    +0.000 NA
ATOM     16  C   UNL     1       2.554   5.323  20.056  0.00  0.00    +0.000 A 
ATOM     17  H   UNL     1       5.623   2.913  18.390  0.00  0.00    +0.000 HD
ATOM     18  H   UNL     1       4.605   2.217  19.600  0.00  0.00    +0.000 HD
ENDBRANCH   5  10
BRANCH   1  23
ATOM     19  C   UNL     1      -1.326  13.868  23.653  0.00  0.00    +0.000 A 
ATOM     20  C   UNL     1      -2.687  13.628  23.736  0.00  0.00    +0.000 A 
ATOM     21  N   UNL     1      -3.334  12.731  22.980  0.00  0.00    +0.000 NA
ATOM     22  C   UNL     1      -2.562  12.017  22.125  0.00  0.00    +0.000 A 
ATOM     23  C   UNL     1      -1.180  12.107  21.952  0.00  0.00    +0.000 A 
ATOM     24  C   UNL     1      -0.575  13.108  22.742  0.00  0.00    +0.000 A 
BRANCH  19  26
ATOM     25  C   UNL     1      -1.845  15.570  25.227  0.00  0.00    +0.000 C 
ATOM     26  O   UNL     1      -0.873  14.826  24.513  0.00  0.00    +0.000 OA
ENDBRANCH  19  26
ENDBRANCH   1  23
BRANCH   9  27
ATOM     27  C   UNL     1      -0.113  12.582  18.851  0.00  0.00    +0.000 C 
ATOM     28  C   UNL     1      -0.707  13.851  19.523  0.00  0.00    +0.000 C 
ATOM     29  C   UNL     1       1.252  13.095  18.319  0.00  0.00    +0.000 C 
ATOM     30  C   UNL     1      -1.207  12.258  17.796  0.00  0.00    +0.000 C 
ENDBRANCH   9  27
TORSDOF 4
ENDMDL
MODEL 8
REMARK VINA RESULT:      -7.2      1.124      1.615
REMARK  Name = 
REMARK  8 active torsions:
REMARK  status: ('A' for Active; 'I' for Inactive)
REMARK    1  A    between atoms: C_1  and  O_2
REMARK    2  A    between atoms: O_2  and  C_3
REMARK    3  A    between atoms: C_7  and  C_8
REMARK    4  A    between atoms: C_12  and  C_13
REMARK    5  A    between atoms: N_23  and  C_24
REMARK    6  A    between atoms: C_24  and  C_25
REMARK    7  A    between atoms: C_24  and  C_26
REMARK    8  A    between atoms: C_24  and  C_27
REMARK                            x       y       z     vdW  Elec       q    Type
REMARK                         _______ _______ _______ _____ _____    ______ ____
ROOT
ATOM      1  C   UNL     1       3.989   5.249  17.770  0.00  0.00    +0.000 A 
ATOM      2  N   UNL     1       3.725   6.549  17.890  0.00  0.00    +0.000 NA
ATOM      3  C   UNL     1       2.859   6.718  18.937  0.00  0.00    +0.000 A 
ATOM      4  C   UNL     1       2.272   7.911  19.439  0.00  0.00    +0.000 A 
ATOM      5  C   UNL     1       1.391   7.877  20.544  0.00  0.00    +0.000 A 
ATOM      6  C   UNL     1       1.127   6.624  21.104  0.00  0.00    +0.000 A 
ATOM      7  C   UNL     1       1.675   5.440  20.605  0.00  0.00    +0.000 A 
ATOM      8  C   UNL     1       2.568   5.494  19.522  0.00  0.00    +0.000 A 
ATOM      9  N   UNL     1       3.319   4.553  18.812  0.00  0.00    +0.000 N 
ENDROOT
BRANCH   5  10
ATOM     10  C   UNL     1       0.772   9.080  21.141  0.00  0.00    +0.000 A 
ATOM     11  C   UNL     1       0.124  10.049  20.386  0.00  0.00    +0.000 A 
ATOM     12  N   UNL     1      -0.560  11.104  20.885  0.00  0.00    +0.000 NA
ATOM     13  C   UNL     1      -0.601  11.201  22.212  0.00  0.00    +0.000 A 
ATOM     14  N   UNL     1      -1.341  12.232  22.746  0.00  0.00    +0.000 N 
ATOM     15  N   UNL     1       0.037  10.382  23.051  0.00  0.00    +0.000 NA
ATOM     16  C   UNL     1       0.701   9.337  22.495  0.00  0.00    +0.000 A 
ATOM     17  H   UNL     1      -1.451  12.968  22.063  0.00  0.00    +0.000 HD
ATOM     18  H   UNL     1      -0.977  12.484  23.653  0.00  0.00    +0.000 HD
ENDBRANCH   5  10
BRANCH   1  23
ATOM     19  C   UNL     1       6.769   5.097  15.152  0.00  0.00    +0.000 A 
ATOM     20  C   UNL     1       6.364   3.994  14.421  0.00  0.00    +0.000 A 
ATOM     21  N   UNL     1       5.300   3.241  14.733  0.00  0.00    +0.000 NA
ATOM     22  C   UNL     1       4.591   3.645  15.816  0.00  0.00    +0.000 A 
ATOM     23  C   UNL     1       4.841   4.752  16.629  0.00  0.00    +0.000 A 
ATOM     24  C   UNL     1       6.005   5.465  16.272  0.00  0.00    +0.000 A 
BRANCH  19  26
ATOM     25  C   UNL     1       8.151   5.565  13.278  0.00  0.00    +0.000 C 
ATOM     26  O   UNL     1       7.880   5.718  14.661  0.00  0.00    +0.000 OA
ENDBRANCH  19  26
ENDBRANCH   1  23
BRANCH   9  27
ATOM     27  C   UNL     1       3.396   3.101  19.112  0.00  0.00    +0.000 C 
ATOM     28  C   UNL     1       2.705   2.616  20.417  0.00  0.00    +0.000 C 
ATOM     29  C   UNL     1       2.638   2.303  18.018  0.00  0.00    +0.000 C 
ATOM     30  C   UNL     1       4.872   2.701  19.385  0.00  0.00    +0.000 C 
ENDBRANCH   9  27
TORSDOF 4
ENDMDL
MODEL 9
REMARK VINA RESULT:      -7.2      4.030      9.898
REMARK  Name = 
REMARK  8 active torsions:
REMARK  status: ('A' for Active; 'I' for Inactive)
REMARK    1  A    between atoms: C_1  and  O_2
REMARK    2  A    between atoms: O_2  and  C_3
REMARK    3  A    between atoms: C_7  and  C_8
REMARK    4  A    between atoms: C_12  and  C_13
REMARK    5  A    between atoms: N_23  and  C_24
REMARK    6  A    between atoms: C_24  and  C_25
REMARK    7  A    between atoms: C_24  and  C_26
REMARK    8  A    between atoms: C_24  and  C_27
REMARK                            x       y       z     vdW  Elec       q    Type
REMARK                         _______ _______ _______ _____ _____    ______ ____
ROOT
ATOM      1  C   UNL     1       0.315  11.032  20.969  0.00  0.00    +0.000 A 
ATOM      2  N   UNL     1       0.560   9.760  21.278  0.00  0.00    +0.000 NA
ATOM      3  C   UNL     1       1.207   9.176  20.222  0.00  0.00    +0.000 A 
ATOM      4  C   UNL     1       1.654   7.837  20.066  0.00  0.00    +0.000 A 
ATOM      5  C   UNL     1       2.311   7.423  18.886  0.00  0.00    +0.000 A 
ATOM      6  C   UNL     1       2.488   8.388  17.890  0.00  0.00    +0.000 A 
ATOM      7  C   UNL     1       2.030   9.701  18.017  0.00  0.00    +0.000 A 
ATOM      8  C   UNL     1       1.402  10.102  19.207  0.00  0.00    +0.000 A 
ATOM      9  N   UNL     1       0.874  11.303  19.691  0.00  0.00    +0.000 N 
ENDROOT
BRANCH   5  10
ATOM     10  C   UNL     1       2.835   6.057  18.669  0.00  0.00    +0.000 A 
ATOM     11  C   UNL     1       4.059   5.630  19.166  0.00  0.00    +0.000 A 
ATOM     12  N   UNL     1       4.533   4.365  19.102  0.00  0.00    +0.000 NA
ATOM     13  C   UNL     1       3.743   3.473  18.509  0.00  0.00    +0.000 A 
ATOM     14  N   UNL     1       4.176   2.166  18.484  0.00  0.00    +0.000 N 
ATOM     15  N   UNL     1       2.578   3.763  17.925  0.00  0.00    +0.000 NA
ATOM     16  C   UNL     1       2.148   5.046  18.027  0.00  0.00    +0.000 A 
ATOM     17  H   UNL     1       5.180   2.132  18.599  0.00  0.00    +0.000 HD
ATOM     18  H   UNL     1       3.780   1.686  17.689  0.00  0.00    +0.000 HD
ENDBRANCH   5  10
BRANCH   1  23
ATOM     19  C   UNL     1      -2.477  12.182  23.311  0.00  0.00    +0.000 A 
ATOM     20  C   UNL     1      -2.104  13.499  23.516  0.00  0.00    +0.000 A 
ATOM     21  N   UNL     1      -0.986  14.045  23.019  0.00  0.00    +0.000 NA
ATOM     22  C   UNL     1      -0.227  13.230  22.246  0.00  0.00    +0.000 A 
ATOM     23  C   UNL     1      -0.483  11.900  21.909  0.00  0.00    +0.000 A 
ATOM     24  C   UNL     1      -1.648  11.378  22.512  0.00  0.00    +0.000 A 
BRANCH  19  26
ATOM     25  C   UNL     1      -4.317  12.829  24.668  0.00  0.00    +0.000 C 
ATOM     26  O   UNL     1      -3.651  11.833  23.911  0.00  0.00    +0.000 OA
ENDBRANCH  19  26
ENDBRANCH   1  23
BRANCH   9  27
ATOM     27  C   UNL     1       0.911  12.610  18.988  0.00  0.00    +0.000 C 
ATOM     28  C   UNL     1       1.168  13.870  19.862  0.00  0.00    +0.000 C 
ATOM     29  C   UNL     1       2.110  12.637  18.004  0.00  0.00    +0.000 C 
ATOM     30  C   UNL     1      -0.493  12.929  18.403  0.00  0.00    +0.000 C 
ENDBRANCH   9  27
TORSDOF 4
ENDMDL
