MODEL 1
REMARK VINA RESULT:      -9.0      0.000      0.000
REMARK  Name = 
REMARK  7 active torsions:
REMARK  status: ('A' for Active; 'I' for Inactive)
REMARK    1  A    between atoms: C_2  and  C_24
REMARK    2  A    between atoms: N_3  and  C_4
REMARK    3  A    between atoms: C_4  and  C_5
REMARK    4  A    between atoms: C_5  and  C_6
REMARK    5  A    between atoms: C_6  and  C_7
REMARK    6  A    between atoms: C_7  and  N_8
REMARK    7  A    between atoms: N_11  and  C_12
REMARK                            x       y       z     vdW  Elec       q    Type
REMARK                         _______ _______ _______ _____ _____    ______ ____
ROOT
ATOM      1  C   UNL     1       2.149   3.409  18.171  0.00  0.00    +0.000 C 
ENDROOT
BRANCH   1   2
ATOM      2  C   UNL     1       2.651   2.670  19.410  0.00  0.00    +0.000 C 
BRANCH   2   3
ATOM      3  C   UNL     1       4.163   2.481  19.376  0.00  0.00    +0.000 C 
BRANCH   3   6
ATOM      4  O   UNL     1       6.073   4.592  19.121  0.00  0.00    +0.000 OA
ATOM      5  C   UNL     1       5.644   4.019  18.128  0.00  0.00    +0.000 C 
ATOM      6  N   UNL     1       4.732   2.988  18.152  0.00  0.00    +0.000 N 
ATOM      7  H   UNL     1       4.590   2.427  17.323  0.00  0.00    +0.000 HD
BRANCH   5   8
ATOM      8  C   UNL     1       6.122   4.389  16.782  0.00  0.00    +0.000 A 
ATOM      9  C   UNL     1       7.044   5.409  16.631  0.00  0.00    +0.000 A 
ATOM     10  N   UNL     1       7.593   5.751  15.439  0.00  0.00    +0.000 NA
ATOM     11  C   UNL     1       7.212   5.065  14.346  0.00  0.00    +0.000 A 
ATOM     12  C   UNL     1       7.779   5.352  13.115  0.00  0.00    +0.000 A 
ATOM     13  C   UNL     1       7.417   4.656  11.956  0.00  0.00    +0.000 A 
ATOM     14  C   UNL     1       6.459   3.652  12.018  0.00  0.00    +0.000 A 
ATOM     15  C   UNL     1       5.868   3.343  13.239  0.00  0.00    +0.000 A 
ATOM     16  C   UNL     1       6.242   4.035  14.400  0.00  0.00    +0.000 A 
ATOM     17  C   UNL     1       5.690   3.718  15.638  0.00  0.00    +0.000 A 
ENDBRANCH   5   8
ENDBRANCH   3   6
ENDBRANCH   2   3
ENDBRANCH   1   2
BRANCH   1  18
ATOM     18  C   UNL     1       1.931   4.918  18.362  0.00  0.00    +0.000 C 
BRANCH  18  19
ATOM     19  N   UNL     1       2.815   5.550  19.356  0.00  0.00    +0.000 NA
ATOM     20  C   UNL     1       3.120   6.966  19.040  0.00  0.00    +0.000 C 
ATOM     21  C   UNL     1       1.926   7.950  19.116  0.00  0.00    +0.000 C 
ATOM     22  N   UNL     1       1.170   7.786  20.373  0.00  0.00    +0.000 N 
ATOM     23  C   UNL     1       0.911   6.413  20.818  0.00  0.00    +0.000 C 
ATOM     24  C   UNL     1       2.180   5.542  20.700  0.00  0.00    +0.000 C 
BRANCH  22  25
ATOM     25  C   UNL     1       0.578   8.892  20.987  0.00  0.00    +0.000 A 
ATOM     26  C   UNL     1       0.631   8.943  22.397  0.00  0.00    +0.000 A 
ATOM     27  C   UNL     1       0.047   9.968  23.132  0.00  0.00    +0.000 A 
ATOM     28  C   UNL     1      -0.633  10.978  22.473  0.00  0.00    +0.000 A 
ATOM     29  C   UNL     1      -0.735  10.979  21.078  0.00  0.00    +0.000 A 
ATOM     30  C   UNL     1      -1.445  12.022  20.457  0.00  0.00    +0.000 A 
ATOM     31  C   UNL     1      -1.581  12.087  19.074  0.00  0.00    +0.000 A 
ATOM     32  C   UNL     1      -0.986  11.115  18.292  0.00  0.00    +0.000 A 
ATOM     33  C   UNL     1      -0.259  10.086  18.897  0.00  0.00    +0.000 A 
ATOM     34  C   UNL     1      -0.126   9.948  20.307  0.00  0.00    +0.000 A 
ENDBRANCH  22  25
ENDBRANCH  18  19
ENDBRANCH   1  18
TORSDOF 7
ENDMDL
MODEL 2
REMARK VINA RESULT:      -9.0      6.555      8.598
REMARK  Name = 
REMARK  7 active torsions:
REMARK  status: ('A' for Active; 'I' for Inactive)
REMARK    1  A    between atoms: C_2  and  C_24
REMARK    2  A    between atoms: N_3  and  C_4
REMARK    3  A    between atoms: C_4  and  C_5
REMARK    4  A    between atoms: C_5  and  C_6
REMARK    5  A    between atoms: C_6  and  C_7
REMARK    6  A    between atoms: C_7  and  N_8
REMARK    7  A    between atoms: N_11  and  C_12
REMARK                            x       y       z     vdW  Elec       q    Type
REMARK                         _______ _______ _______ _____ _____    ______ ____
ROOT
ATOM      1  C   UNL     1       8.791   9.582  18.318  0.00  0.00    +0.000 C 
ENDROOT
BRANCH   1   2
ATOM      2  C   UNL     1       7.800   8.690  17.572  0.00  0.00    +0.000 C 
BRANCH   2   3
ATOM      3  C   UNL     1       7.965   7.224  17.957  0.00  0.00    +0.000 C 
BRANCH   3   6
ATOM      4  O   UNL     1       7.532   4.425  18.331  0.00  0.00    +0.000 OA
ATOM      5  C   UNL     1       6.583   5.188  18.206  0.00  0.00    +0.000 C 
ATOM      6  N   UNL     1       6.694   6.550  18.031  0.00  0.00    +0.000 N 
ATOM      7  H   UNL     1       5.878   7.136  18.149  0.00  0.00    +0.000 HD
BRANCH   5   8
ATOM      8  C   UNL     1       5.199   4.684  18.269  0.00  0.00    +0.000 A 
ATOM      9  C   UNL     1       4.606   4.144  17.142  0.00  0.00    +0.000 A 
ATOM     10  N   UNL     1       3.370   3.585  17.140  0.00  0.00    +0.000 NA
ATOM     11  C   UNL     1       2.684   3.564  18.297  0.00  0.00    +0.000 A 
ATOM     12  C   UNL     1       1.436   2.965  18.352  0.00  0.00    +0.000 A 
ATOM     13  C   UNL     1       0.694   2.914  19.537  0.00  0.00    +0.000 A 
ATOM     14  C   UNL     1       1.199   3.481  20.700  0.00  0.00    +0.000 A 
ATOM     15  C   UNL     1       2.448   4.094  20.677  0.00  0.00    +0.000 A 
ATOM     16  C   UNL     1       3.193   4.133  19.490  0.00  0.00    +0.000 A 
ATOM     17  C   UNL     1       4.461   4.709  19.452  0.00  0.00    +0.000 A 
ENDBRANCH   5   8
ENDBRANCH   3   6
ENDBRANCH   2   3
ENDBRANCH   1   2
BRANCH   1  18
ATOM     18  C   UNL     1       8.698  11.077  17.977  0.00  0.00    +0.000 C 
BRANCH  18  19
ATOM     19  N   UNL     1       9.908  11.859  18.284  0.00  0.00    +0.000 NA
ATOM     20  C   UNL     1       9.638  13.310  18.424  0.00  0.00    +0.000 C 
ATOM     21  C   UNL     1       8.767  13.723  19.638  0.00  0.00    +0.000 C 
ATOM     22  N   UNL     1       9.250  13.099  20.886  0.00  0.00    +0.000 N 
ATOM     23  C   UNL     1       9.640  11.687  20.814  0.00  0.00    +0.000 C 
ATOM     24  C   UNL     1      10.507  11.412  19.568  0.00  0.00    +0.000 C 
BRANCH  22  25
ATOM     25  C   UNL     1       9.150  13.783  22.099  0.00  0.00    +0.000 A 
ATOM     26  C   UNL     1       9.754  15.058  22.164  0.00  0.00    +0.000 A 
ATOM     27  C   UNL     1       9.760  15.826  23.322  0.00  0.00    +0.000 A 
ATOM     28  C   UNL     1       9.172  15.329  24.473  0.00  0.00    +0.000 A 
ATOM     29  C   UNL     1       8.569  14.066  24.480  0.00  0.00    +0.000 A 
ATOM     30  C   UNL     1       7.994  13.603  25.677  0.00  0.00    +0.000 A 
ATOM     31  C   UNL     1       7.375  12.359  25.753  0.00  0.00    +0.000 A 
ATOM     32  C   UNL     1       7.304  11.571  24.620  0.00  0.00    +0.000 A 
ATOM     33  C   UNL     1       7.853  12.032  23.419  0.00  0.00    +0.000 A 
ATOM     34  C   UNL     1       8.535  13.274  23.297  0.00  0.00    +0.000 A 
ENDBRANCH  22  25
ENDBRANCH  18  19
ENDBRANCH   1  18
TORSDOF 7
ENDMDL
MODEL 3
REMARK VINA RESULT:      -8.9      6.323      9.086
REMARK  Name = 
REMARK  7 active torsions:
REMARK  status: ('A' for Active; 'I' for Inactive)
REMARK    1  A    between atoms: C_2  and  C_24
REMARK    2  A    between atoms: N_3  and  C_4
REMARK    3  A    between atoms: C_4  and  C_5
REMARK    4  A    between atoms: C_5  and  C_6
REMARK    5  A    between atoms: C_6  and  C_7
REMARK    6  A    between atoms: C_7  and  N_8
REMARK    7  A    between atoms: N_11  and  C_12
REMARK                            x       y       z     vdW  Elec       q    Type
REMARK                         _______ _______ _______ _____ _____    ______ ____
ROOT
ATOM      1  C   UNL     1       7.460   7.295  17.679  0.00  0.00    +0.000 C 
ENDROOT
BRANCH   1   2
ATOM      2  C   UNL     1       7.713   8.799  17.588  0.00  0.00    +0.000 C 
BRANCH   2   3
ATOM      3  C   UNL     1       8.778   9.249  18.581  0.00  0.00    +0.000 C 
BRANCH   3   6
ATOM      4  O   UNL     1       9.219  11.386  20.426  0.00  0.00    +0.000 OA
ATOM      5  C   UNL     1       9.439  11.542  19.232  0.00  0.00    +0.000 C 
ATOM      6  N   UNL     1       9.265  10.570  18.272  0.00  0.00    +0.000 N 
ATOM      7  H   UNL     1       9.666  10.700  17.352  0.00  0.00    +0.000 HD
BRANCH   5   8
ATOM      8  C   UNL     1       9.958  12.825  18.724  0.00  0.00    +0.000 A 
ATOM      9  C   UNL     1      11.074  12.846  17.907  0.00  0.00    +0.000 A 
ATOM     10  N   UNL     1      11.563  13.974  17.334  0.00  0.00    +0.000 NA
ATOM     11  C   UNL     1      10.929  15.135  17.582  0.00  0.00    +0.000 A 
ATOM     12  C   UNL     1      11.367  16.305  16.983  0.00  0.00    +0.000 A 
ATOM     13  C   UNL     1      10.731  17.531  17.207  0.00  0.00    +0.000 A 
ATOM     14  C   UNL     1       9.634  17.601  18.057  0.00  0.00    +0.000 A 
ATOM     15  C   UNL     1       9.173  16.444  18.677  0.00  0.00    +0.000 A 
ATOM     16  C   UNL     1       9.806  15.216  18.441  0.00  0.00    +0.000 A 
ATOM     17  C   UNL     1       9.339  14.039  19.022  0.00  0.00    +0.000 A 
ENDBRANCH   5   8
ENDBRANCH   3   6
ENDBRANCH   2   3
ENDBRANCH   1   2
BRANCH   1  18
ATOM     18  C   UNL     1       7.433   6.561  16.329  0.00  0.00    +0.000 C 
BRANCH  18  19
ATOM     19  N   UNL     1       7.607   5.101  16.414  0.00  0.00    +0.000 NA
ATOM     20  C   UNL     1       7.547   4.592  17.805  0.00  0.00    +0.000 C 
ATOM     21  C   UNL     1       6.175   4.714  18.514  0.00  0.00    +0.000 C 
ATOM     22  N   UNL     1       5.081   4.206  17.663  0.00  0.00    +0.000 N 
ATOM     23  C   UNL     1       5.117   4.576  16.245  0.00  0.00    +0.000 C 
ATOM     24  C   UNL     1       6.534   4.402  15.660  0.00  0.00    +0.000 C 
BRANCH  22  25
ATOM     25  C   UNL     1       3.980   3.569  18.238  0.00  0.00    +0.000 A 
ATOM     26  C   UNL     1       3.797   2.204  17.927  0.00  0.00    +0.000 A 
ATOM     27  C   UNL     1       2.721   1.465  18.403  0.00  0.00    +0.000 A 
ATOM     28  C   UNL     1       1.770   2.079  19.201  0.00  0.00    +0.000 A 
ATOM     29  C   UNL     1       1.884   3.433  19.535  0.00  0.00    +0.000 A 
ATOM     30  C   UNL     1       0.888   4.012  20.340  0.00  0.00    +0.000 A 
ATOM     31  C   UNL     1       0.942   5.351  20.715  0.00  0.00    +0.000 A 
ATOM     32  C   UNL     1       2.012   6.124  20.303  0.00  0.00    +0.000 A 
ATOM     33  C   UNL     1       3.020   5.552  19.520  0.00  0.00    +0.000 A 
ATOM     34  C   UNL     1       2.991   4.202  19.074  0.00  0.00    +0.000 A 
ENDBRANCH  22  25
ENDBRANCH  18  19
ENDBRANCH   1  18
TORSDOF 7
ENDMDL
MODEL 4
REMARK VINA RESULT:      -8.7      7.158      9.032
REMARK  Name = 
REMARK  7 active torsions:
REMARK  status: ('A' for Active; 'I' for Inactive)
REMARK    1  A    between atoms: C_2  and  C_24
REMARK    2  A    between atoms: N_3  and  C_4
REMARK    3  A    between atoms: C_4  and  C_5
REMARK    4  A    between atoms: C_5  and  C_6
REMARK    5  A    between atoms: C_6  and  C_7
REMARK    6  A    between atoms: C_7  and  N_8
REMARK    7  A    between atoms: N_11  and  C_12
REMARK                            x       y       z     vdW  Elec       q    Type
REMARK                         _______ _______ _______ _____ _____    ______ ____
ROOT
ATOM      1  C   UNL     1       8.177   9.575  17.924  0.00  0.00    +0.000 C 
ENDROOT
BRANCH   1   2
ATOM      2  C   UNL     1       8.122   8.137  17.411  0.00  0.00    +0.000 C 
BRANCH   2   3
ATOM      3  C   UNL     1       8.101   7.133  18.557  0.00  0.00    +0.000 C 
BRANCH   3   6
ATOM      4  O   UNL     1       7.434   4.734  17.155  0.00  0.00    +0.000 OA
ATOM      5  C   UNL     1       6.616   5.270  17.892  0.00  0.00    +0.000 C 
ATOM      6  N   UNL     1       6.850   6.419  18.614  0.00  0.00    +0.000 N 
ATOM      7  H   UNL     1       6.215   6.680  19.356  0.00  0.00    +0.000 HD
BRANCH   5   8
ATOM      8  C   UNL     1       5.281   4.677  18.090  0.00  0.00    +0.000 A 
ATOM      9  C   UNL     1       4.812   3.716  17.213  0.00  0.00    +0.000 A 
ATOM     10  N   UNL     1       3.634   3.064  17.375  0.00  0.00    +0.000 NA
ATOM     11  C   UNL     1       2.878   3.379  18.443  0.00  0.00    +0.000 A 
ATOM     12  C   UNL     1       1.688   2.708  18.671  0.00  0.00    +0.000 A 
ATOM     13  C   UNL     1       0.878   2.998  19.775  0.00  0.00    +0.000 A 
ATOM     14  C   UNL     1       1.255   3.988  20.673  0.00  0.00    +0.000 A 
ATOM     15  C   UNL     1       2.443   4.683  20.470  0.00  0.00    +0.000 A 
ATOM     16  C   UNL     1       3.257   4.381  19.369  0.00  0.00    +0.000 A 
ATOM     17  C   UNL     1       4.468   5.038  19.165  0.00  0.00    +0.000 A 
ENDBRANCH   5   8
ENDBRANCH   3   6
ENDBRANCH   2   3
ENDBRANCH   1   2
BRANCH   1  18
ATOM     18  C   UNL     1       9.007   9.774  19.202  0.00  0.00    +0.000 C 
BRANCH  18  19
ATOM     19  N   UNL     1      10.188  10.640  19.045  0.00  0.00    +0.000 NA
ATOM     20  C   UNL     1      10.155  11.443  17.799  0.00  0.00    +0.000 C 
ATOM     21  C   UNL     1       9.048  12.524  17.719  0.00  0.00    +0.000 C 
ATOM     22  N   UNL     1       9.011  13.350  18.943  0.00  0.00    +0.000 N 
ATOM     23  C   UNL     1       9.143  12.646  20.222  0.00  0.00    +0.000 C 
ATOM     24  C   UNL     1      10.281  11.606  20.171  0.00  0.00    +0.000 C 
BRANCH  22  25
ATOM     25  C   UNL     1       8.676  14.703  18.868  0.00  0.00    +0.000 A 
ATOM     26  C   UNL     1       7.362  15.057  19.244  0.00  0.00    +0.000 A 
ATOM     27  C   UNL     1       6.890  16.363  19.180  0.00  0.00    +0.000 A 
ATOM     28  C   UNL     1       7.721  17.366  18.712  0.00  0.00    +0.000 A 
ATOM     29  C   UNL     1       9.030  17.081  18.309  0.00  0.00    +0.000 A 
ATOM     30  C   UNL     1       9.831  18.133  17.832  0.00  0.00    +0.000 A 
ATOM     31  C   UNL     1      11.143  17.921  17.420  0.00  0.00    +0.000 A 
ATOM     32  C   UNL     1      11.677  16.648  17.501  0.00  0.00    +0.000 A 
ATOM     33  C   UNL     1      10.896  15.598  17.995  0.00  0.00    +0.000 A 
ATOM     34  C   UNL     1       9.538  15.752  18.388  0.00  0.00    +0.000 A 
ENDBRANCH  22  25
ENDBRANCH  18  19
ENDBRANCH   1  18
TORSDOF 7
ENDMDL
MODEL 5
REMARK VINA RESULT:      -8.6      7.290      9.215
REMARK  Name = 
REMARK  7 active torsions:
REMARK  status: ('A' for Active; 'I' for Inactive)
REMARK    1  A    between atoms: C_2  and  C_24
REMARK    2  A    between atoms: N_3  and  C_4
REMARK    3  A    between atoms: C_4  and  C_5
REMARK    4  A    between atoms: C_5  and  C_6
REMARK    5  A    between atoms: C_6  and  C_7
REMARK    6  A    between atoms: C_7  and  N_8
REMARK    7  A    between atoms: N_11  and  C_12
REMARK                            x       y       z     vdW  Elec       q    Type
REMARK                         _______ _______ _______ _____ _____    ______ ____
ROOT
ATOM      1  C   UNL     1       8.453   9.390  17.753  0.00  0.00    +0.000 C 
ENDROOT
BRANCH   1   2
ATOM      2  C   UNL     1       8.118   7.997  18.283  0.00  0.00    +0.000 C 
BRANCH   2   3
ATOM      3  C   UNL     1       7.460   7.134  17.214  0.00  0.00    +0.000 C 
BRANCH   3   6
ATOM      4  O   UNL     1       7.258   4.616  18.552  0.00  0.00    +0.000 OA
ATOM      5  C   UNL     1       6.256   5.285  18.332  0.00  0.00    +0.000 C 
ATOM      6  N   UNL     1       6.256   6.511  17.704  0.00  0.00    +0.000 N 
ATOM      7  H   UNL     1       5.432   7.095  17.750  0.00  0.00    +0.000 HD
BRANCH   5   8
ATOM      8  C   UNL     1       4.929   4.818  18.775  0.00  0.00    +0.000 A 
ATOM      9  C   UNL     1       4.172   5.596  19.633  0.00  0.00    +0.000 A 
ATOM     10  N   UNL     1       2.911   5.277  20.018  0.00  0.00    +0.000 NA
ATOM     11  C   UNL     1       2.374   4.137  19.545  0.00  0.00    +0.000 A 
ATOM     12  C   UNL     1       1.074   3.793  19.879  0.00  0.00    +0.000 A 
ATOM     13  C   UNL     1       0.476   2.622  19.400  0.00  0.00    +0.000 A 
ATOM     14  C   UNL     1       1.191   1.762  18.576  0.00  0.00    +0.000 A 
ATOM     15  C   UNL     1       2.500   2.077  18.227  0.00  0.00    +0.000 A 
ATOM     16  C   UNL     1       3.092   3.258  18.698  0.00  0.00    +0.000 A 
ATOM     17  C   UNL     1       4.388   3.611  18.332  0.00  0.00    +0.000 A 
ENDBRANCH   5   8
ENDBRANCH   3   6
ENDBRANCH   2   3
ENDBRANCH   1   2
BRANCH   1  18
ATOM     18  C   UNL     1       9.173  10.307  18.754  0.00  0.00    +0.000 C 
BRANCH  18  19
ATOM     19  N   UNL     1      10.048  11.324  18.145  0.00  0.00    +0.000 NA
ATOM     20  C   UNL     1       9.380  12.637  17.982  0.00  0.00    +0.000 C 
ATOM     21  C   UNL     1       9.019  13.381  19.292  0.00  0.00    +0.000 C 
ATOM     22  N   UNL     1      10.164  13.424  20.222  0.00  0.00    +0.000 N 
ATOM     23  C   UNL     1      10.948  12.194  20.367  0.00  0.00    +0.000 C 
ATOM     24  C   UNL     1      11.246  11.558  18.993  0.00  0.00    +0.000 C 
BRANCH  22  25
ATOM     25  C   UNL     1      10.355  14.531  21.052  0.00  0.00    +0.000 A 
ATOM     26  C   UNL     1      11.245  15.527  20.593  0.00  0.00    +0.000 A 
ATOM     27  C   UNL     1      11.552  16.659  21.338  0.00  0.00    +0.000 A 
ATOM     28  C   UNL     1      10.987  16.824  22.592  0.00  0.00    +0.000 A 
ATOM     29  C   UNL     1      10.109  15.867  23.112  0.00  0.00    +0.000 A 
ATOM     30  C   UNL     1       9.569  16.076  24.393  0.00  0.00    +0.000 A 
ATOM     31  C   UNL     1       8.686  15.168  24.969  0.00  0.00    +0.000 A 
ATOM     32  C   UNL     1       8.315  14.044  24.254  0.00  0.00    +0.000 A 
ATOM     33  C   UNL     1       8.828  13.838  22.970  0.00  0.00    +0.000 A 
ATOM     34  C   UNL     1       9.766  14.711  22.354  0.00  0.00    +0.000 A 
ENDBRANCH  22  25
ENDBRANCH  18  19
ENDBRANCH   1  18
TORSDOF 7
ENDMDL
MODEL 6
REMARK VINA RESULT:      -8.5      5.557      9.914
REMARK  Name = 
REMARK  7 active torsions:
REMARK  status: ('A' for Active; 'I' for Inactive)
REMARK    1  A    between atoms: C_2  and  C_24
REMARK    2  A    between atoms: N_3  and  C_4
REMARK    3  A    between atoms: C_4  and  C_5
REMARK    4  A    between atoms: C_5  and  C_6
REMARK    5  A    between atoms: C_6  and  C_7
REMARK    6  A    between atoms: C_7  and  N_8
REMARK    7  A    between atoms: N_11  and  C_12
REMARK                            x       y       z     vdW  Elec       q    Type
REMARK                         _______ _______ _______ _____ _____    ______ ____
ROOT
ATOM      1  C   UNL     1       8.245   9.318  17.713  0.00  0.00    +0.000 C 
ENDROOT
BRANCH   1   2
ATOM      2  C   UNL     1       8.992   9.270  19.045  0.00  0.00    +0.000 C 
BRANCH   2   3
ATOM      3  C   UNL     1       9.579  10.628  19.408  0.00  0.00    +0.000 C 
BRANCH   3   6
ATOM      4  O   UNL     1      10.588  12.757  21.026  0.00  0.00    +0.000 OA
ATOM      5  C   UNL     1       9.546  12.188  21.327  0.00  0.00    +0.000 C 
ATOM      6  N   UNL     1       8.979  11.161  20.606  0.00  0.00    +0.000 N 
ATOM      7  H   UNL     1       8.023  10.890  20.791  0.00  0.00    +0.000 HD
BRANCH   5   8
ATOM      8  C   UNL     1       8.779  12.605  22.516  0.00  0.00    +0.000 A 
ATOM      9  C   UNL     1       8.774  13.931  22.907  0.00  0.00    +0.000 A 
ATOM     10  N   UNL     1       8.029  14.407  23.936  0.00  0.00    +0.000 NA
ATOM     11  C   UNL     1       7.260  13.536  24.615  0.00  0.00    +0.000 A 
ATOM     12  C   UNL     1       6.449  13.984  25.645  0.00  0.00    +0.000 A 
ATOM     13  C   UNL     1       5.628  13.113  26.369  0.00  0.00    +0.000 A 
ATOM     14  C   UNL     1       5.616  11.757  26.070  0.00  0.00    +0.000 A 
ATOM     15  C   UNL     1       6.422  11.275  25.044  0.00  0.00    +0.000 A 
ATOM     16  C   UNL     1       7.235  12.152  24.312  0.00  0.00    +0.000 A 
ATOM     17  C   UNL     1       8.022  11.698  23.258  0.00  0.00    +0.000 A 
ENDBRANCH   5   8
ENDBRANCH   3   6
ENDBRANCH   2   3
ENDBRANCH   1   2
BRANCH   1  18
ATOM     18  C   UNL     1       7.154   8.249  17.545  0.00  0.00    +0.000 C 
BRANCH  18  19
ATOM     19  N   UNL     1       7.653   6.892  17.263  0.00  0.00    +0.000 NA
ATOM     20  C   UNL     1       7.619   6.005  18.450  0.00  0.00    +0.000 C 
ATOM     21  C   UNL     1       6.211   5.640  18.982  0.00  0.00    +0.000 C 
ATOM     22  N   UNL     1       5.322   5.186  17.894  0.00  0.00    +0.000 N 
ATOM     23  C   UNL     1       5.368   5.946  16.640  0.00  0.00    +0.000 C 
ATOM     24  C   UNL     1       6.824   6.237  16.218  0.00  0.00    +0.000 C 
BRANCH  22  25
ATOM     25  C   UNL     1       4.361   4.202  18.133  0.00  0.00    +0.000 A 
ATOM     26  C   UNL     1       4.506   2.984  17.434  0.00  0.00    +0.000 A 
ATOM     27  C   UNL     1       3.598   1.939  17.553  0.00  0.00    +0.000 A 
ATOM     28  C   UNL     1       2.491   2.088  18.371  0.00  0.00    +0.000 A 
ATOM     29  C   UNL     1       2.280   3.275  19.081  0.00  0.00    +0.000 A 
ATOM     30  C   UNL     1       1.136   3.379  19.892  0.00  0.00    +0.000 A 
ATOM     31  C   UNL     1       0.868   4.529  20.628  0.00  0.00    +0.000 A 
ATOM     32  C   UNL     1       1.759   5.584  20.578  0.00  0.00    +0.000 A 
ATOM     33  C   UNL     1       2.912   5.482  19.793  0.00  0.00    +0.000 A 
ATOM     34  C   UNL     1       3.211   4.349  18.988  0.00  0.00    +0.000 A 
ENDBRANCH  22  25
ENDBRANCH  18  19
ENDBRANCH   1  18
TORSDOF 7
ENDMDL
MODEL 7
REMARK VINA RESULT:      -8.4      6.019      8.918
REMARK  Name = 
REMARK  7 active torsions:
REMARK  status: ('A' for Active; 'I' for Inactive)
REMARK    1  A    between atoms: C_2  and  C_24
REMARK    2  A    between atoms: N_3  and  C_4
REMARK    3  A    between atoms: C_4  and  C_5
REMARK    4  A    between atoms: C_5  and  C_6
REMARK    5  A    between atoms: C_6  and  C_7
REMARK    6  A    between atoms: C_7  and  N_8
REMARK    7  A    between atoms: N_11  and  C_12
REMARK                            x       y       z     vdW  Elec       q    Type
REMARK                         _______ _______ _______ _____ _____    ______ ____
ROOT
ATOM      1  C   UNL     1       1.388  12.634  19.233  0.00  0.00    +0.000 C 
ENDROOT
BRANCH   1   2
ATOM      2  C   UNL     1       2.561  12.752  18.261  0.00  0.00    +0.000 C 
BRANCH   2   3
ATOM      3  C   UNL     1       2.980  14.204  18.062  0.00  0.00    +0.000 C 
BRANCH   3   6
ATOM      4  O   UNL     1       4.788  15.729  19.666  0.00  0.00    +0.000 OA
ATOM      5  C   UNL     1       5.197  15.093  18.703  0.00  0.00    +0.000 C 
ATOM      6  N   UNL     1       4.405  14.324  17.880  0.00  0.00    +0.000 N 
ATOM      7  H   UNL     1       4.836  13.664  17.246  0.00  0.00    +0.000 HD
BRANCH   5   8
ATOM      8  C   UNL     1       6.633  15.080  18.366  0.00  0.00    +0.000 A 
ATOM      9  C   UNL     1       7.358  16.257  18.379  0.00  0.00    +0.000 A 
ATOM     10  N   UNL     1       8.696  16.316  18.163  0.00  0.00    +0.000 NA
ATOM     11  C   UNL     1       9.348  15.166  17.915  0.00  0.00    +0.000 A 
ATOM     12  C   UNL     1      10.721  15.173  17.731  0.00  0.00    +0.000 A 
ATOM     13  C   UNL     1      11.437  13.997  17.481  0.00  0.00    +0.000 A 
ATOM     14  C   UNL     1      10.772  12.780  17.402  0.00  0.00    +0.000 A 
ATOM     15  C   UNL     1       9.393  12.740  17.578  0.00  0.00    +0.000 A 
ATOM     16  C   UNL     1       8.680  13.919  17.840  0.00  0.00    +0.000 A 
ATOM     17  C   UNL     1       7.304  13.897  18.055  0.00  0.00    +0.000 A 
ENDBRANCH   5   8
ENDBRANCH   3   6
ENDBRANCH   2   3
ENDBRANCH   1   2
BRANCH   1  18
ATOM     18  C   UNL     1       1.373  11.348  20.073  0.00  0.00    +0.000 C 
BRANCH  18  19
ATOM     19  N   UNL     1       0.396  10.335  19.638  0.00  0.00    +0.000 NA
ATOM     20  C   UNL     1       0.620   9.878  18.245  0.00  0.00    +0.000 C 
ATOM     21  C   UNL     1       1.924   9.081  17.994  0.00  0.00    +0.000 C 
ATOM     22  N   UNL     1       2.103   8.008  18.993  0.00  0.00    +0.000 N 
ATOM     23  C   UNL     1       1.802   8.343  20.388  0.00  0.00    +0.000 C 
ATOM     24  C   UNL     1       0.477   9.126  20.499  0.00  0.00    +0.000 C 
BRANCH  22  25
ATOM     25  C   UNL     1       2.708   6.803  18.630  0.00  0.00    +0.000 A 
ATOM     26  C   UNL     1       3.719   6.867  17.647  0.00  0.00    +0.000 A 
ATOM     27  C   UNL     1       4.374   5.738  17.170  0.00  0.00    +0.000 A 
ATOM     28  C   UNL     1       4.020   4.490  17.653  0.00  0.00    +0.000 A 
ATOM     29  C   UNL     1       3.015   4.355  18.618  0.00  0.00    +0.000 A 
ATOM     30  C   UNL     1       2.686   3.064  19.069  0.00  0.00    +0.000 A 
ATOM     31  C   UNL     1       1.700   2.858  20.030  0.00  0.00    +0.000 A 
ATOM     32  C   UNL     1       1.046   3.950  20.568  0.00  0.00    +0.000 A 
ATOM     33  C   UNL     1       1.381   5.239  20.143  0.00  0.00    +0.000 A 
ATOM     34  C   UNL     1       2.348   5.502  19.134  0.00  0.00    +0.000 A 
ENDBRANCH  22  25
ENDBRANCH  18  19
ENDBRANCH   1  18
TORSDOF 7
ENDMDL
MODEL 8
REMARK VINA RESULT:      -8.3      5.420      9.753
REMARK  Name = 
REMARK  7 active torsions:
REMARK  status: ('A' for Active; 'I' for Inactive)
REMARK    1  A    between atoms: C_2  and  C_24
REMARK    2  A    between atoms: N_3  and  C_4
REMARK    3  A    between atoms: C_4  and  C_5
REMARK    4  A    between atoms: C_5  and  C_6
REMARK    5  A    between atoms: C_6  and  C_7
REMARK    6  A    between atoms: C_7  and  N_8
REMARK    7  A    between atoms: N_11  and  C_12
REMARK                            x       y       z     vdW  Elec       q    Type
REMARK                         _______ _______ _______ _____ _____    ______ ____
ROOT
ATOM      1  C   UNL     1       8.473   8.529  18.272  0.00  0.00    +0.000 C 
ENDROOT
BRANCH   1   2
ATOM      2  C   UNL     1       8.728  10.029  18.406  0.00  0.00    +0.000 C 
BRANCH   2   3
ATOM      3  C   UNL     1       9.639  10.340  19.587  0.00  0.00    +0.000 C 
BRANCH   3   6
ATOM      4  O   UNL     1      10.494  12.548  21.187  0.00  0.00    +0.000 OA
ATOM      5  C   UNL     1       9.411  12.016  21.392  0.00  0.00    +0.000 C 
ATOM      6  N   UNL     1       8.911  10.955  20.668  0.00  0.00    +0.000 N 
ATOM      7  H   UNL     1       7.933  10.712  20.751  0.00  0.00    +0.000 HD
BRANCH   5   8
ATOM      8  C   UNL     1       8.515  12.518  22.450  0.00  0.00    +0.000 A 
ATOM      9  C   UNL     1       7.964  13.782  22.348  0.00  0.00    +0.000 A 
ATOM     10  N   UNL     1       7.067  14.283  23.235  0.00  0.00    +0.000 NA
ATOM     11  C   UNL     1       6.704  13.507  24.273  0.00  0.00    +0.000 A 
ATOM     12  C   UNL     1       5.760  13.961  25.179  0.00  0.00    +0.000 A 
ATOM     13  C   UNL     1       5.347  13.182  26.266  0.00  0.00    +0.000 A 
ATOM     14  C   UNL     1       5.894  11.921  26.466  0.00  0.00    +0.000 A 
ATOM     15  C   UNL     1       6.848  11.439  25.575  0.00  0.00    +0.000 A 
ATOM     16  C   UNL     1       7.250  12.217  24.481  0.00  0.00    +0.000 A 
ATOM     17  C   UNL     1       8.176  11.740  23.557  0.00  0.00    +0.000 A 
ENDBRANCH   5   8
ENDBRANCH   3   6
ENDBRANCH   2   3
ENDBRANCH   1   2
BRANCH   1  18
ATOM     18  C   UNL     1       7.302   8.151  17.351  0.00  0.00    +0.000 C 
BRANCH  18  19
ATOM     19  N   UNL     1       7.171   6.711  17.073  0.00  0.00    +0.000 NA
ATOM     20  C   UNL     1       7.150   5.884  18.303  0.00  0.00    +0.000 C 
ATOM     21  C   UNL     1       5.916   6.067  19.221  0.00  0.00    +0.000 C 
ATOM     22  N   UNL     1       4.656   5.997  18.454  0.00  0.00    +0.000 N 
ATOM     23  C   UNL     1       4.622   6.703  17.170  0.00  0.00    +0.000 C 
ATOM     24  C   UNL     1       5.902   6.431  16.351  0.00  0.00    +0.000 C 
BRANCH  22  25
ATOM     25  C   UNL     1       3.512   5.443  19.030  0.00  0.00    +0.000 A 
ATOM     26  C   UNL     1       2.775   6.268  19.908  0.00  0.00    +0.000 A 
ATOM     27  C   UNL     1       1.639   5.826  20.576  0.00  0.00    +0.000 A 
ATOM     28  C   UNL     1       1.209   4.522  20.400  0.00  0.00    +0.000 A 
ATOM     29  C   UNL     1       1.902   3.647  19.555  0.00  0.00    +0.000 A 
ATOM     30  C   UNL     1       1.429   2.330  19.418  0.00  0.00    +0.000 A 
ATOM     31  C   UNL     1       2.067   1.411  18.591  0.00  0.00    +0.000 A 
ATOM     32  C   UNL     1       3.178   1.809  17.871  0.00  0.00    +0.000 A 
ATOM     33  C   UNL     1       3.643   3.123  17.983  0.00  0.00    +0.000 A 
ATOM     34  C   UNL     1       3.056   4.089  18.846  0.00  0.00    +0.000 A 
ENDBRANCH  22  25
ENDBRANCH  18  19
ENDBRANCH   1  18
TORSDOF 7
ENDMDL
MODEL 9
REMARK VINA RESULT:      -8.3      2.862      4.115
REMARK  Name = 
REMARK  7 active torsions:
REMARK  status: ('A' for Active; 'I' for Inactive)
REMARK    1  A    between atoms: C_2  and  C_24
REMARK    2  A    between atoms: N_3  and  C_4
REMARK    3  A    between atoms: C_4  and  C_5
REMARK    4  A    between atoms: C_5  and  C_6
REMARK    5  A    between atoms: C_6  and  C_7
REMARK    6  A    between atoms: C_7  and  N_8
REMARK    7  A    between atoms: N_11  and  C_12
REMARK                            x       y       z     vdW  Elec       q    Type
REMARK                         _______ _______ _______ _____ _____    ______ ____
ROOT
ATOM      1  C   UNL     1       1.639   7.143  20.553  0.00  0.00    +0.000 C 
ENDROOT
BRANCH   1   2
ATOM      2  C   UNL     1       2.182   6.233  19.453  0.00  0.00    +0.000 C 
BRANCH   2   3
ATOM      3  C   UNL     1       3.654   5.905  19.673  0.00  0.00    +0.000 C 
BRANCH   3   6
ATOM      4  O   UNL     1       4.721   3.565  18.426  0.00  0.00    +0.000 OA
ATOM      5  C   UNL     1       4.860   4.664  17.906  0.00  0.00    +0.000 C 
ATOM      6  N   UNL     1       4.374   5.843  18.426  0.00  0.00    +0.000 N 
ATOM      7  H   UNL     1       4.339   6.669  17.843  0.00  0.00    +0.000 HD
BRANCH   5   8
ATOM      8  C   UNL     1       5.559   4.801  16.614  0.00  0.00    +0.000 A 
ATOM      9  C   UNL     1       6.671   5.617  16.512  0.00  0.00    +0.000 A 
ATOM     10  N   UNL     1       7.416   5.731  15.384  0.00  0.00    +0.000 NA
ATOM     11  C   UNL     1       7.044   5.017  14.306  0.00  0.00    +0.000 A 
ATOM     12  C   UNL     1       7.800   5.069  13.146  0.00  0.00    +0.000 A 
ATOM     13  C   UNL     1       7.453   4.334  12.006  0.00  0.00    +0.000 A 
ATOM     14  C   UNL     1       6.319   3.532  12.014  0.00  0.00    +0.000 A 
ATOM     15  C   UNL     1       5.537   3.461  13.162  0.00  0.00    +0.000 A 
ATOM     16  C   UNL     1       5.894   4.190  14.306  0.00  0.00    +0.000 A 
ATOM     17  C   UNL     1       5.147   4.106  15.478  0.00  0.00    +0.000 A 
ENDBRANCH   5   8
ENDBRANCH   3   6
ENDBRANCH   2   3
ENDBRANCH   1   2
BRANCH   1  18
ATOM     18  C   UNL     1       1.533   8.628  20.170  0.00  0.00    +0.000 C 
BRANCH  18  19
ATOM     19  N   UNL     1       0.220   9.243  20.429  0.00  0.00    +0.000 NA
ATOM     20  C   UNL     1       0.272  10.302  21.464  0.00  0.00    +0.000 C 
ATOM     21  C   UNL     1       1.068  11.577  21.089  0.00  0.00    +0.000 C 
ATOM     22  N   UNL     1       0.678  12.085  19.758  0.00  0.00    +0.000 N 
ATOM     23  C   UNL     1       0.502  11.092  18.695  0.00  0.00    +0.000 C 
ATOM     24  C   UNL     1      -0.311   9.879  19.195  0.00  0.00    +0.000 C 
BRANCH  22  25
ATOM     25  C   UNL     1       0.671  13.458  19.503  0.00  0.00    +0.000 A 
ATOM     26  C   UNL     1      -0.518  14.157  19.804  0.00  0.00    +0.000 A 
ATOM     27  C   UNL     1      -0.669  15.517  19.562  0.00  0.00    +0.000 A 
ATOM     28  C   UNL     1       0.371  16.227  18.987  0.00  0.00    +0.000 A 
ATOM     29  C   UNL     1       1.572  15.592  18.651  0.00  0.00    +0.000 A 
ATOM     30  C   UNL     1       2.594  16.355  18.061  0.00  0.00    +0.000 A 
ATOM     31  C   UNL     1       3.815  15.788  17.707  0.00  0.00    +0.000 A 
ATOM     32  C   UNL     1       4.034  14.447  17.963  0.00  0.00    +0.000 A 
ATOM     33  C   UNL     1       3.032  13.684  18.570  0.00  0.00    +0.000 A 
ATOM     34  C   UNL     1       1.753  14.203  18.911  0.00  0.00    +0.000 A 
ENDBRANCH  22  25
ENDBRANCH  18  19
ENDBRANCH   1  18
TORSDOF 7
ENDMDL
