MODEL 1
REMARK VINA RESULT:      -7.5      0.000      0.000
REMARK  Name = 
REMARK  13 active torsions:
REMARK  status: ('A' for Active; 'I' for Inactive)
REMARK    1  A    between atoms: C_1  and  O_2
REMARK    2  A    between atoms: O_2  and  C_3
REMARK    3  A    between atoms: C_5  and  N_6
REMARK    4  A    between atoms: C_7  and  C_9
REMARK    5  A    between atoms: C_9  and  C_10
REMARK    6  A    between atoms: C_10  and  C_11
REMARK    7  A    between atoms: C_11  and  C_12
REMARK    8  A    between atoms: C_12  and  C_13
REMARK    9  A    between atoms: C_13  and  C_14
REMARK   10  A    between atoms: C_14  and  C_15
REMARK   11  A    between atoms: C_15  and  C_16
REMARK   12  A    between atoms: C_16  and  N_17
REMARK   13  A    between atoms: N_20  and  C_21
REMARK                            x       y       z     vdW  Elec       q    Type
REMARK                         _______ _______ _______ _____ _____    ______ ____
ROOT
ATOM      1  N   UNL     1       3.387   3.732  17.020  0.00  0.00    +0.000 N 
ATOM      2  C   UNL     1       3.044   2.626  17.779  0.00  0.00    +0.000 C 
ATOM      3  O   UNL     1       3.794   1.729  18.154  0.00  0.00    +0.000 OA
ATOM      4  H   UNL     1       2.666   4.396  16.746  0.00  0.00    +0.000 HD
ENDROOT
BRANCH   1   7
ATOM      5  C   UNL     1       6.271   4.138  14.679  0.00  0.00    +0.000 A 
ATOM      6  C   UNL     1       5.023   3.794  15.182  0.00  0.00    +0.000 A 
ATOM      7  C   UNL     1       4.678   4.054  16.512  0.00  0.00    +0.000 A 
ATOM      8  C   UNL     1       5.607   4.642  17.387  0.00  0.00    +0.000 A 
ATOM      9  N   UNL     1       5.290   4.894  18.684  0.00  0.00    +0.000 NA
ATOM     10  C   UNL     1       6.230   5.460  19.478  0.00  0.00    +0.000 A 
ATOM     11  C   UNL     1       7.503   5.796  19.053  0.00  0.00    +0.000 A 
ATOM     12  C   UNL     1       7.831   5.536  17.734  0.00  0.00    +0.000 A 
ATOM     13  C   UNL     1       6.890   4.959  16.877  0.00  0.00    +0.000 A 
ATOM     14  C   UNL     1       7.209   4.699  15.531  0.00  0.00    +0.000 A 
BRANCH   5  16
ATOM     15  C   UNL     1       5.665   3.364  12.536  0.00  0.00    +0.000 C 
ATOM     16  O   UNL     1       6.663   3.936  13.384  0.00  0.00    +0.000 OA
ENDBRANCH   5  16
ENDBRANCH   1   7
BRANCH   2  17
ATOM     17  C   UNL     1       1.599   2.605  18.215  0.00  0.00    +0.000 C 
BRANCH  17  18
ATOM     18  C   UNL     1       1.192   4.007  18.642  0.00  0.00    +0.000 C 
BRANCH  18  19
ATOM     19  C   UNL     1       1.153   4.152  20.159  0.00  0.00    +0.000 C 
BRANCH  19  20
ATOM     20  C   UNL     1       1.810   5.469  20.565  0.00  0.00    +0.000 C 
BRANCH  20  21
ATOM     21  C   UNL     1       2.407   6.193  19.367  0.00  0.00    +0.000 C 
BRANCH  21  22
ATOM     22  C   UNL     1       2.152   7.699  19.466  0.00  0.00    +0.000 C 
BRANCH  22  23
ATOM     23  C   UNL     1       1.949   8.281  18.074  0.00  0.00    +0.000 C 
BRANCH  23  24
ATOM     24  C   UNL     1       1.048   9.523  18.076  0.00  0.00    +0.000 C 
BRANCH  24  25
ATOM     25  N   UNL     1       1.041  10.187  19.384  0.00  0.00    +0.000 NA
ATOM     26  C   UNL     1      -0.191   9.894  20.145  0.00  0.00    +0.000 C 
ATOM     27  C   UNL     1      -0.158  10.535  21.559  0.00  0.00    +0.000 C 
ATOM     28  N   UNL     1       0.173  11.977  21.606  0.00  0.00    +0.000 NA
ATOM     29  C   UNL     1      -0.960  12.811  21.217  0.00  0.00    +0.000 C 
ATOM     30  C   UNL     1       1.341  12.232  20.745  0.00  0.00    +0.000 C 
ATOM     31  C   UNL     1       1.227  11.646  19.322  0.00  0.00    +0.000 C 
ENDBRANCH  24  25
ENDBRANCH  23  24
ENDBRANCH  22  23
ENDBRANCH  21  22
ENDBRANCH  20  21
ENDBRANCH  19  20
ENDBRANCH  18  19
ENDBRANCH  17  18
ENDBRANCH   2  17
TORSDOF 11
ENDMDL
MODEL 2
REMARK VINA RESULT:      -7.5      6.090      8.592
REMARK  Name = 
REMARK  13 active torsions:
REMARK  status: ('A' for Active; 'I' for Inactive)
REMARK    1  A    between atoms: C_1  and  O_2
REMARK    2  A    between atoms: O_2  and  C_3
REMARK    3  A    between atoms: C_5  and  N_6
REMARK    4  A    between atoms: C_7  and  C_9
REMARK    5  A    between atoms: C_9  and  C_10
REMARK    6  A    between atoms: C_10  and  C_11
REMARK    7  A    between atoms: C_11  and  C_12
REMARK    8  A    between atoms: C_12  and  C_13
REMARK    9  A    between atoms: C_13  and  C_14
REMARK   10  A    between atoms: C_14  and  C_15
REMARK   11  A    between atoms: C_15  and  C_16
REMARK   12  A    between atoms: C_16  and  N_17
REMARK   13  A    between atoms: N_20  and  C_21
REMARK                            x       y       z     vdW  Elec       q    Type
REMARK                         _______ _______ _______ _____ _____    ______ ____
ROOT
ATOM      1  N   UNL     1       4.757   5.932  18.264  0.00  0.00    +0.000 N 
ATOM      2  C   UNL     1       6.062   5.769  18.697  0.00  0.00    +0.000 C 
ATOM      3  O   UNL     1       6.427   5.296  19.770  0.00  0.00    +0.000 OA
ATOM      4  H   UNL     1       4.579   6.367  17.361  0.00  0.00    +0.000 HD
ENDROOT
BRANCH   1   7
ATOM      5  C   UNL     1       1.744   6.198  20.459  0.00  0.00    +0.000 A 
ATOM      6  C   UNL     1       2.919   6.521  19.791  0.00  0.00    +0.000 A 
ATOM      7  C   UNL     1       3.571   5.592  18.975  0.00  0.00    +0.000 A 
ATOM      8  C   UNL     1       3.066   4.288  18.837  0.00  0.00    +0.000 A 
ATOM      9  N   UNL     1       3.692   3.371  18.053  0.00  0.00    +0.000 NA
ATOM     10  C   UNL     1       3.158   2.129  17.963  0.00  0.00    +0.000 A 
ATOM     11  C   UNL     1       2.012   1.729  18.627  0.00  0.00    +0.000 A 
ATOM     12  C   UNL     1       1.375   2.659  19.430  0.00  0.00    +0.000 A 
ATOM     13  C   UNL     1       1.887   3.954  19.547  0.00  0.00    +0.000 A 
ATOM     14  C   UNL     1       1.242   4.910  20.353  0.00  0.00    +0.000 A 
BRANCH   5  16
ATOM     15  C   UNL     1       1.191   8.446  20.909  0.00  0.00    +0.000 C 
ATOM     16  O   UNL     1       1.043   7.066  21.250  0.00  0.00    +0.000 OA
ENDBRANCH   5  16
ENDBRANCH   1   7
BRANCH   2  17
ATOM     17  C   UNL     1       7.101   6.173  17.681  0.00  0.00    +0.000 C 
BRANCH  17  18
ATOM     18  C   UNL     1       8.126   7.073  18.354  0.00  0.00    +0.000 C 
BRANCH  18  19
ATOM     19  C   UNL     1       8.049   8.507  17.843  0.00  0.00    +0.000 C 
BRANCH  19  20
ATOM     20  C   UNL     1       8.722   9.445  18.842  0.00  0.00    +0.000 C 
BRANCH  20  21
ATOM     21  C   UNL     1       9.259  10.697  18.164  0.00  0.00    +0.000 C 
BRANCH  21  22
ATOM     22  C   UNL     1      10.502  11.213  18.893  0.00  0.00    +0.000 C 
BRANCH  22  23
ATOM     23  C   UNL     1      11.467  11.836  17.893  0.00  0.00    +0.000 C 
BRANCH  23  24
ATOM     24  C   UNL     1      12.187  13.069  18.454  0.00  0.00    +0.000 C 
BRANCH  24  25
ATOM     25  N   UNL     1      11.280  14.212  18.594  0.00  0.00    +0.000 NA
ATOM     26  C   UNL     1      11.110  14.941  17.321  0.00  0.00    +0.000 C 
ATOM     27  C   UNL     1      10.088  16.103  17.456  0.00  0.00    +0.000 C 
ATOM     28  N   UNL     1      10.317  17.035  18.583  0.00  0.00    +0.000 NA
ATOM     29  C   UNL     1      11.399  17.974  18.304  0.00  0.00    +0.000 C 
ATOM     30  C   UNL     1      10.589  16.258  19.805  0.00  0.00    +0.000 C 
ATOM     31  C   UNL     1      11.672  15.170  19.642  0.00  0.00    +0.000 C 
ENDBRANCH  24  25
ENDBRANCH  23  24
ENDBRANCH  22  23
ENDBRANCH  21  22
ENDBRANCH  20  21
ENDBRANCH  19  20
ENDBRANCH  18  19
ENDBRANCH  17  18
ENDBRANCH   2  17
TORSDOF 11
ENDMDL
MODEL 3
REMARK VINA RESULT:      -7.4      0.948      1.158
REMARK  Name = 
REMARK  13 active torsions:
REMARK  status: ('A' for Active; 'I' for Inactive)
REMARK    1  A    between atoms: C_1  and  O_2
REMARK    2  A    between atoms: O_2  and  C_3
REMARK    3  A    between atoms: C_5  and  N_6
REMARK    4  A    between atoms: C_7  and  C_9
REMARK    5  A    between atoms: C_9  and  C_10
REMARK    6  A    between atoms: C_10  and  C_11
REMARK    7  A    between atoms: C_11  and  C_12
REMARK    8  A    between atoms: C_12  and  C_13
REMARK    9  A    between atoms: C_13  and  C_14
REMARK   10  A    between atoms: C_14  and  C_15
REMARK   11  A    between atoms: C_15  and  C_16
REMARK   12  A    between atoms: C_16  and  N_17
REMARK   13  A    between atoms: N_20  and  C_21
REMARK                            x       y       z     vdW  Elec       q    Type
REMARK                         _______ _______ _______ _____ _____    ______ ____
ROOT
ATOM      1  N   UNL     1       3.500   3.485  17.095  0.00  0.00    +0.000 N 
ATOM      2  C   UNL     1       3.291   2.329  17.825  0.00  0.00    +0.000 C 
ATOM      3  O   UNL     1       4.136   1.497  18.144  0.00  0.00    +0.000 OA
ATOM      4  H   UNL     1       2.710   4.085  16.867  0.00  0.00    +0.000 HD
ENDROOT
BRANCH   1   7
ATOM      5  C   UNL     1       6.239   4.258  14.672  0.00  0.00    +0.000 A 
ATOM      6  C   UNL     1       5.048   3.780  15.203  0.00  0.00    +0.000 A 
ATOM      7  C   UNL     1       4.736   3.946  16.556  0.00  0.00    +0.000 A 
ATOM      8  C   UNL     1       5.644   4.575  17.424  0.00  0.00    +0.000 A 
ATOM      9  N   UNL     1       5.359   4.738  18.743  0.00  0.00    +0.000 NA
ATOM     10  C   UNL     1       6.277   5.350  19.529  0.00  0.00    +0.000 A 
ATOM     11  C   UNL     1       7.496   5.818  19.075  0.00  0.00    +0.000 A 
ATOM     12  C   UNL     1       7.792   5.650  17.733  0.00  0.00    +0.000 A 
ATOM     13  C   UNL     1       6.872   5.030  16.884  0.00  0.00    +0.000 A 
ATOM     14  C   UNL     1       7.158   4.862  15.517  0.00  0.00    +0.000 A 
BRANCH   5  16
ATOM     15  C   UNL     1       5.696   3.386  12.550  0.00  0.00    +0.000 C 
ATOM     16  O   UNL     1       6.594   4.152  13.355  0.00  0.00    +0.000 OA
ENDBRANCH   5  16
ENDBRANCH   1   7
BRANCH   2  17
ATOM     17  C   UNL     1       1.872   2.155  18.307  0.00  0.00    +0.000 C 
BRANCH  17  18
ATOM     18  C   UNL     1       1.210   3.521  18.398  0.00  0.00    +0.000 C 
BRANCH  18  19
ATOM     19  C   UNL     1       0.866   3.894  19.835  0.00  0.00    +0.000 C 
BRANCH  19  20
ATOM     20  C   UNL     1       2.081   4.533  20.504  0.00  0.00    +0.000 C 
BRANCH  20  21
ATOM     21  C   UNL     1       1.968   6.049  20.546  0.00  0.00    +0.000 C 
BRANCH  21  22
ATOM     22  C   UNL     1       2.548   6.669  19.273  0.00  0.00    +0.000 C 
BRANCH  22  23
ATOM     23  C   UNL     1       2.067   8.106  19.131  0.00  0.00    +0.000 C 
BRANCH  23  24
ATOM     24  C   UNL     1       1.277   8.591  20.354  0.00  0.00    +0.000 C 
BRANCH  24  25
ATOM     25  N   UNL     1       0.836   9.981  20.200  0.00  0.00    +0.000 NA
ATOM     26  C   UNL     1      -0.606  10.137  20.479  0.00  0.00    +0.000 C 
ATOM     27  C   UNL     1      -1.051  11.621  20.391  0.00  0.00    +0.000 C 
ATOM     28  N   UNL     1      -0.662  12.339  19.156  0.00  0.00    +0.000 NA
ATOM     29  C   UNL     1      -1.513  11.982  18.026  0.00  0.00    +0.000 C 
ATOM     30  C   UNL     1       0.755  12.063  18.863  0.00  0.00    +0.000 C 
ATOM     31  C   UNL     1       1.131  10.566  18.881  0.00  0.00    +0.000 C 
ENDBRANCH  24  25
ENDBRANCH  23  24
ENDBRANCH  22  23
ENDBRANCH  21  22
ENDBRANCH  20  21
ENDBRANCH  19  20
ENDBRANCH  18  19
ENDBRANCH  17  18
ENDBRANCH   2  17
TORSDOF 11
ENDMDL
MODEL 4
REMARK VINA RESULT:      -7.3      3.485      9.230
REMARK  Name = 
REMARK  13 active torsions:
REMARK  status: ('A' for Active; 'I' for Inactive)
REMARK    1  A    between atoms: C_1  and  O_2
REMARK    2  A    between atoms: O_2  and  C_3
REMARK    3  A    between atoms: C_5  and  N_6
REMARK    4  A    between atoms: C_7  and  C_9
REMARK    5  A    between atoms: C_9  and  C_10
REMARK    6  A    between atoms: C_10  and  C_11
REMARK    7  A    between atoms: C_11  and  C_12
REMARK    8  A    between atoms: C_12  and  C_13
REMARK    9  A    between atoms: C_13  and  C_14
REMARK   10  A    between atoms: C_14  and  C_15
REMARK   11  A    between atoms: C_15  and  C_16
REMARK   12  A    between atoms: C_16  and  N_17
REMARK   13  A    between atoms: N_20  and  C_21
REMARK                            x       y       z     vdW  Elec       q    Type
REMARK                         _______ _______ _______ _____ _____    ______ ____
ROOT
ATOM      1  N   UNL     1       0.622   9.281  18.428  0.00  0.00    +0.000 N 
ATOM      2  C   UNL     1       1.876   9.543  17.903  0.00  0.00    +0.000 C 
ATOM      3  O   UNL     1       2.372  10.648  17.699  0.00  0.00    +0.000 OA
ATOM      4  H   UNL     1       0.309   8.317  18.523  0.00  0.00    +0.000 HD
ENDROOT
BRANCH   1   7
ATOM      5  C   UNL     1      -1.140  11.929  20.389  0.00  0.00    +0.000 A 
ATOM      6  C   UNL     1      -0.204  10.974  20.011  0.00  0.00    +0.000 A 
ATOM      7  C   UNL     1      -0.353  10.236  18.833  0.00  0.00    +0.000 A 
ATOM      8  C   UNL     1      -1.481  10.420  18.015  0.00  0.00    +0.000 A 
ATOM      9  N   UNL     1      -1.644   9.706  16.870  0.00  0.00    +0.000 NA
ATOM     10  C   UNL     1      -2.755   9.927  16.127  0.00  0.00    +0.000 A 
ATOM     11  C   UNL     1      -3.742  10.835  16.461  0.00  0.00    +0.000 A 
ATOM     12  C   UNL     1      -3.582  11.562  17.628  0.00  0.00    +0.000 A 
ATOM     13  C   UNL     1      -2.449  11.371  18.423  0.00  0.00    +0.000 A 
ATOM     14  C   UNL     1      -2.271  12.110  19.607  0.00  0.00    +0.000 A 
BRANCH   5  16
ATOM     15  C   UNL     1      -0.416  13.972  21.317  0.00  0.00    +0.000 C 
ATOM     16  O   UNL     1      -1.042  12.702  21.513  0.00  0.00    +0.000 OA
ENDBRANCH   5  16
ENDBRANCH   1   7
BRANCH   2  17
ATOM     17  C   UNL     1       2.698   8.308  17.630  0.00  0.00    +0.000 C 
BRANCH  17  18
ATOM     18  C   UNL     1       2.023   7.112  18.283  0.00  0.00    +0.000 C 
BRANCH  18  19
ATOM     19  C   UNL     1       2.603   6.812  19.660  0.00  0.00    +0.000 C 
BRANCH  19  20
ATOM     20  C   UNL     1       1.534   6.163  20.536  0.00  0.00    +0.000 C 
BRANCH  20  21
ATOM     21  C   UNL     1       1.890   4.725  20.885  0.00  0.00    +0.000 C 
BRANCH  21  22
ATOM     22  C   UNL     1       1.227   3.753  19.907  0.00  0.00    +0.000 C 
BRANCH  22  23
ATOM     23  C   UNL     1       2.146   2.566  19.654  0.00  0.00    +0.000 C 
BRANCH  23  24
ATOM     24  C   UNL     1       2.864   2.650  18.300  0.00  0.00    +0.000 C 
BRANCH  24  25
ATOM     25  N   UNL     1       3.753   3.814  18.228  0.00  0.00    +0.000 NA
ATOM     26  C   UNL     1       4.204   4.080  16.847  0.00  0.00    +0.000 C 
ATOM     27  C   UNL     1       5.082   5.358  16.765  0.00  0.00    +0.000 C 
ATOM     28  N   UNL     1       6.209   5.428  17.721  0.00  0.00    +0.000 NA
ATOM     29  C   UNL     1       7.331   4.591  17.306  0.00  0.00    +0.000 C 
ATOM     30  C   UNL     1       5.730   5.048  19.062  0.00  0.00    +0.000 C 
ATOM     31  C   UNL     1       4.934   3.727  19.105  0.00  0.00    +0.000 C 
ENDBRANCH  24  25
ENDBRANCH  23  24
ENDBRANCH  22  23
ENDBRANCH  21  22
ENDBRANCH  20  21
ENDBRANCH  19  20
ENDBRANCH  18  19
ENDBRANCH  17  18
ENDBRANCH   2  17
TORSDOF 11
ENDMDL
MODEL 5
REMARK VINA RESULT:      -7.3      1.024      1.477
REMARK  Name = 
REMARK  13 active torsions:
REMARK  status: ('A' for Active; 'I' for Inactive)
REMARK    1  A    between atoms: C_1  and  O_2
REMARK    2  A    between atoms: O_2  and  C_3
REMARK    3  A    between atoms: C_5  and  N_6
REMARK    4  A    between atoms: C_7  and  C_9
REMARK    5  A    between atoms: C_9  and  C_10
REMARK    6  A    between atoms: C_10  and  C_11
REMARK    7  A    between atoms: C_11  and  C_12
REMARK    8  A    between atoms: C_12  and  C_13
REMARK    9  A    between atoms: C_13  and  C_14
REMARK   10  A    between atoms: C_14  and  C_15
REMARK   11  A    between atoms: C_15  and  C_16
REMARK   12  A    between atoms: C_16  and  N_17
REMARK   13  A    between atoms: N_20  and  C_21
REMARK                            x       y       z     vdW  Elec       q    Type
REMARK                         _______ _______ _______ _____ _____    ______ ____
ROOT
ATOM      1  N   UNL     1       3.391   3.770  17.050  0.00  0.00    +0.000 N 
ATOM      2  C   UNL     1       3.006   2.643  17.756  0.00  0.00    +0.000 C 
ATOM      3  O   UNL     1       3.720   1.697  18.077  0.00  0.00    +0.000 OA
ATOM      4  H   UNL     1       2.697   4.477  16.816  0.00  0.00    +0.000 HD
ENDROOT
BRANCH   1   7
ATOM      5  C   UNL     1       6.282   4.139  14.710  0.00  0.00    +0.000 A 
ATOM      6  C   UNL     1       5.024   3.823  15.209  0.00  0.00    +0.000 A 
ATOM      7  C   UNL     1       4.691   4.062  16.546  0.00  0.00    +0.000 A 
ATOM      8  C   UNL     1       5.641   4.596  17.432  0.00  0.00    +0.000 A 
ATOM      9  N   UNL     1       5.335   4.827  18.736  0.00  0.00    +0.000 NA
ATOM     10  C   UNL     1       6.295   5.341  19.541  0.00  0.00    +0.000 A 
ATOM     11  C   UNL     1       7.578   5.645  19.120  0.00  0.00    +0.000 A 
ATOM     12  C   UNL     1       7.894   5.408  17.794  0.00  0.00    +0.000 A 
ATOM     13  C   UNL     1       6.933   4.884  16.926  0.00  0.00    +0.000 A 
ATOM     14  C   UNL     1       7.240   4.647  15.574  0.00  0.00    +0.000 A 
BRANCH   5  16
ATOM     15  C   UNL     1       5.633   3.482  12.540  0.00  0.00    +0.000 C 
ATOM     16  O   UNL     1       6.663   3.956  13.409  0.00  0.00    +0.000 OA
ENDBRANCH   5  16
ENDBRANCH   1   7
BRANCH   2  17
ATOM     17  C   UNL     1       1.565   2.661  18.204  0.00  0.00    +0.000 C 
BRANCH  17  18
ATOM     18  C   UNL     1       1.501   2.274  19.673  0.00  0.00    +0.000 C 
BRANCH  18  19
ATOM     19  C   UNL     1       1.037   3.432  20.549  0.00  0.00    +0.000 C 
BRANCH  19  20
ATOM     20  C   UNL     1       2.248   4.224  21.036  0.00  0.00    +0.000 C 
BRANCH  20  21
ATOM     21  C   UNL     1       2.378   5.556  20.311  0.00  0.00    +0.000 C 
BRANCH  21  22
ATOM     22  C   UNL     1       1.315   6.542  20.801  0.00  0.00    +0.000 C 
BRANCH  22  23
ATOM     23  C   UNL     1       1.651   7.946  20.320  0.00  0.00    +0.000 C 
BRANCH  23  24
ATOM     24  C   UNL     1       0.881   9.034  21.081  0.00  0.00    +0.000 C 
BRANCH  24  25
ATOM     25  N   UNL     1       0.574  10.183  20.223  0.00  0.00    +0.000 NA
ATOM     26  C   UNL     1       0.648  11.459  20.962  0.00  0.00    +0.000 C 
ATOM     27  C   UNL     1       0.399  12.677  20.032  0.00  0.00    +0.000 C 
ATOM     28  N   UNL     1      -0.820  12.611  19.195  0.00  0.00    +0.000 NA
ATOM     29  C   UNL     1      -2.026  12.908  19.962  0.00  0.00    +0.000 C 
ATOM     30  C   UNL     1      -0.902  11.281  18.567  0.00  0.00    +0.000 C 
ATOM     31  C   UNL     1      -0.731  10.100  19.546  0.00  0.00    +0.000 C 
ENDBRANCH  24  25
ENDBRANCH  23  24
ENDBRANCH  22  23
ENDBRANCH  21  22
ENDBRANCH  20  21
ENDBRANCH  19  20
ENDBRANCH  18  19
ENDBRANCH  17  18
ENDBRANCH   2  17
TORSDOF 11
ENDMDL
MODEL 6
REMARK VINA RESULT:      -7.3      1.131      1.579
REMARK  Name = 
REMARK  13 active torsions:
REMARK  status: ('A' for Active; 'I' for Inactive)
REMARK    1  A    between atoms: C_1  and  O_2
REMARK    2  A    between atoms: O_2  and  C_3
REMARK    3  A    between atoms: C_5  and  N_6
REMARK    4  A    between atoms: C_7  and  C_9
REMARK    5  A    between atoms: C_9  and  C_10
REMARK    6  A    between atoms: C_10  and  C_11
REMARK    7  A    between atoms: C_11  and  C_12
REMARK    8  A    between atoms: C_12  and  C_13
REMARK    9  A    between atoms: C_13  and  C_14
REMARK   10  A    between atoms: C_14  and  C_15
REMARK   11  A    between atoms: C_15  and  C_16
REMARK   12  A    between atoms: C_16  and  N_17
REMARK   13  A    between atoms: N_20  and  C_21
REMARK                            x       y       z     vdW  Elec       q    Type
REMARK                         _______ _______ _______ _____ _____    ______ ____
ROOT
ATOM      1  N   UNL     1       3.257   3.955  17.074  0.00  0.00    +0.000 N 
ATOM      2  C   UNL     1       2.821   2.816  17.730  0.00  0.00    +0.000 C 
ATOM      3  O   UNL     1       3.488   1.821  17.999  0.00  0.00    +0.000 OA
ATOM      4  H   UNL     1       2.599   4.706  16.882  0.00  0.00    +0.000 HD
ENDROOT
BRANCH   1   7
ATOM      5  C   UNL     1       6.157   4.238  14.734  0.00  0.00    +0.000 A 
ATOM      6  C   UNL     1       4.889   3.964  15.232  0.00  0.00    +0.000 A 
ATOM      7  C   UNL     1       4.566   4.204  16.571  0.00  0.00    +0.000 A 
ATOM      8  C   UNL     1       5.535   4.698  17.460  0.00  0.00    +0.000 A 
ATOM      9  N   UNL     1       5.239   4.930  18.767  0.00  0.00    +0.000 NA
ATOM     10  C   UNL     1       6.217   5.404  19.574  0.00  0.00    +0.000 A 
ATOM     11  C   UNL     1       7.509   5.666  19.154  0.00  0.00    +0.000 A 
ATOM     12  C   UNL     1       7.816   5.427  17.826  0.00  0.00    +0.000 A 
ATOM     13  C   UNL     1       6.836   4.944  16.955  0.00  0.00    +0.000 A 
ATOM     14  C   UNL     1       7.134   4.706  15.601  0.00  0.00    +0.000 A 
BRANCH   5  16
ATOM     15  C   UNL     1       5.573   3.366  12.623  0.00  0.00    +0.000 C 
ATOM     16  O   UNL     1       6.531   4.051  13.432  0.00  0.00    +0.000 OA
ENDBRANCH   5  16
ENDBRANCH   1   7
BRANCH   2  17
ATOM     17  C   UNL     1       1.387   2.886  18.194  0.00  0.00    +0.000 C 
BRANCH  17  18
ATOM     18  C   UNL     1       1.268   2.184  19.538  0.00  0.00    +0.000 C 
BRANCH  18  19
ATOM     19  C   UNL     1       1.722   3.075  20.689  0.00  0.00    +0.000 C 
BRANCH  19  20
ATOM     20  C   UNL     1       1.212   4.497  20.469  0.00  0.00    +0.000 C 
BRANCH  20  21
ATOM     21  C   UNL     1       2.268   5.535  20.820  0.00  0.00    +0.000 C 
BRANCH  21  22
ATOM     22  C   UNL     1       1.933   6.883  20.180  0.00  0.00    +0.000 C 
BRANCH  22  23
ATOM     23  C   UNL     1       0.901   7.616  21.026  0.00  0.00    +0.000 C 
BRANCH  23  24
ATOM     24  C   UNL     1       1.163   9.125  21.105  0.00  0.00    +0.000 C 
BRANCH  24  25
ATOM     25  N   UNL     1       0.071   9.899  20.505  0.00  0.00    +0.000 NA
ATOM     26  C   UNL     1       0.153   9.917  19.030  0.00  0.00    +0.000 C 
ATOM     27  C   UNL     1      -1.048  10.670  18.397  0.00  0.00    +0.000 C 
ATOM     28  N   UNL     1      -1.318  12.022  18.937  0.00  0.00    +0.000 NA
ATOM     29  C   UNL     1      -0.380  13.014  18.421  0.00  0.00    +0.000 C 
ATOM     30  C   UNL     1      -1.281  11.970  20.409  0.00  0.00    +0.000 C 
ATOM     31  C   UNL     1      -0.027  11.285  20.993  0.00  0.00    +0.000 C 
ENDBRANCH  24  25
ENDBRANCH  23  24
ENDBRANCH  22  23
ENDBRANCH  21  22
ENDBRANCH  20  21
ENDBRANCH  19  20
ENDBRANCH  18  19
ENDBRANCH  17  18
ENDBRANCH   2  17
TORSDOF 11
ENDMDL
MODEL 7
REMARK VINA RESULT:      -7.3      1.209      1.749
REMARK  Name = 
REMARK  13 active torsions:
REMARK  status: ('A' for Active; 'I' for Inactive)
REMARK    1  A    between atoms: C_1  and  O_2
REMARK    2  A    between atoms: O_2  and  C_3
REMARK    3  A    between atoms: C_5  and  N_6
REMARK    4  A    between atoms: C_7  and  C_9
REMARK    5  A    between atoms: C_9  and  C_10
REMARK    6  A    between atoms: C_10  and  C_11
REMARK    7  A    between atoms: C_11  and  C_12
REMARK    8  A    between atoms: C_12  and  C_13
REMARK    9  A    between atoms: C_13  and  C_14
REMARK   10  A    between atoms: C_14  and  C_15
REMARK   11  A    between atoms: C_15  and  C_16
REMARK   12  A    between atoms: C_16  and  N_17
REMARK   13  A    between atoms: N_20  and  C_21
REMARK                            x       y       z     vdW  Elec       q    Type
REMARK                         _______ _______ _______ _____ _____    ______ ____
ROOT
ATOM      1  N   UNL     1       3.886   3.018  17.831  0.00  0.00    +0.000 N 
ATOM      2  C   UNL     1       2.502   3.057  17.839  0.00  0.00    +0.000 C 
ATOM      3  O   UNL     1       1.781   3.735  17.112  0.00  0.00    +0.000 OA
ATOM      4  H   UNL     1       4.375   2.434  18.506  0.00  0.00    +0.000 HD
ENDROOT
BRANCH   1   7
ATOM      5  C   UNL     1       5.496   4.429  14.768  0.00  0.00    +0.000 A 
ATOM      6  C   UNL     1       4.666   3.679  15.592  0.00  0.00    +0.000 A 
ATOM      7  C   UNL     1       4.758   3.761  16.985  0.00  0.00    +0.000 A 
ATOM      8  C   UNL     1       5.725   4.583  17.588  0.00  0.00    +0.000 A 
ATOM      9  N   UNL     1       5.832   4.668  18.940  0.00  0.00    +0.000 NA
ATOM     10  C   UNL     1       6.786   5.476  19.460  0.00  0.00    +0.000 A 
ATOM     11  C   UNL     1       7.668   6.223  18.700  0.00  0.00    +0.000 A 
ATOM     12  C   UNL     1       7.565   6.136  17.323  0.00  0.00    +0.000 A 
ATOM     13  C   UNL     1       6.591   5.319  16.742  0.00  0.00    +0.000 A 
ATOM     14  C   UNL     1       6.471   5.230  15.343  0.00  0.00    +0.000 A 
BRANCH   5  16
ATOM     15  C   UNL     1       6.297   3.460  12.773  0.00  0.00    +0.000 C 
ATOM     16  O   UNL     1       5.441   4.416  13.401  0.00  0.00    +0.000 OA
ENDBRANCH   5  16
ENDBRANCH   1   7
BRANCH   2  17
ATOM     17  C   UNL     1       1.866   2.101  18.818  0.00  0.00    +0.000 C 
BRANCH  17  18
ATOM     18  C   UNL     1       2.760   1.981  20.042  0.00  0.00    +0.000 C 
BRANCH  18  19
ATOM     19  C   UNL     1       2.387   2.990  21.121  0.00  0.00    +0.000 C 
BRANCH  19  20
ATOM     20  C   UNL     1       1.163   3.788  20.677  0.00  0.00    +0.000 C 
BRANCH  20  21
ATOM     21  C   UNL     1       1.366   5.284  20.870  0.00  0.00    +0.000 C 
BRANCH  21  22
ATOM     22  C   UNL     1       2.348   5.833  19.833  0.00  0.00    +0.000 C 
BRANCH  22  23
ATOM     23  C   UNL     1       2.238   7.350  19.768  0.00  0.00    +0.000 C 
BRANCH  23  24
ATOM     24  C   UNL     1       1.362   7.929  20.886  0.00  0.00    +0.000 C 
BRANCH  24  25
ATOM     25  N   UNL     1       0.701   9.171  20.471  0.00  0.00    +0.000 NA
ATOM     26  C   UNL     1       1.132   9.602  19.126  0.00  0.00    +0.000 C 
ATOM     27  C   UNL     1       0.372  10.873  18.660  0.00  0.00    +0.000 C 
ATOM     28  N   UNL     1       0.366  12.007  19.611  0.00  0.00    +0.000 NA
ATOM     29  C   UNL     1       1.636  12.726  19.612  0.00  0.00    +0.000 C 
ATOM     30  C   UNL     1       0.038  11.505  20.957  0.00  0.00    +0.000 C 
ATOM     31  C   UNL     1       0.877  10.292  21.410  0.00  0.00    +0.000 C 
ENDBRANCH  24  25
ENDBRANCH  23  24
ENDBRANCH  22  23
ENDBRANCH  21  22
ENDBRANCH  20  21
ENDBRANCH  19  20
ENDBRANCH  18  19
ENDBRANCH  17  18
ENDBRANCH   2  17
TORSDOF 11
ENDMDL
MODEL 8
REMARK VINA RESULT:      -7.1      2.772      8.430
REMARK  Name = 
REMARK  13 active torsions:
REMARK  status: ('A' for Active; 'I' for Inactive)
REMARK    1  A    between atoms: C_1  and  O_2
REMARK    2  A    between atoms: O_2  and  C_3
REMARK    3  A    between atoms: C_5  and  N_6
REMARK    4  A    between atoms: C_7  and  C_9
REMARK    5  A    between atoms: C_9  and  C_10
REMARK    6  A    between atoms: C_10  and  C_11
REMARK    7  A    between atoms: C_11  and  C_12
REMARK    8  A    between atoms: C_12  and  C_13
REMARK    9  A    between atoms: C_13  and  C_14
REMARK   10  A    between atoms: C_14  and  C_15
REMARK   11  A    between atoms: C_15  and  C_16
REMARK   12  A    between atoms: C_16  and  N_17
REMARK   13  A    between atoms: N_20  and  C_21
REMARK                            x       y       z     vdW  Elec       q    Type
REMARK                         _______ _______ _______ _____ _____    ______ ____
ROOT
ATOM      1  N   UNL     1       1.698   8.337  20.288  0.00  0.00    +0.000 N 
ATOM      2  C   UNL     1       2.095   7.553  19.218  0.00  0.00    +0.000 C 
ATOM      3  O   UNL     1       2.106   7.875  18.033  0.00  0.00    +0.000 OA
ATOM      4  H   UNL     1       1.707   7.946  21.227  0.00  0.00    +0.000 HD
ENDROOT
BRANCH   1   7
ATOM      5  C   UNL     1       1.082  11.837  19.132  0.00  0.00    +0.000 A 
ATOM      6  C   UNL     1       1.581  10.542  19.201  0.00  0.00    +0.000 A 
ATOM      7  C   UNL     1       1.214   9.675  20.235  0.00  0.00    +0.000 A 
ATOM      8  C   UNL     1       0.354  10.110  21.257  0.00  0.00    +0.000 A 
ATOM      9  N   UNL     1      -0.006   9.282  22.273  0.00  0.00    +0.000 NA
ATOM     10  C   UNL     1      -0.836   9.761  23.230  0.00  0.00    +0.000 A 
ATOM     11  C   UNL     1      -1.342  11.049  23.243  0.00  0.00    +0.000 A 
ATOM     12  C   UNL     1      -0.974  11.896  22.213  0.00  0.00    +0.000 A 
ATOM     13  C   UNL     1      -0.124  11.443  21.201  0.00  0.00    +0.000 A 
ATOM     14  C   UNL     1       0.250  12.292  20.143  0.00  0.00    +0.000 A 
BRANCH   5  16
ATOM     15  C   UNL     1       1.317  14.101  18.518  0.00  0.00    +0.000 C 
ATOM     16  O   UNL     1       1.379  12.726  18.136  0.00  0.00    +0.000 OA
ENDBRANCH   5  16
ENDBRANCH   1   7
BRANCH   2  17
ATOM     17  C   UNL     1       2.619   6.194  19.613  0.00  0.00    +0.000 C 
BRANCH  17  18
ATOM     18  C   UNL     1       1.650   5.560  20.600  0.00  0.00    +0.000 C 
BRANCH  18  19
ATOM     19  C   UNL     1       2.081   4.153  20.998  0.00  0.00    +0.000 C 
BRANCH  19  20
ATOM     20  C   UNL     1       1.019   3.148  20.561  0.00  0.00    +0.000 C 
BRANCH  20  21
ATOM     21  C   UNL     1       1.451   2.375  19.324  0.00  0.00    +0.000 C 
BRANCH  21  22
ATOM     22  C   UNL     1       2.975   2.246  19.273  0.00  0.00    +0.000 C 
BRANCH  22  23
ATOM     23  C   UNL     1       3.452   2.307  17.829  0.00  0.00    +0.000 C 
BRANCH  23  24
ATOM     24  C   UNL     1       3.614   3.745  17.318  0.00  0.00    +0.000 C 
BRANCH  24  25
ATOM     25  N   UNL     1       5.022   4.084  17.087  0.00  0.00    +0.000 NA
ATOM     26  C   UNL     1       5.713   4.457  18.338  0.00  0.00    +0.000 C 
ATOM     27  C   UNL     1       7.221   4.739  18.099  0.00  0.00    +0.000 C 
ATOM     28  N   UNL     1       7.535   5.689  17.009  0.00  0.00    +0.000 NA
ATOM     29  C   UNL     1       7.305   7.074  17.407  0.00  0.00    +0.000 C 
ATOM     30  C   UNL     1       6.739   5.339  15.819  0.00  0.00    +0.000 C 
ATOM     31  C   UNL     1       5.231   5.150  16.092  0.00  0.00    +0.000 C 
ENDBRANCH  24  25
ENDBRANCH  23  24
ENDBRANCH  22  23
ENDBRANCH  21  22
ENDBRANCH  20  21
ENDBRANCH  19  20
ENDBRANCH  18  19
ENDBRANCH  17  18
ENDBRANCH   2  17
TORSDOF 11
ENDMDL
MODEL 9
REMARK VINA RESULT:      -7.1      6.449      8.384
REMARK  Name = 
REMARK  13 active torsions:
REMARK  status: ('A' for Active; 'I' for Inactive)
REMARK    1  A    between atoms: C_1  and  O_2
REMARK    2  A    between atoms: O_2  and  C_3
REMARK    3  A    between atoms: C_5  and  N_6
REMARK    4  A    between atoms: C_7  and  C_9
REMARK    5  A    between atoms: C_9  and  C_10
REMARK    6  A    between atoms: C_10  and  C_11
REMARK    7  A    between atoms: C_11  and  C_12
REMARK    8  A    between atoms: C_12  and  C_13
REMARK    9  A    between atoms: C_13  and  C_14
REMARK   10  A    between atoms: C_14  and  C_15
REMARK   11  A    between atoms: C_15  and  C_16
REMARK   12  A    between atoms: C_16  and  N_17
REMARK   13  A    between atoms: N_20  and  C_21
REMARK                            x       y       z     vdW  Elec       q    Type
REMARK                         _______ _______ _______ _____ _____    ______ ____
ROOT
ATOM      1  N   UNL     1       6.824   6.761  17.678  0.00  0.00    +0.000 N 
ATOM      2  C   UNL     1       7.806   6.629  18.645  0.00  0.00    +0.000 C 
ATOM      3  O   UNL     1       8.088   5.613  19.275  0.00  0.00    +0.000 OA
ATOM      4  H   UNL     1       6.665   7.668  17.245  0.00  0.00    +0.000 HD
ENDROOT
BRANCH   1   7
ATOM      5  C   UNL     1       3.979   4.342  17.540  0.00  0.00    +0.000 A 
ATOM      6  C   UNL     1       4.865   5.307  18.003  0.00  0.00    +0.000 A 
ATOM      7  C   UNL     1       5.935   5.748  17.218  0.00  0.00    +0.000 A 
ATOM      8  C   UNL     1       6.162   5.194  15.947  0.00  0.00    +0.000 A 
ATOM      9  N   UNL     1       7.202   5.607  15.175  0.00  0.00    +0.000 NA
ATOM     10  C   UNL     1       7.369   5.033  13.960  0.00  0.00    +0.000 A 
ATOM     11  C   UNL     1       6.547   4.043  13.451  0.00  0.00    +0.000 A 
ATOM     12  C   UNL     1       5.489   3.617  14.236  0.00  0.00    +0.000 A 
ATOM     13  C   UNL     1       5.275   4.186  15.494  0.00  0.00    +0.000 A 
ATOM     14  C   UNL     1       4.198   3.768  16.297  0.00  0.00    +0.000 A 
BRANCH   5  16
ATOM     15  C   UNL     1       2.695   2.473  18.185  0.00  0.00    +0.000 C 
ATOM     16  O   UNL     1       2.899   3.886  18.244  0.00  0.00    +0.000 OA
ENDBRANCH   5  16
ENDBRANCH   1   7
BRANCH   2  17
ATOM     17  C   UNL     1       8.624   7.878  18.864  0.00  0.00    +0.000 C 
BRANCH  17  18
ATOM     18  C   UNL     1       8.032   9.008  18.036  0.00  0.00    +0.000 C 
BRANCH  18  19
ATOM     19  C   UNL     1       8.921  10.245  18.040  0.00  0.00    +0.000 C 
BRANCH  19  20
ATOM     20  C   UNL     1       9.349  10.565  19.470  0.00  0.00    +0.000 C 
BRANCH  20  21
ATOM     21  C   UNL     1      10.671  11.317  19.508  0.00  0.00    +0.000 C 
BRANCH  21  22
ATOM     22  C   UNL     1      11.137  11.659  18.091  0.00  0.00    +0.000 C 
BRANCH  22  23
ATOM     23  C   UNL     1      11.250  13.169  17.935  0.00  0.00    +0.000 C 
BRANCH  23  24
ATOM     24  C   UNL     1       9.885  13.857  17.812  0.00  0.00    +0.000 C 
BRANCH  24  25
ATOM     25  N   UNL     1       9.999  15.316  17.914  0.00  0.00    +0.000 NA
ATOM     26  C   UNL     1      11.208  15.823  17.234  0.00  0.00    +0.000 C 
ATOM     27  C   UNL     1      11.284  17.373  17.278  0.00  0.00    +0.000 C 
ATOM     28  N   UNL     1      11.120  17.990  18.613  0.00  0.00    +0.000 NA
ATOM     29  C   UNL     1      12.331  17.874  19.420  0.00  0.00    +0.000 C 
ATOM     30  C   UNL     1       9.968  17.371  19.293  0.00  0.00    +0.000 C 
ATOM     31  C   UNL     1       9.980  15.828  19.295  0.00  0.00    +0.000 C 
ENDBRANCH  24  25
ENDBRANCH  23  24
ENDBRANCH  22  23
ENDBRANCH  21  22
ENDBRANCH  20  21
ENDBRANCH  19  20
ENDBRANCH  18  19
ENDBRANCH  17  18
ENDBRANCH   2  17
TORSDOF 11
ENDMDL
