MODEL 1
REMARK VINA RESULT:      -7.9      0.000      0.000
REMARK  Name = 
REMARK  3 active torsions:
REMARK  status: ('A' for Active; 'I' for Inactive)
REMARK    1  A    between atoms: N_3  and  C_4
REMARK    2  A    between atoms: C_8  and  N_9
REMARK    3  A    between atoms: N_13  and  C_14
REMARK                            x       y       z     vdW  Elec       q    Type
REMARK                         _______ _______ _______ _____ _____    ______ ____
ROOT
ATOM      1  O   UNL     1       5.394   3.262  16.885  0.00  0.00    +0.000 OA
ATOM      2  C   UNL     1       4.991   4.407  16.713  0.00  0.00    +0.000 C 
ATOM      3  N   UNL     1       5.232   5.202  15.611  0.00  0.00    +0.000 N 
ATOM      4  N   UNL     1       4.200   5.033  17.646  0.00  0.00    +0.000 N 
ATOM      5  H   UNL     1       5.018   6.185  15.706  0.00  0.00    +0.000 HD
ATOM      6  H   UNL     1       4.083   6.031  17.575  0.00  0.00    +0.000 HD
ENDROOT
BRANCH   4   7
ATOM      7  C   UNL     1       3.854   4.391  18.920  0.00  0.00    +0.000 C 
ATOM      8  C   UNL     1       2.843   5.267  19.676  0.00  0.00    +0.000 C 
ATOM      9  C   UNL     1       2.421   4.779  21.062  0.00  0.00    +0.000 C 
ATOM     10  C   UNL     1       1.594   3.495  21.156  0.00  0.00    +0.000 C 
ATOM     11  C   UNL     1       0.523   3.317  20.080  0.00  0.00    +0.000 C 
ATOM     12  C   UNL     1       0.910   2.376  18.935  0.00  0.00    +0.000 C 
ATOM     13  C   UNL     1       2.024   2.835  17.995  0.00  0.00    +0.000 C 
ATOM     14  C   UNL     1       3.409   2.950  18.638  0.00  0.00    +0.000 C 
ENDBRANCH   4   7
BRANCH   3  15
ATOM     15  C   UNL     1       5.915   4.801  14.440  0.00  0.00    +0.000 A 
ATOM     16  C   UNL     1       7.164   5.330  14.085  0.00  0.00    +0.000 A 
ATOM     17  C   UNL     1       7.809   4.944  12.911  0.00  0.00    +0.000 A 
ATOM     18  C   UNL     1       7.217   4.013  12.064  0.00  0.00    +0.000 A 
ATOM     19  C   UNL     1       5.980   3.461  12.420  0.00  0.00    +0.000 A 
ATOM     20  C   UNL     1       5.332   3.835  13.612  0.00  0.00    +0.000 A 
BRANCH  19  21
ATOM     21  N   UNL     1       5.349   2.493  11.514  0.00  0.00    +0.000 N 
ATOM     22  O   UNL     1       4.207   2.742  11.103  0.00  0.00    +0.000 OA
ATOM     23  O   UNL     1       5.998   1.478  11.214  0.00  0.00    +0.000 OA
ENDBRANCH  19  21
ENDBRANCH   3  15
TORSDOF 3
ENDMDL
MODEL 2
REMARK VINA RESULT:      -7.8      6.686      8.653
REMARK  Name = 
REMARK  3 active torsions:
REMARK  status: ('A' for Active; 'I' for Inactive)
REMARK    1  A    between atoms: N_3  and  C_4
REMARK    2  A    between atoms: C_8  and  N_9
REMARK    3  A    between atoms: N_13  and  C_14
REMARK                            x       y       z     vdW  Elec       q    Type
REMARK                         _______ _______ _______ _____ _____    ______ ____
ROOT
ATOM      1  O   UNL     1       7.299   9.314  17.787  0.00  0.00    +0.000 OA
ATOM      2  C   UNL     1       8.192   8.824  18.468  0.00  0.00    +0.000 C 
ATOM      3  N   UNL     1       8.371   7.482  18.740  0.00  0.00    +0.000 N 
ATOM      4  N   UNL     1       9.167   9.606  19.039  0.00  0.00    +0.000 N 
ATOM      5  H   UNL     1       9.017   7.252  19.482  0.00  0.00    +0.000 HD
ATOM      6  H   UNL     1       9.736   9.200  19.764  0.00  0.00    +0.000 HD
ENDROOT
BRANCH   4   7
ATOM      7  C   UNL     1       9.150  11.070  18.920  0.00  0.00    +0.000 C 
ATOM      8  C   UNL     1       9.365  11.698  20.305  0.00  0.00    +0.000 C 
ATOM      9  C   UNL     1       9.309  13.223  20.377  0.00  0.00    +0.000 C 
ATOM     10  C   UNL     1      10.418  14.021  19.686  0.00  0.00    +0.000 C 
ATOM     11  C   UNL     1      11.827  13.442  19.811  0.00  0.00    +0.000 C 
ATOM     12  C   UNL     1      12.320  12.672  18.583  0.00  0.00    +0.000 C 
ATOM     13  C   UNL     1      11.620  11.353  18.254  0.00  0.00    +0.000 C 
ATOM     14  C   UNL     1      10.153  11.484  17.836  0.00  0.00    +0.000 C 
ENDBRANCH   4   7
BRANCH   3  15
ATOM     15  C   UNL     1       7.601   6.424  18.204  0.00  0.00    +0.000 A 
ATOM     16  C   UNL     1       6.777   5.620  19.003  0.00  0.00    +0.000 A 
ATOM     17  C   UNL     1       6.048   4.562  18.461  0.00  0.00    +0.000 A 
ATOM     18  C   UNL     1       6.127   4.287  17.100  0.00  0.00    +0.000 A 
ATOM     19  C   UNL     1       6.930   5.097  16.288  0.00  0.00    +0.000 A 
ATOM     20  C   UNL     1       7.655   6.176  16.828  0.00  0.00    +0.000 A 
BRANCH  19  21
ATOM     21  N   UNL     1       7.026   4.792  14.856  0.00  0.00    +0.000 N 
ATOM     22  O   UNL     1       6.366   3.838  14.419  0.00  0.00    +0.000 OA
ATOM     23  O   UNL     1       7.768   5.507  14.164  0.00  0.00    +0.000 OA
ENDBRANCH  19  21
ENDBRANCH   3  15
TORSDOF 3
ENDMDL
MODEL 3
REMARK VINA RESULT:      -7.8      1.070      1.328
REMARK  Name = 
REMARK  3 active torsions:
REMARK  status: ('A' for Active; 'I' for Inactive)
REMARK    1  A    between atoms: N_3  and  C_4
REMARK    2  A    between atoms: C_8  and  N_9
REMARK    3  A    between atoms: N_13  and  C_14
REMARK                            x       y       z     vdW  Elec       q    Type
REMARK                         _______ _______ _______ _____ _____    ______ ____
ROOT
ATOM      1  O   UNL     1       4.309   4.411  16.618  0.00  0.00    +0.000 OA
ATOM      2  C   UNL     1       5.412   4.135  17.075  0.00  0.00    +0.000 C 
ATOM      3  N   UNL     1       6.575   3.954  16.352  0.00  0.00    +0.000 N 
ATOM      4  N   UNL     1       5.611   3.993  18.427  0.00  0.00    +0.000 N 
ATOM      5  H   UNL     1       7.348   3.524  16.838  0.00  0.00    +0.000 HD
ATOM      6  H   UNL     1       6.461   3.549  18.736  0.00  0.00    +0.000 HD
ENDROOT
BRANCH   4   7
ATOM      7  C   UNL     1       4.503   4.097  19.385  0.00  0.00    +0.000 C 
ATOM      8  C   UNL     1       3.408   5.003  18.804  0.00  0.00    +0.000 C 
ATOM      9  C   UNL     1       2.203   5.277  19.703  0.00  0.00    +0.000 C 
ATOM     10  C   UNL     1       1.265   4.113  20.029  0.00  0.00    +0.000 C 
ATOM     11  C   UNL     1       0.977   3.151  18.876  0.00  0.00    +0.000 C 
ATOM     12  C   UNL     1       1.776   1.846  18.911  0.00  0.00    +0.000 C 
ATOM     13  C   UNL     1       3.285   1.941  18.685  0.00  0.00    +0.000 C 
ATOM     14  C   UNL     1       4.060   2.682  19.777  0.00  0.00    +0.000 C 
ENDBRANCH   4   7
BRANCH   3  15
ATOM     15  C   UNL     1       6.714   4.144  14.958  0.00  0.00    +0.000 A 
ATOM     16  C   UNL     1       7.594   5.093  14.418  0.00  0.00    +0.000 A 
ATOM     17  C   UNL     1       7.696   5.288  13.041  0.00  0.00    +0.000 A 
ATOM     18  C   UNL     1       6.919   4.531  12.170  0.00  0.00    +0.000 A 
ATOM     19  C   UNL     1       6.053   3.565  12.697  0.00  0.00    +0.000 A 
ATOM     20  C   UNL     1       5.958   3.353  14.086  0.00  0.00    +0.000 A 
BRANCH  19  21
ATOM     21  N   UNL     1       5.220   2.782  11.777  0.00  0.00    +0.000 N 
ATOM     22  O   UNL     1       5.653   1.688  11.389  0.00  0.00    +0.000 OA
ATOM     23  O   UNL     1       4.127   3.264  11.439  0.00  0.00    +0.000 OA
ENDBRANCH  19  21
ENDBRANCH   3  15
TORSDOF 3
ENDMDL
MODEL 4
REMARK VINA RESULT:      -7.7      5.804      9.461
REMARK  Name = 
REMARK  3 active torsions:
REMARK  status: ('A' for Active; 'I' for Inactive)
REMARK    1  A    between atoms: N_3  and  C_4
REMARK    2  A    between atoms: C_8  and  N_9
REMARK    3  A    between atoms: N_13  and  C_14
REMARK                            x       y       z     vdW  Elec       q    Type
REMARK                         _______ _______ _______ _____ _____    ______ ____
ROOT
ATOM      1  O   UNL     1       1.820   8.478  19.204  0.00  0.00    +0.000 OA
ATOM      2  C   UNL     1       1.919   7.779  20.206  0.00  0.00    +0.000 C 
ATOM      3  N   UNL     1       1.459   8.091  21.470  0.00  0.00    +0.000 N 
ATOM      4  N   UNL     1       2.513   6.541  20.157  0.00  0.00    +0.000 N 
ATOM      5  H   UNL     1       1.799   7.519  22.230  0.00  0.00    +0.000 HD
ATOM      6  H   UNL     1       2.774   6.106  21.028  0.00  0.00    +0.000 HD
ENDROOT
BRANCH   4   7
ATOM      7  C   UNL     1       3.116   6.021  18.924  0.00  0.00    +0.000 C 
ATOM      8  C   UNL     1       4.330   5.149  19.276  0.00  0.00    +0.000 C 
ATOM      9  C   UNL     1       5.123   4.579  18.101  0.00  0.00    +0.000 C 
ATOM     10  C   UNL     1       4.447   3.530  17.215  0.00  0.00    +0.000 C 
ATOM     11  C   UNL     1       3.588   2.498  17.946  0.00  0.00    +0.000 C 
ATOM     12  C   UNL     1       2.081   2.765  17.899  0.00  0.00    +0.000 C 
ATOM     13  C   UNL     1       1.560   3.990  18.651  0.00  0.00    +0.000 C 
ATOM     14  C   UNL     1       2.022   5.338  18.093  0.00  0.00    +0.000 C 
ENDBRANCH   4   7
BRANCH   3  15
ATOM     15  C   UNL     1       0.709   9.240  21.812  0.00  0.00    +0.000 A 
ATOM     16  C   UNL     1      -0.192   9.252  22.886  0.00  0.00    +0.000 A 
ATOM     17  C   UNL     1      -0.946  10.385  23.190  0.00  0.00    +0.000 A 
ATOM     18  C   UNL     1      -0.811  11.537  22.423  0.00  0.00    +0.000 A 
ATOM     19  C   UNL     1       0.102  11.544  21.361  0.00  0.00    +0.000 A 
ATOM     20  C   UNL     1       0.877  10.408  21.060  0.00  0.00    +0.000 A 
BRANCH  19  21
ATOM     21  N   UNL     1       0.228  12.756  20.542  0.00  0.00    +0.000 N 
ATOM     22  O   UNL     1      -0.576  12.913  19.611  0.00  0.00    +0.000 OA
ATOM     23  O   UNL     1       1.135  13.553  20.828  0.00  0.00    +0.000 OA
ENDBRANCH  19  21
ENDBRANCH   3  15
TORSDOF 3
ENDMDL
MODEL 5
REMARK VINA RESULT:      -7.7      4.997      6.901
REMARK  Name = 
REMARK  3 active torsions:
REMARK  status: ('A' for Active; 'I' for Inactive)
REMARK    1  A    between atoms: N_3  and  C_4
REMARK    2  A    between atoms: C_8  and  N_9
REMARK    3  A    between atoms: N_13  and  C_14
REMARK                            x       y       z     vdW  Elec       q    Type
REMARK                         _______ _______ _______ _____ _____    ______ ____
ROOT
ATOM      1  O   UNL     1       2.319   8.519  17.068  0.00  0.00    +0.000 OA
ATOM      2  C   UNL     1       2.223   8.181  18.242  0.00  0.00    +0.000 C 
ATOM      3  N   UNL     1       2.703   7.014  18.800  0.00  0.00    +0.000 N 
ATOM      4  N   UNL     1       1.611   8.990  19.170  0.00  0.00    +0.000 N 
ATOM      5  H   UNL     1       2.365   6.779  19.722  0.00  0.00    +0.000 HD
ATOM      6  H   UNL     1       1.355   8.584  20.056  0.00  0.00    +0.000 HD
ENDROOT
BRANCH   4   7
ATOM      7  C   UNL     1       0.985  10.263  18.792  0.00  0.00    +0.000 C 
ATOM      8  C   UNL     1      -0.515  10.042  18.547  0.00  0.00    +0.000 C 
ATOM      9  C   UNL     1      -1.314  11.256  18.076  0.00  0.00    +0.000 C 
ATOM     10  C   UNL     1      -1.500  12.421  19.051  0.00  0.00    +0.000 C 
ATOM     11  C   UNL     1      -1.757  12.032  20.507  0.00  0.00    +0.000 C 
ATOM     12  C   UNL     1      -0.535  12.129  21.425  0.00  0.00    +0.000 C 
ATOM     13  C   UNL     1       0.607  11.143  21.180  0.00  0.00    +0.000 C 
ATOM     14  C   UNL     1       1.341  11.317  19.848  0.00  0.00    +0.000 C 
ENDBRANCH   4   7
BRANCH   3  15
ATOM     15  C   UNL     1       3.474   6.037  18.128  0.00  0.00    +0.000 A 
ATOM     16  C   UNL     1       2.923   4.828  17.681  0.00  0.00    +0.000 A 
ATOM     17  C   UNL     1       3.705   3.863  17.047  0.00  0.00    +0.000 A 
ATOM     18  C   UNL     1       5.061   4.091  16.841  0.00  0.00    +0.000 A 
ATOM     19  C   UNL     1       5.618   5.305  17.263  0.00  0.00    +0.000 A 
ATOM     20  C   UNL     1       4.829   6.289  17.890  0.00  0.00    +0.000 A 
BRANCH  19  21
ATOM     21  N   UNL     1       7.054   5.535  17.062  0.00  0.00    +0.000 N 
ATOM     22  O   UNL     1       7.404   6.597  16.528  0.00  0.00    +0.000 OA
ATOM     23  O   UNL     1       7.837   4.648  17.439  0.00  0.00    +0.000 OA
ENDBRANCH  19  21
ENDBRANCH   3  15
TORSDOF 3
ENDMDL
MODEL 6
REMARK VINA RESULT:      -7.7      4.429      6.392
REMARK  Name = 
REMARK  3 active torsions:
REMARK  status: ('A' for Active; 'I' for Inactive)
REMARK    1  A    between atoms: N_3  and  C_4
REMARK    2  A    between atoms: C_8  and  N_9
REMARK    3  A    between atoms: N_13  and  C_14
REMARK                            x       y       z     vdW  Elec       q    Type
REMARK                         _______ _______ _______ _____ _____    ______ ____
ROOT
ATOM      1  O   UNL     1       1.641   6.101  20.145  0.00  0.00    +0.000 OA
ATOM      2  C   UNL     1       2.113   7.099  19.613  0.00  0.00    +0.000 C 
ATOM      3  N   UNL     1       3.125   7.126  18.675  0.00  0.00    +0.000 N 
ATOM      4  N   UNL     1       1.637   8.356  19.903  0.00  0.00    +0.000 N 
ATOM      5  H   UNL     1       3.549   8.024  18.490  0.00  0.00    +0.000 HD
ATOM      6  H   UNL     1       2.193   9.148  19.625  0.00  0.00    +0.000 HD
ENDROOT
BRANCH   4   7
ATOM      7  C   UNL     1       0.590   8.571  20.910  0.00  0.00    +0.000 C 
ATOM      8  C   UNL     1       1.197   9.264  22.139  0.00  0.00    +0.000 C 
ATOM      9  C   UNL     1       0.256   9.507  23.318  0.00  0.00    +0.000 C 
ATOM     10  C   UNL     1      -0.885  10.511  23.139  0.00  0.00    +0.000 C 
ATOM     11  C   UNL     1      -0.538  11.773  22.348  0.00  0.00    +0.000 C 
ATOM     12  C   UNL     1      -0.999  11.765  20.888  0.00  0.00    +0.000 C 
ATOM     13  C   UNL     1      -0.319  10.776  19.942  0.00  0.00    +0.000 C 
ATOM     14  C   UNL     1      -0.585   9.300  20.246  0.00  0.00    +0.000 C 
ENDBRANCH   4   7
BRANCH   3  15
ATOM     15  C   UNL     1       3.736   5.992  18.093  0.00  0.00    +0.000 A 
ATOM     16  C   UNL     1       3.005   4.853  17.728  0.00  0.00    +0.000 A 
ATOM     17  C   UNL     1       3.630   3.731  17.184  0.00  0.00    +0.000 A 
ATOM     18  C   UNL     1       5.007   3.728  16.987  0.00  0.00    +0.000 A 
ATOM     19  C   UNL     1       5.745   4.868  17.326  0.00  0.00    +0.000 A 
ATOM     20  C   UNL     1       5.116   6.009  17.862  0.00  0.00    +0.000 A 
BRANCH  19  21
ATOM     21  N   UNL     1       7.200   4.854  17.136  0.00  0.00    +0.000 N 
ATOM     22  O   UNL     1       7.654   5.327  16.084  0.00  0.00    +0.000 OA
ATOM     23  O   UNL     1       7.894   4.365  18.042  0.00  0.00    +0.000 OA
ENDBRANCH  19  21
ENDBRANCH   3  15
TORSDOF 3
ENDMDL
MODEL 7
REMARK VINA RESULT:      -7.6      6.897      8.727
REMARK  Name = 
REMARK  3 active torsions:
REMARK  status: ('A' for Active; 'I' for Inactive)
REMARK    1  A    between atoms: N_3  and  C_4
REMARK    2  A    between atoms: C_8  and  N_9
REMARK    3  A    between atoms: N_13  and  C_14
REMARK                            x       y       z     vdW  Elec       q    Type
REMARK                         _______ _______ _______ _____ _____    ______ ____
ROOT
ATOM      1  O   UNL     1       7.744   9.316  17.165  0.00  0.00    +0.000 OA
ATOM      2  C   UNL     1       8.134   8.557  18.045  0.00  0.00    +0.000 C 
ATOM      3  N   UNL     1       8.925   8.894  19.125  0.00  0.00    +0.000 N 
ATOM      4  N   UNL     1       7.781   7.229  18.051  0.00  0.00    +0.000 N 
ATOM      5  H   UNL     1       9.337   8.130  19.641  0.00  0.00    +0.000 HD
ATOM      6  H   UNL     1       8.297   6.604  18.649  0.00  0.00    +0.000 HD
ENDROOT
BRANCH   4   7
ATOM      7  C   UNL     1       6.979   6.638  16.972  0.00  0.00    +0.000 C 
ATOM      8  C   UNL     1       7.369   5.163  16.794  0.00  0.00    +0.000 C 
ATOM      9  C   UNL     1       6.675   4.408  15.661  0.00  0.00    +0.000 C 
ATOM     10  C   UNL     1       5.173   4.144  15.781  0.00  0.00    +0.000 C 
ATOM     11  C   UNL     1       4.676   3.767  17.177  0.00  0.00    +0.000 C 
ATOM     12  C   UNL     1       4.019   4.909  17.957  0.00  0.00    +0.000 C 
ATOM     13  C   UNL     1       4.915   6.066  18.399  0.00  0.00    +0.000 C 
ATOM     14  C   UNL     1       5.497   6.907  17.260  0.00  0.00    +0.000 C 
ENDBRANCH   4   7
BRANCH   3  15
ATOM     15  C   UNL     1       9.354  10.200  19.454  0.00  0.00    +0.000 A 
ATOM     16  C   UNL     1       9.174  10.746  20.733  0.00  0.00    +0.000 A 
ATOM     17  C   UNL     1       9.576  12.047  21.031  0.00  0.00    +0.000 A 
ATOM     18  C   UNL     1      10.173  12.833  20.052  0.00  0.00    +0.000 A 
ATOM     19  C   UNL     1      10.379  12.292  18.777  0.00  0.00    +0.000 A 
ATOM     20  C   UNL     1       9.989  10.973  18.475  0.00  0.00    +0.000 A 
BRANCH  19  21
ATOM     21  N   UNL     1      10.992  13.131  17.740  0.00  0.00    +0.000 N 
ATOM     22  O   UNL     1      12.088  12.780  17.281  0.00  0.00    +0.000 OA
ATOM     23  O   UNL     1      10.375  14.147  17.384  0.00  0.00    +0.000 OA
ENDBRANCH  19  21
ENDBRANCH   3  15
TORSDOF 3
ENDMDL
MODEL 8
REMARK VINA RESULT:      -7.6      5.194      7.455
REMARK  Name = 
REMARK  3 active torsions:
REMARK  status: ('A' for Active; 'I' for Inactive)
REMARK    1  A    between atoms: N_3  and  C_4
REMARK    2  A    between atoms: C_8  and  N_9
REMARK    3  A    between atoms: N_13  and  C_14
REMARK                            x       y       z     vdW  Elec       q    Type
REMARK                         _______ _______ _______ _____ _____    ______ ____
ROOT
ATOM      1  O   UNL     1       2.270   8.647  17.765  0.00  0.00    +0.000 OA
ATOM      2  C   UNL     1       1.946   8.249  18.878  0.00  0.00    +0.000 C 
ATOM      3  N   UNL     1       2.230   7.012  19.421  0.00  0.00    +0.000 N 
ATOM      4  N   UNL     1       1.247   9.052  19.747  0.00  0.00    +0.000 N 
ATOM      5  H   UNL     1       1.719   6.754  20.252  0.00  0.00    +0.000 HD
ATOM      6  H   UNL     1       0.810   8.618  20.545  0.00  0.00    +0.000 HD
ENDROOT
BRANCH   4   7
ATOM      7  C   UNL     1       0.796  10.396  19.365  0.00  0.00    +0.000 C 
ATOM      8  C   UNL     1      -0.629  10.315  18.797  0.00  0.00    +0.000 C 
ATOM      9  C   UNL     1      -1.233  11.622  18.284  0.00  0.00    +0.000 C 
ATOM     10  C   UNL     1      -1.548  12.721  19.301  0.00  0.00    +0.000 C 
ATOM     11  C   UNL     1      -2.130  12.246  20.631  0.00  0.00    +0.000 C 
ATOM     12  C   UNL     1      -1.127  12.175  21.786  0.00  0.00    +0.000 C 
ATOM     13  C   UNL     1      -0.023  11.122  21.694  0.00  0.00    +0.000 C 
ATOM     14  C   UNL     1       0.985  11.335  20.562  0.00  0.00    +0.000 C 
ENDBRANCH   4   7
BRANCH   3  15
ATOM     15  C   UNL     1       3.028   6.013  18.817  0.00  0.00    +0.000 A 
ATOM     16  C   UNL     1       2.490   5.047  17.955  0.00  0.00    +0.000 A 
ATOM     17  C   UNL     1       3.287   4.050  17.393  0.00  0.00    +0.000 A 
ATOM     18  C   UNL     1       4.647   4.002  17.679  0.00  0.00    +0.000 A 
ATOM     19  C   UNL     1       5.200   4.975  18.520  0.00  0.00    +0.000 A 
ATOM     20  C   UNL     1       4.402   5.993  19.078  0.00  0.00    +0.000 A 
BRANCH  19  21
ATOM     21  N   UNL     1       6.632   4.910  18.836  0.00  0.00    +0.000 N 
ATOM     22  O   UNL     1       7.007   5.358  19.929  0.00  0.00    +0.000 OA
ATOM     23  O   UNL     1       7.386   4.409  17.987  0.00  0.00    +0.000 OA
ENDBRANCH  19  21
ENDBRANCH   3  15
TORSDOF 3
ENDMDL
MODEL 9
REMARK VINA RESULT:      -7.6      5.136      6.861
REMARK  Name = 
REMARK  3 active torsions:
REMARK  status: ('A' for Active; 'I' for Inactive)
REMARK    1  A    between atoms: N_3  and  C_4
REMARK    2  A    between atoms: C_8  and  N_9
REMARK    3  A    between atoms: N_13  and  C_14
REMARK                            x       y       z     vdW  Elec       q    Type
REMARK                         _______ _______ _______ _____ _____    ______ ____
ROOT
ATOM      1  O   UNL     1       2.177   7.620  19.889  0.00  0.00    +0.000 OA
ATOM      2  C   UNL     1       2.223   8.198  18.810  0.00  0.00    +0.000 C 
ATOM      3  N   UNL     1       2.928   7.794  17.694  0.00  0.00    +0.000 N 
ATOM      4  N   UNL     1       1.520   9.359  18.590  0.00  0.00    +0.000 N 
ATOM      5  H   UNL     1       3.042   8.475  16.958  0.00  0.00    +0.000 HD
ATOM      6  H   UNL     1       1.761   9.913  17.784  0.00  0.00    +0.000 HD
ENDROOT
BRANCH   4   7
ATOM      7  C   UNL     1       0.735   9.999  19.653  0.00  0.00    +0.000 C 
ATOM      8  C   UNL     1       1.207  11.449  19.835  0.00  0.00    +0.000 C 
ATOM      9  C   UNL     1       0.539  12.248  20.953  0.00  0.00    +0.000 C 
ATOM     10  C   UNL     1      -0.943  12.599  20.805  0.00  0.00    +0.000 C 
ATOM     11  C   UNL     1      -1.391  12.999  19.399  0.00  0.00    +0.000 C 
ATOM     12  C   UNL     1      -2.100  11.896  18.610  0.00  0.00    +0.000 C 
ATOM     13  C   UNL     1      -1.265  10.687  18.187  0.00  0.00    +0.000 C 
ATOM     14  C   UNL     1      -0.755   9.816  19.339  0.00  0.00    +0.000 C 
ENDBRANCH   4   7
BRANCH   3  15
ATOM     15  C   UNL     1       3.654   6.586  17.573  0.00  0.00    +0.000 A 
ATOM     16  C   UNL     1       3.065   5.335  17.798  0.00  0.00    +0.000 A 
ATOM     17  C   UNL     1       3.803   4.156  17.704  0.00  0.00    +0.000 A 
ATOM     18  C   UNL     1       5.154   4.204  17.377  0.00  0.00    +0.000 A 
ATOM     19  C   UNL     1       5.749   5.448  17.127  0.00  0.00    +0.000 A 
ATOM     20  C   UNL     1       5.003   6.639  17.206  0.00  0.00    +0.000 A 
BRANCH  19  21
ATOM     21  N   UNL     1       7.179   5.497  16.802  0.00  0.00    +0.000 N 
ATOM     22  O   UNL     1       7.844   4.461  16.944  0.00  0.00    +0.000 OA
ATOM     23  O   UNL     1       7.641   6.578  16.404  0.00  0.00    +0.000 OA
ENDBRANCH  19  21
ENDBRANCH   3  15
TORSDOF 3
ENDMDL
