MODEL 1
REMARK VINA RESULT:      -7.8      0.000      0.000
REMARK  Name = 
REMARK  14 active torsions:
REMARK  status: ('A' for Active; 'I' for Inactive)
REMARK    1  A    between atoms: C_1  and  C_2
REMARK    2  A    between atoms: C_2  and  O_3
REMARK    3  A    between atoms: O_3  and  C_4
REMARK    4  A    between atoms: C_9  and  C_10
REMARK    5  A    between atoms: C_10  and  O_12
REMARK    6  A    between atoms: O_12  and  C_13
REMARK    7  A    between atoms: C_13  and  C_14
REMARK    8  A    between atoms: N_16  and  C_17
REMARK    9  A    between atoms: C_19  and  C_20
REMARK   10  A    between atoms: C_20  and  C_21
REMARK   11  A    between atoms: C_20  and  C_22
REMARK   12  A    between atoms: C_20  and  C_23
REMARK   13  A    between atoms: C_26  and  O_27
REMARK   14  A    between atoms: O_27  and  C_28
REMARK                            x       y       z     vdW  Elec       q    Type
REMARK                         _______ _______ _______ _____ _____    ______ ____
ROOT
ATOM      1  C   UNL     1       7.675   7.931  17.786  0.00  0.00    +0.000 C 
ATOM      2  O   UNL     1       8.195   7.117  18.555  0.00  0.00    +0.000 OA
ATOM      3  N   UNL     1       6.630   7.645  16.923  0.00  0.00    +0.000 N 
ATOM      4  H   UNL     1       6.597   8.184  16.063  0.00  0.00    +0.000 HD
ENDROOT
BRANCH   3   5
ATOM      5  C   UNL     1       5.978   6.384  16.913  0.00  0.00    +0.000 A 
ATOM      6  C   UNL     1       4.847   6.187  17.736  0.00  0.00    +0.000 A 
ATOM      7  C   UNL     1       4.116   4.979  17.750  0.00  0.00    +0.000 A 
ATOM      8  C   UNL     1       4.547   3.972  16.875  0.00  0.00    +0.000 A 
ATOM      9  C   UNL     1       5.658   4.156  16.045  0.00  0.00    +0.000 A 
ATOM     10  C   UNL     1       6.382   5.352  16.058  0.00  0.00    +0.000 A 
BRANCH   7  11
ATOM     11  C   UNL     1       2.880   4.783  18.651  0.00  0.00    +0.000 C 
ATOM     12  C   UNL     1       1.680   4.350  17.784  0.00  0.00    +0.000 C 
ATOM     13  C   UNL     1       3.113   3.699  19.730  0.00  0.00    +0.000 C 
ATOM     14  C   UNL     1       2.487   6.071  19.413  0.00  0.00    +0.000 C 
ENDBRANCH   7  11
BRANCH  10  15
ATOM     15  O   UNL     1       7.424   5.379  15.172  0.00  0.00    +0.000 OA
ATOM     16  C   UNL     1       7.189   4.794  13.895  0.00  0.00    +0.000 C 
ENDBRANCH  10  15
ENDBRANCH   3   5
BRANCH   1  17
ATOM     17  C   UNL     1       8.208   9.363  17.696  0.00  0.00    +0.000 C 
BRANCH  17  18
ATOM     18  O   UNL     1       8.994   9.749  18.829  0.00  0.00    +0.000 OA
BRANCH  18  19
ATOM     19  C   UNL     1       9.658  10.920  18.664  0.00  0.00    +0.000 C 
ATOM     20  O   UNL     1      10.431  11.143  17.744  0.00  0.00    +0.000 OA
BRANCH  19  26
ATOM     21  C   UNL     1       8.791  13.120  19.470  0.00  0.00    +0.000 A 
ATOM     22  N   UNL     1       8.534  14.055  20.423  0.00  0.00    +0.000 NA
ATOM     23  C   UNL     1       8.853  13.749  21.697  0.00  0.00    +0.000 A 
ATOM     24  C   UNL     1       9.407  12.542  22.074  0.00  0.00    +0.000 A 
ATOM     25  C   UNL     1       9.652  11.587  21.088  0.00  0.00    +0.000 A 
ATOM     26  C   UNL     1       9.338  11.871  19.753  0.00  0.00    +0.000 A 
BRANCH  21  27
ATOM     27  O   UNL     1       8.410  13.414  18.178  0.00  0.00    +0.000 OA
BRANCH  27  29
ATOM     28  C   UNL     1       6.346  14.523  17.697  0.00  0.00    +0.000 C 
ATOM     29  C   UNL     1       7.807  14.705  18.065  0.00  0.00    +0.000 C 
ENDBRANCH  27  29
ENDBRANCH  21  27
ENDBRANCH  19  26
ENDBRANCH  18  19
ENDBRANCH  17  18
ENDBRANCH   1  17
TORSDOF 9
ENDMDL
MODEL 2
REMARK VINA RESULT:      -7.6      0.629      1.038
REMARK  Name = 
REMARK  14 active torsions:
REMARK  status: ('A' for Active; 'I' for Inactive)
REMARK    1  A    between atoms: C_1  and  C_2
REMARK    2  A    between atoms: C_2  and  O_3
REMARK    3  A    between atoms: O_3  and  C_4
REMARK    4  A    between atoms: C_9  and  C_10
REMARK    5  A    between atoms: C_10  and  O_12
REMARK    6  A    between atoms: O_12  and  C_13
REMARK    7  A    between atoms: C_13  and  C_14
REMARK    8  A    between atoms: N_16  and  C_17
REMARK    9  A    between atoms: C_19  and  C_20
REMARK   10  A    between atoms: C_20  and  C_21
REMARK   11  A    between atoms: C_20  and  C_22
REMARK   12  A    between atoms: C_20  and  C_23
REMARK   13  A    between atoms: C_26  and  O_27
REMARK   14  A    between atoms: O_27  and  C_28
REMARK                            x       y       z     vdW  Elec       q    Type
REMARK                         _______ _______ _______ _____ _____    ______ ____
ROOT
ATOM      1  C   UNL     1       7.690   7.953  17.812  0.00  0.00    +0.000 C 
ATOM      2  O   UNL     1       8.195   7.121  18.571  0.00  0.00    +0.000 OA
ATOM      3  N   UNL     1       6.660   7.689  16.924  0.00  0.00    +0.000 N 
ATOM      4  H   UNL     1       6.643   8.249  16.076  0.00  0.00    +0.000 HD
ENDROOT
BRANCH   3   5
ATOM      5  C   UNL     1       6.007   6.429  16.872  0.00  0.00    +0.000 A 
ATOM      6  C   UNL     1       4.871   6.208  17.682  0.00  0.00    +0.000 A 
ATOM      7  C   UNL     1       4.140   5.002  17.656  0.00  0.00    +0.000 A 
ATOM      8  C   UNL     1       4.575   4.021  16.753  0.00  0.00    +0.000 A 
ATOM      9  C   UNL     1       5.691   4.230  15.935  0.00  0.00    +0.000 A 
ATOM     10  C   UNL     1       6.415   5.424  15.989  0.00  0.00    +0.000 A 
BRANCH   7  11
ATOM     11  C   UNL     1       2.898   4.780  18.543  0.00  0.00    +0.000 C 
ATOM     12  C   UNL     1       3.184   3.641  19.544  0.00  0.00    +0.000 C 
ATOM     13  C   UNL     1       2.524   6.048  19.347  0.00  0.00    +0.000 C 
ATOM     14  C   UNL     1       1.641   4.402  17.726  0.00  0.00    +0.000 C 
ENDBRANCH   7  11
BRANCH  10  15
ATOM     15  O   UNL     1       7.462   5.477  15.109  0.00  0.00    +0.000 OA
ATOM     16  C   UNL     1       7.256   4.874  13.836  0.00  0.00    +0.000 C 
ENDBRANCH  10  15
ENDBRANCH   3   5
BRANCH   1  17
ATOM     17  C   UNL     1       8.225   9.386  17.766  0.00  0.00    +0.000 C 
BRANCH  17  18
ATOM     18  O   UNL     1       9.018   9.734  18.907  0.00  0.00    +0.000 OA
BRANCH  18  19
ATOM     19  C   UNL     1       9.649  10.929  18.795  0.00  0.00    +0.000 C 
ATOM     20  O   UNL     1      10.426  11.208  17.893  0.00  0.00    +0.000 OA
BRANCH  19  26
ATOM     21  C   UNL     1       8.932  13.153  19.677  0.00  0.00    +0.000 A 
ATOM     22  N   UNL     1       8.651  14.039  20.669  0.00  0.00    +0.000 NA
ATOM     23  C   UNL     1       8.753  13.602  21.941  0.00  0.00    +0.000 A 
ATOM     24  C   UNL     1       9.110  12.311  22.276  0.00  0.00    +0.000 A 
ATOM     25  C   UNL     1       9.381  11.409  21.247  0.00  0.00    +0.000 A 
ATOM     26  C   UNL     1       9.290  11.828  19.914  0.00  0.00    +0.000 A 
BRANCH  21  27
ATOM     27  O   UNL     1       8.769  13.586  18.378  0.00  0.00    +0.000 OA
BRANCH  27  29
ATOM     28  C   UNL     1       8.759  15.887  17.724  0.00  0.00    +0.000 C 
ATOM     29  C   UNL     1       9.625  14.686  18.057  0.00  0.00    +0.000 C 
ENDBRANCH  27  29
ENDBRANCH  21  27
ENDBRANCH  19  26
ENDBRANCH  18  19
ENDBRANCH  17  18
ENDBRANCH   1  17
TORSDOF 9
ENDMDL
MODEL 3
REMARK VINA RESULT:      -7.6      1.389      2.106
REMARK  Name = 
REMARK  14 active torsions:
REMARK  status: ('A' for Active; 'I' for Inactive)
REMARK    1  A    between atoms: C_1  and  C_2
REMARK    2  A    between atoms: C_2  and  O_3
REMARK    3  A    between atoms: O_3  and  C_4
REMARK    4  A    between atoms: C_9  and  C_10
REMARK    5  A    between atoms: C_10  and  O_12
REMARK    6  A    between atoms: O_12  and  C_13
REMARK    7  A    between atoms: C_13  and  C_14
REMARK    8  A    between atoms: N_16  and  C_17
REMARK    9  A    between atoms: C_19  and  C_20
REMARK   10  A    between atoms: C_20  and  C_21
REMARK   11  A    between atoms: C_20  and  C_22
REMARK   12  A    between atoms: C_20  and  C_23
REMARK   13  A    between atoms: C_26  and  O_27
REMARK   14  A    between atoms: O_27  and  C_28
REMARK                            x       y       z     vdW  Elec       q    Type
REMARK                         _______ _______ _______ _____ _____    ______ ____
ROOT
ATOM      1  C   UNL     1       7.691   8.033  17.888  0.00  0.00    +0.000 C 
ATOM      2  O   UNL     1       8.281   7.217  18.601  0.00  0.00    +0.000 OA
ATOM      3  N   UNL     1       6.654   7.722  17.024  0.00  0.00    +0.000 N 
ATOM      4  H   UNL     1       6.568   8.306  16.197  0.00  0.00    +0.000 HD
ENDROOT
BRANCH   3   5
ATOM      5  C   UNL     1       6.094   6.419  16.950  0.00  0.00    +0.000 A 
ATOM      6  C   UNL     1       4.983   6.100  17.761  0.00  0.00    +0.000 A 
ATOM      7  C   UNL     1       4.341   4.844  17.713  0.00  0.00    +0.000 A 
ATOM      8  C   UNL     1       4.840   3.916  16.787  0.00  0.00    +0.000 A 
ATOM      9  C   UNL     1       5.932   4.222  15.968  0.00  0.00    +0.000 A 
ATOM     10  C   UNL     1       6.567   5.464  16.043  0.00  0.00    +0.000 A 
BRANCH   7  11
ATOM     11  C   UNL     1       3.125   4.514  18.603  0.00  0.00    +0.000 C 
ATOM     12  C   UNL     1       3.006   5.573  19.717  0.00  0.00    +0.000 C 
ATOM     13  C   UNL     1       1.803   4.504  17.799  0.00  0.00    +0.000 C 
ATOM     14  C   UNL     1       3.234   3.121  19.268  0.00  0.00    +0.000 C 
ENDBRANCH   7  11
BRANCH  10  15
ATOM     15  O   UNL     1       7.601   5.611  15.158  0.00  0.00    +0.000 OA
ATOM     16  C   UNL     1       7.420   5.044  13.866  0.00  0.00    +0.000 C 
ENDBRANCH  10  15
ENDBRANCH   3   5
BRANCH   1  17
ATOM     17  C   UNL     1       8.118   9.503  17.874  0.00  0.00    +0.000 C 
BRANCH  17  18
ATOM     18  O   UNL     1       9.431   9.719  18.404  0.00  0.00    +0.000 OA
BRANCH  18  19
ATOM     19  C   UNL     1       9.523  10.793  19.226  0.00  0.00    +0.000 C 
ATOM     20  O   UNL     1       9.093  10.817  20.370  0.00  0.00    +0.000 OA
BRANCH  19  26
ATOM     21  C   UNL     1       9.556  13.164  18.440  0.00  0.00    +0.000 A 
ATOM     22  N   UNL     1      10.092  14.222  17.776  0.00  0.00    +0.000 NA
ATOM     23  C   UNL     1      11.285  14.039  17.175  0.00  0.00    +0.000 A 
ATOM     24  C   UNL     1      11.983  12.848  17.214  0.00  0.00    +0.000 A 
ATOM     25  C   UNL     1      11.427  11.776  17.913  0.00  0.00    +0.000 A 
ATOM     26  C   UNL     1      10.187  11.927  18.546  0.00  0.00    +0.000 A 
BRANCH  21  27
ATOM     27  O   UNL     1       8.365  13.373  19.103  0.00  0.00    +0.000 OA
BRANCH  27  29
ATOM     28  C   UNL     1       6.783  14.889  20.063  0.00  0.00    +0.000 C 
ATOM     29  C   UNL     1       8.043  14.760  19.227  0.00  0.00    +0.000 C 
ENDBRANCH  27  29
ENDBRANCH  21  27
ENDBRANCH  19  26
ENDBRANCH  18  19
ENDBRANCH  17  18
ENDBRANCH   1  17
TORSDOF 9
ENDMDL
MODEL 4
REMARK VINA RESULT:      -7.5      1.617      2.113
REMARK  Name = 
REMARK  14 active torsions:
REMARK  status: ('A' for Active; 'I' for Inactive)
REMARK    1  A    between atoms: C_1  and  C_2
REMARK    2  A    between atoms: C_2  and  O_3
REMARK    3  A    between atoms: O_3  and  C_4
REMARK    4  A    between atoms: C_9  and  C_10
REMARK    5  A    between atoms: C_10  and  O_12
REMARK    6  A    between atoms: O_12  and  C_13
REMARK    7  A    between atoms: C_13  and  C_14
REMARK    8  A    between atoms: N_16  and  C_17
REMARK    9  A    between atoms: C_19  and  C_20
REMARK   10  A    between atoms: C_20  and  C_21
REMARK   11  A    between atoms: C_20  and  C_22
REMARK   12  A    between atoms: C_20  and  C_23
REMARK   13  A    between atoms: C_26  and  O_27
REMARK   14  A    between atoms: O_27  and  C_28
REMARK                            x       y       z     vdW  Elec       q    Type
REMARK                         _______ _______ _______ _____ _____    ______ ____
ROOT
ATOM      1  C   UNL     1       7.568   7.802  17.747  0.00  0.00    +0.000 C 
ATOM      2  O   UNL     1       6.786   8.388  16.993  0.00  0.00    +0.000 OA
ATOM      3  N   UNL     1       7.488   6.459  18.078  0.00  0.00    +0.000 N 
ATOM      4  H   UNL     1       7.839   6.201  18.996  0.00  0.00    +0.000 HD
ENDROOT
BRANCH   3   5
ATOM      5  C   UNL     1       6.535   5.588  17.488  0.00  0.00    +0.000 A 
ATOM      6  C   UNL     1       5.396   5.208  18.232  0.00  0.00    +0.000 A 
ATOM      7  C   UNL     1       4.380   4.384  17.703  0.00  0.00    +0.000 A 
ATOM      8  C   UNL     1       4.532   3.974  16.371  0.00  0.00    +0.000 A 
ATOM      9  C   UNL     1       5.648   4.352  15.616  0.00  0.00    +0.000 A 
ATOM     10  C   UNL     1       6.654   5.153  16.163  0.00  0.00    +0.000 A 
BRANCH   7  11
ATOM     11  C   UNL     1       3.141   3.983  18.528  0.00  0.00    +0.000 C 
ATOM     12  C   UNL     1       3.099   2.448  18.672  0.00  0.00    +0.000 C 
ATOM     13  C   UNL     1       3.162   4.602  19.947  0.00  0.00    +0.000 C 
ATOM     14  C   UNL     1       1.816   4.445  17.878  0.00  0.00    +0.000 C 
ENDBRANCH   7  11
BRANCH  10  15
ATOM     15  O   UNL     1       7.662   5.451  15.287  0.00  0.00    +0.000 OA
ATOM     16  C   UNL     1       7.463   5.068  13.932  0.00  0.00    +0.000 C 
ENDBRANCH  10  15
ENDBRANCH   3   5
BRANCH   1  17
ATOM     17  C   UNL     1       8.700   8.567  18.436  0.00  0.00    +0.000 C 
BRANCH  17  18
ATOM     18  O   UNL     1       8.728   9.961  18.107  0.00  0.00    +0.000 OA
BRANCH  18  19
ATOM     19  C   UNL     1       9.339  10.733  19.039  0.00  0.00    +0.000 C 
ATOM     20  O   UNL     1       9.260  10.541  20.244  0.00  0.00    +0.000 OA
BRANCH  19  26
ATOM     21  C   UNL     1       9.456  13.053  18.118  0.00  0.00    +0.000 A 
ATOM     22  N   UNL     1      10.075  14.083  17.483  0.00  0.00    +0.000 NA
ATOM     23  C   UNL     1      11.353  13.897  17.096  0.00  0.00    +0.000 A 
ATOM     24  C   UNL     1      12.057  12.732  17.324  0.00  0.00    +0.000 A 
ATOM     25  C   UNL     1      11.414  11.688  17.991  0.00  0.00    +0.000 A 
ATOM     26  C   UNL     1      10.085  11.843  18.404  0.00  0.00    +0.000 A 
BRANCH  21  27
ATOM     27  O   UNL     1       8.170  13.267  18.565  0.00  0.00    +0.000 OA
BRANCH  27  29
ATOM     28  C   UNL     1       6.536  14.887  17.911  0.00  0.00    +0.000 C 
ATOM     29  C   UNL     1       7.276  13.625  17.508  0.00  0.00    +0.000 C 
ENDBRANCH  27  29
ENDBRANCH  21  27
ENDBRANCH  19  26
ENDBRANCH  18  19
ENDBRANCH  17  18
ENDBRANCH   1  17
TORSDOF 9
ENDMDL
MODEL 5
REMARK VINA RESULT:      -7.5      1.324      1.844
REMARK  Name = 
REMARK  14 active torsions:
REMARK  status: ('A' for Active; 'I' for Inactive)
REMARK    1  A    between atoms: C_1  and  C_2
REMARK    2  A    between atoms: C_2  and  O_3
REMARK    3  A    between atoms: O_3  and  C_4
REMARK    4  A    between atoms: C_9  and  C_10
REMARK    5  A    between atoms: C_10  and  O_12
REMARK    6  A    between atoms: O_12  and  C_13
REMARK    7  A    between atoms: C_13  and  C_14
REMARK    8  A    between atoms: N_16  and  C_17
REMARK    9  A    between atoms: C_19  and  C_20
REMARK   10  A    between atoms: C_20  and  C_21
REMARK   11  A    between atoms: C_20  and  C_22
REMARK   12  A    between atoms: C_20  and  C_23
REMARK   13  A    between atoms: C_26  and  O_27
REMARK   14  A    between atoms: O_27  and  C_28
REMARK                            x       y       z     vdW  Elec       q    Type
REMARK                         _______ _______ _______ _____ _____    ______ ____
ROOT
ATOM      1  C   UNL     1       7.946   8.026  17.817  0.00  0.00    +0.000 C 
ATOM      2  O   UNL     1       8.289   7.254  18.717  0.00  0.00    +0.000 OA
ATOM      3  N   UNL     1       6.977   7.749  16.866  0.00  0.00    +0.000 N 
ATOM      4  H   UNL     1       7.096   8.194  15.961  0.00  0.00    +0.000 HD
ENDROOT
BRANCH   3   5
ATOM      5  C   UNL     1       6.201   6.561  16.899  0.00  0.00    +0.000 A 
ATOM      6  C   UNL     1       5.042   6.517  17.705  0.00  0.00    +0.000 A 
ATOM      7  C   UNL     1       4.192   5.392  17.758  0.00  0.00    +0.000 A 
ATOM      8  C   UNL     1       4.533   4.307  16.938  0.00  0.00    +0.000 A 
ATOM      9  C   UNL     1       5.671   4.339  16.125  0.00  0.00    +0.000 A 
ATOM     10  C   UNL     1       6.511   5.455  16.100  0.00  0.00    +0.000 A 
BRANCH   7  11
ATOM     11  C   UNL     1       2.927   5.364  18.640  0.00  0.00    +0.000 C 
ATOM     12  C   UNL     1       1.775   4.701  17.858  0.00  0.00    +0.000 C 
ATOM     13  C   UNL     1       3.147   4.565  19.947  0.00  0.00    +0.000 C 
ATOM     14  C   UNL     1       2.470   6.777  19.072  0.00  0.00    +0.000 C 
ENDBRANCH   7  11
BRANCH  10  15
ATOM     15  O   UNL     1       7.565   5.335  15.236  0.00  0.00    +0.000 OA
ATOM     16  C   UNL     1       7.264   4.879  13.922  0.00  0.00    +0.000 C 
ENDBRANCH  10  15
ENDBRANCH   3   5
BRANCH   1  17
ATOM     17  C   UNL     1       8.633   9.384  17.655  0.00  0.00    +0.000 C 
BRANCH  17  18
ATOM     18  O   UNL     1       8.215  10.352  18.625  0.00  0.00    +0.000 OA
BRANCH  18  19
ATOM     19  C   UNL     1       9.230  10.861  19.367  0.00  0.00    +0.000 C 
ATOM     20  O   UNL     1       9.489  10.503  20.507  0.00  0.00    +0.000 OA
BRANCH  19  26
ATOM     21  C   UNL     1       9.428  13.196  18.502  0.00  0.00    +0.000 A 
ATOM     22  N   UNL     1      10.022  14.183  17.781  0.00  0.00    +0.000 NA
ATOM     23  C   UNL     1      11.167  13.880  17.136  0.00  0.00    +0.000 A 
ATOM     24  C   UNL     1      11.763  12.636  17.186  0.00  0.00    +0.000 A 
ATOM     25  C   UNL     1      11.150  11.636  17.943  0.00  0.00    +0.000 A 
ATOM     26  C   UNL     1       9.957  11.913  18.622  0.00  0.00    +0.000 A 
BRANCH  21  27
ATOM     27  O   UNL     1       8.290  13.526  19.207  0.00  0.00    +0.000 OA
BRANCH  27  29
ATOM     28  C   UNL     1       6.587  14.356  17.747  0.00  0.00    +0.000 C 
ATOM     29  C   UNL     1       7.681  14.728  18.731  0.00  0.00    +0.000 C 
ENDBRANCH  27  29
ENDBRANCH  21  27
ENDBRANCH  19  26
ENDBRANCH  18  19
ENDBRANCH  17  18
ENDBRANCH   1  17
TORSDOF 9
ENDMDL
MODEL 6
REMARK VINA RESULT:      -7.2      1.449      2.427
REMARK  Name = 
REMARK  14 active torsions:
REMARK  status: ('A' for Active; 'I' for Inactive)
REMARK    1  A    between atoms: C_1  and  C_2
REMARK    2  A    between atoms: C_2  and  O_3
REMARK    3  A    between atoms: O_3  and  C_4
REMARK    4  A    between atoms: C_9  and  C_10
REMARK    5  A    between atoms: C_10  and  O_12
REMARK    6  A    between atoms: O_12  and  C_13
REMARK    7  A    between atoms: C_13  and  C_14
REMARK    8  A    between atoms: N_16  and  C_17
REMARK    9  A    between atoms: C_19  and  C_20
REMARK   10  A    between atoms: C_20  and  C_21
REMARK   11  A    between atoms: C_20  and  C_22
REMARK   12  A    between atoms: C_20  and  C_23
REMARK   13  A    between atoms: C_26  and  O_27
REMARK   14  A    between atoms: O_27  and  C_28
REMARK                            x       y       z     vdW  Elec       q    Type
REMARK                         _______ _______ _______ _____ _____    ______ ____
ROOT
ATOM      1  C   UNL     1       7.860   7.736  17.737  0.00  0.00    +0.000 C 
ATOM      2  O   UNL     1       8.110   7.007  18.700  0.00  0.00    +0.000 OA
ATOM      3  N   UNL     1       6.941   7.443  16.742  0.00  0.00    +0.000 N 
ATOM      4  H   UNL     1       7.138   7.828  15.822  0.00  0.00    +0.000 HD
ENDROOT
BRANCH   3   5
ATOM      5  C   UNL     1       6.111   6.293  16.793  0.00  0.00    +0.000 A 
ATOM      6  C   UNL     1       4.935   6.327  17.575  0.00  0.00    +0.000 A 
ATOM      7  C   UNL     1       4.033   5.243  17.641  0.00  0.00    +0.000 A 
ATOM      8  C   UNL     1       4.340   4.120  16.860  0.00  0.00    +0.000 A 
ATOM      9  C   UNL     1       5.494   4.076  16.070  0.00  0.00    +0.000 A 
ATOM     10  C   UNL     1       6.386   5.152  16.032  0.00  0.00    +0.000 A 
BRANCH   7  11
ATOM     11  C   UNL     1       2.751   5.298  18.497  0.00  0.00    +0.000 C 
ATOM     12  C   UNL     1       3.058   4.764  19.911  0.00  0.00    +0.000 C 
ATOM     13  C   UNL     1       2.205   6.740  18.632  0.00  0.00    +0.000 C 
ATOM     14  C   UNL     1       1.599   4.456  17.900  0.00  0.00    +0.000 C 
ENDBRANCH   7  11
BRANCH  10  15
ATOM     15  O   UNL     1       7.450   4.959  15.194  0.00  0.00    +0.000 OA
ATOM     16  C   UNL     1       7.146   4.609  13.848  0.00  0.00    +0.000 C 
ENDBRANCH  10  15
ENDBRANCH   3   5
BRANCH   1  17
ATOM     17  C   UNL     1       8.618   9.052  17.543  0.00  0.00    +0.000 C 
BRANCH  17  18
ATOM     18  O   UNL     1       8.234  10.072  18.472  0.00  0.00    +0.000 OA
BRANCH  18  19
ATOM     19  C   UNL     1       8.566  11.327  18.080  0.00  0.00    +0.000 C 
ATOM     20  O   UNL     1       7.884  12.012  17.331  0.00  0.00    +0.000 OA
BRANCH  19  26
ATOM     21  C   UNL     1       9.925  12.380  19.892  0.00  0.00    +0.000 A 
ATOM     22  N   UNL     1      11.083  12.834  20.442  0.00  0.00    +0.000 NA
ATOM     23  C   UNL     1      12.217  12.665  19.732  0.00  0.00    +0.000 A 
ATOM     24  C   UNL     1      12.258  12.050  18.496  0.00  0.00    +0.000 A 
ATOM     25  C   UNL     1      11.064  11.577  17.951  0.00  0.00    +0.000 A 
ATOM     26  C   UNL     1       9.865  11.738  18.657  0.00  0.00    +0.000 A 
BRANCH  21  27
ATOM     27  O   UNL     1       8.777  12.501  20.646  0.00  0.00    +0.000 OA
BRANCH  27  29
ATOM     28  C   UNL     1       8.622  12.445  23.032  0.00  0.00    +0.000 C 
ATOM     29  C   UNL     1       8.765  11.616  21.769  0.00  0.00    +0.000 C 
ENDBRANCH  27  29
ENDBRANCH  21  27
ENDBRANCH  19  26
ENDBRANCH  18  19
ENDBRANCH  17  18
ENDBRANCH   1  17
TORSDOF 9
ENDMDL
MODEL 7
REMARK VINA RESULT:      -7.2      5.711      8.044
REMARK  Name = 
REMARK  14 active torsions:
REMARK  status: ('A' for Active; 'I' for Inactive)
REMARK    1  A    between atoms: C_1  and  C_2
REMARK    2  A    between atoms: C_2  and  O_3
REMARK    3  A    between atoms: O_3  and  C_4
REMARK    4  A    between atoms: C_9  and  C_10
REMARK    5  A    between atoms: C_10  and  O_12
REMARK    6  A    between atoms: O_12  and  C_13
REMARK    7  A    between atoms: C_13  and  C_14
REMARK    8  A    between atoms: N_16  and  C_17
REMARK    9  A    between atoms: C_19  and  C_20
REMARK   10  A    between atoms: C_20  and  C_21
REMARK   11  A    between atoms: C_20  and  C_22
REMARK   12  A    between atoms: C_20  and  C_23
REMARK   13  A    between atoms: C_26  and  O_27
REMARK   14  A    between atoms: O_27  and  C_28
REMARK                            x       y       z     vdW  Elec       q    Type
REMARK                         _______ _______ _______ _____ _____    ______ ____
ROOT
ATOM      1  C   UNL     1       2.120   7.570  19.755  0.00  0.00    +0.000 C 
ATOM      2  O   UNL     1       2.018   8.153  18.672  0.00  0.00    +0.000 OA
ATOM      3  N   UNL     1       2.646   6.299  19.921  0.00  0.00    +0.000 N 
ATOM      4  H   UNL     1       2.274   5.757  20.696  0.00  0.00    +0.000 HD
ENDROOT
BRANCH   3   5
ATOM      5  C   UNL     1       3.221   5.570  18.847  0.00  0.00    +0.000 A 
ATOM      6  C   UNL     1       4.552   5.845  18.463  0.00  0.00    +0.000 A 
ATOM      7  C   UNL     1       5.211   5.134  17.437  0.00  0.00    +0.000 A 
ATOM      8  C   UNL     1       4.488   4.102  16.822  0.00  0.00    +0.000 A 
ATOM      9  C   UNL     1       3.173   3.809  17.200  0.00  0.00    +0.000 A 
ATOM     10  C   UNL     1       2.530   4.536  18.205  0.00  0.00    +0.000 A 
BRANCH   7  11
ATOM     11  C   UNL     1       6.667   5.444  17.033  0.00  0.00    +0.000 C 
ATOM     12  C   UNL     1       6.858   5.134  15.535  0.00  0.00    +0.000 C 
ATOM     13  C   UNL     1       7.032   6.929  17.271  0.00  0.00    +0.000 C 
ATOM     14  C   UNL     1       7.697   4.615  17.835  0.00  0.00    +0.000 C 
ENDBRANCH   7  11
BRANCH  10  15
ATOM     15  O   UNL     1       1.258   4.109  18.470  0.00  0.00    +0.000 OA
ATOM     16  C   UNL     1       1.091   2.717  18.713  0.00  0.00    +0.000 C 
ENDBRANCH  10  15
ENDBRANCH   3   5
BRANCH   1  17
ATOM     17  C   UNL     1       1.605   8.224  21.040  0.00  0.00    +0.000 C 
BRANCH  17  18
ATOM     18  O   UNL     1       0.333   8.863  20.881  0.00  0.00    +0.000 OA
BRANCH  18  19
ATOM     19  C   UNL     1       0.395  10.218  20.877  0.00  0.00    +0.000 C 
ATOM     20  O   UNL     1       1.235  10.865  21.486  0.00  0.00    +0.000 OA
BRANCH  19  26
ATOM     21  C   UNL     1      -1.529  11.783  20.582  0.00  0.00    +0.000 A 
ATOM     22  N   UNL     1      -2.581  12.308  19.900  0.00  0.00    +0.000 NA
ATOM     23  C   UNL     1      -2.830  11.820  18.668  0.00  0.00    +0.000 A 
ATOM     24  C   UNL     1      -2.067  10.836  18.070  0.00  0.00    +0.000 A 
ATOM     25  C   UNL     1      -0.981  10.318  18.776  0.00  0.00    +0.000 A 
ATOM     26  C   UNL     1      -0.695  10.797  20.060  0.00  0.00    +0.000 A 
BRANCH  21  27
ATOM     27  O   UNL     1      -1.242  12.326  21.817  0.00  0.00    +0.000 OA
BRANCH  27  29
ATOM     28  C   UNL     1      -2.862  13.180  23.355  0.00  0.00    +0.000 C 
ATOM     29  C   UNL     1      -2.184  11.934  22.818  0.00  0.00    +0.000 C 
ENDBRANCH  27  29
ENDBRANCH  21  27
ENDBRANCH  19  26
ENDBRANCH  18  19
ENDBRANCH  17  18
ENDBRANCH   1  17
TORSDOF 9
ENDMDL
MODEL 8
REMARK VINA RESULT:      -7.2      5.800      7.687
REMARK  Name = 
REMARK  14 active torsions:
REMARK  status: ('A' for Active; 'I' for Inactive)
REMARK    1  A    between atoms: C_1  and  C_2
REMARK    2  A    between atoms: C_2  and  O_3
REMARK    3  A    between atoms: O_3  and  C_4
REMARK    4  A    between atoms: C_9  and  C_10
REMARK    5  A    between atoms: C_10  and  O_12
REMARK    6  A    between atoms: O_12  and  C_13
REMARK    7  A    between atoms: C_13  and  C_14
REMARK    8  A    between atoms: N_16  and  C_17
REMARK    9  A    between atoms: C_19  and  C_20
REMARK   10  A    between atoms: C_20  and  C_21
REMARK   11  A    between atoms: C_20  and  C_22
REMARK   12  A    between atoms: C_20  and  C_23
REMARK   13  A    between atoms: C_26  and  O_27
REMARK   14  A    between atoms: O_27  and  C_28
REMARK                            x       y       z     vdW  Elec       q    Type
REMARK                         _______ _______ _______ _____ _____    ______ ____
ROOT
ATOM      1  C   UNL     1       0.481   8.637  21.509  0.00  0.00    +0.000 C 
ATOM      2  O   UNL     1      -0.542   8.318  20.897  0.00  0.00    +0.000 OA
ATOM      3  N   UNL     1       1.730   8.072  21.309  0.00  0.00    +0.000 N 
ATOM      4  H   UNL     1       2.346   8.047  22.116  0.00  0.00    +0.000 HD
ENDROOT
BRANCH   3   5
ATOM      5  C   UNL     1       1.975   7.119  20.286  0.00  0.00    +0.000 A 
ATOM      6  C   UNL     1       1.835   5.744  20.578  0.00  0.00    +0.000 A 
ATOM      7  C   UNL     1       2.016   4.736  19.606  0.00  0.00    +0.000 A 
ATOM      8  C   UNL     1       2.315   5.163  18.304  0.00  0.00    +0.000 A 
ATOM      9  C   UNL     1       2.444   6.522  17.996  0.00  0.00    +0.000 A 
ATOM     10  C   UNL     1       2.281   7.505  18.976  0.00  0.00    +0.000 A 
BRANCH   7  11
ATOM     11  C   UNL     1       1.854   3.240  19.941  0.00  0.00    +0.000 C 
ATOM     12  C   UNL     1       0.792   2.620  19.011  0.00  0.00    +0.000 C 
ATOM     13  C   UNL     1       3.176   2.457  19.756  0.00  0.00    +0.000 C 
ATOM     14  C   UNL     1       1.415   3.000  21.405  0.00  0.00    +0.000 C 
ENDBRANCH   7  11
BRANCH  10  15
ATOM     15  O   UNL     1       2.416   8.783  18.506  0.00  0.00    +0.000 OA
ATOM     16  C   UNL     1       1.248   9.390  17.966  0.00  0.00    +0.000 C 
ENDBRANCH  10  15
ENDBRANCH   3   5
BRANCH   1  17
ATOM     17  C   UNL     1       0.425   9.693  22.616  0.00  0.00    +0.000 C 
BRANCH  17  18
ATOM     18  O   UNL     1      -0.829  10.383  22.680  0.00  0.00    +0.000 OA
BRANCH  18  19
ATOM     19  C   UNL     1      -0.735  11.716  22.450  0.00  0.00    +0.000 C 
ATOM     20  O   UNL     1      -0.719  12.562  23.333  0.00  0.00    +0.000 OA
BRANCH  19  26
ATOM     21  C   UNL     1       0.448  12.597  20.434  0.00  0.00    +0.000 A 
ATOM     22  N   UNL     1       0.532  12.938  19.120  0.00  0.00    +0.000 NA
ATOM     23  C   UNL     1      -0.548  12.703  18.347  0.00  0.00    +0.000 A 
ATOM     24  C   UNL     1      -1.712  12.129  18.817  0.00  0.00    +0.000 A 
ATOM     25  C   UNL     1      -1.778  11.771  20.164  0.00  0.00    +0.000 A 
ATOM     26  C   UNL     1      -0.678  12.003  20.999  0.00  0.00    +0.000 A 
BRANCH  21  27
ATOM     27  O   UNL     1       1.574  12.783  21.208  0.00  0.00    +0.000 OA
BRANCH  27  29
ATOM     28  C   UNL     1       3.569  14.102  21.221  0.00  0.00    +0.000 C 
ATOM     29  C   UNL     1       2.053  14.130  21.161  0.00  0.00    +0.000 C 
ENDBRANCH  27  29
ENDBRANCH  21  27
ENDBRANCH  19  26
ENDBRANCH  18  19
ENDBRANCH  17  18
ENDBRANCH   1  17
TORSDOF 9
ENDMDL
MODEL 9
REMARK VINA RESULT:      -7.2      5.604      7.787
REMARK  Name = 
REMARK  14 active torsions:
REMARK  status: ('A' for Active; 'I' for Inactive)
REMARK    1  A    between atoms: C_1  and  C_2
REMARK    2  A    between atoms: C_2  and  O_3
REMARK    3  A    between atoms: O_3  and  C_4
REMARK    4  A    between atoms: C_9  and  C_10
REMARK    5  A    between atoms: C_10  and  O_12
REMARK    6  A    between atoms: O_12  and  C_13
REMARK    7  A    between atoms: C_13  and  C_14
REMARK    8  A    between atoms: N_16  and  C_17
REMARK    9  A    between atoms: C_19  and  C_20
REMARK   10  A    between atoms: C_20  and  C_21
REMARK   11  A    between atoms: C_20  and  C_22
REMARK   12  A    between atoms: C_20  and  C_23
REMARK   13  A    between atoms: C_26  and  O_27
REMARK   14  A    between atoms: O_27  and  C_28
REMARK                            x       y       z     vdW  Elec       q    Type
REMARK                         _______ _______ _______ _____ _____    ______ ____
ROOT
ATOM      1  C   UNL     1       2.107   7.494  19.587  0.00  0.00    +0.000 C 
ATOM      2  O   UNL     1       1.996   8.063  18.497  0.00  0.00    +0.000 OA
ATOM      3  N   UNL     1       2.661   6.238  19.769  0.00  0.00    +0.000 N 
ATOM      4  H   UNL     1       2.299   5.696  20.549  0.00  0.00    +0.000 HD
ENDROOT
BRANCH   3   5
ATOM      5  C   UNL     1       3.256   5.510  18.705  0.00  0.00    +0.000 A 
ATOM      6  C   UNL     1       4.591   5.793  18.340  0.00  0.00    +0.000 A 
ATOM      7  C   UNL     1       5.270   5.084  17.326  0.00  0.00    +0.000 A 
ATOM      8  C   UNL     1       4.563   4.046  16.702  0.00  0.00    +0.000 A 
ATOM      9  C   UNL     1       3.245   3.746  17.061  0.00  0.00    +0.000 A 
ATOM     10  C   UNL     1       2.582   4.471  18.055  0.00  0.00    +0.000 A 
BRANCH   7  11
ATOM     11  C   UNL     1       6.730   5.403  16.943  0.00  0.00    +0.000 C 
ATOM     12  C   UNL     1       7.680   4.535  17.792  0.00  0.00    +0.000 C 
ATOM     13  C   UNL     1       7.015   5.114  15.449  0.00  0.00    +0.000 C 
ATOM     14  C   UNL     1       7.095   6.888  17.171  0.00  0.00    +0.000 C 
ENDBRANCH   7  11
BRANCH  10  15
ATOM     15  O   UNL     1       1.308   4.036  18.302  0.00  0.00    +0.000 OA
ATOM     16  C   UNL     1       1.178   2.747  18.890  0.00  0.00    +0.000 C 
ENDBRANCH  10  15
ENDBRANCH   3   5
BRANCH   1  17
ATOM     17  C   UNL     1       1.572   8.151  20.862  0.00  0.00    +0.000 C 
BRANCH  17  18
ATOM     18  O   UNL     1       1.035   9.461  20.645  0.00  0.00    +0.000 OA
BRANCH  18  19
ATOM     19  C   UNL     1      -0.088   9.720  21.359  0.00  0.00    +0.000 C 
ATOM     20  O   UNL     1      -0.584   8.940  22.160  0.00  0.00    +0.000 OA
BRANCH  19  26
ATOM     21  C   UNL     1      -1.305  11.266  19.820  0.00  0.00    +0.000 A 
ATOM     22  N   UNL     1      -1.776  12.481  19.433  0.00  0.00    +0.000 NA
ATOM     23  C   UNL     1      -1.554  13.525  20.257  0.00  0.00    +0.000 A 
ATOM     24  C   UNL     1      -0.893  13.416  21.464  0.00  0.00    +0.000 A 
ATOM     25  C   UNL     1      -0.428  12.160  21.855  0.00  0.00    +0.000 A 
ATOM     26  C   UNL     1      -0.636  11.053  21.023  0.00  0.00    +0.000 A 
BRANCH  21  27
ATOM     27  O   UNL     1      -1.585  10.190  19.004  0.00  0.00    +0.000 OA
BRANCH  27  29
ATOM     28  C   UNL     1      -2.655   9.853  16.892  0.00  0.00    +0.000 C 
ATOM     29  C   UNL     1      -1.501  10.521  17.616  0.00  0.00    +0.000 C 
ENDBRANCH  27  29
ENDBRANCH  21  27
ENDBRANCH  19  26
ENDBRANCH  18  19
ENDBRANCH  17  18
ENDBRANCH   1  17
TORSDOF 9
ENDMDL
