MODEL 1
REMARK VINA RESULT:      -6.7      0.000      0.000
REMARK  Name = 
REMARK  5 active torsions:
REMARK  status: ('A' for Active; 'I' for Inactive)
REMARK    1  A    between atoms: C_1  and  N_2
REMARK    2  A    between atoms: N_2  and  C_3
REMARK    3  A    between atoms: N_2  and  C_5
REMARK    4  A    between atoms: C_5  and  C_6
REMARK    5  A    between atoms: C_18  and  C_19
REMARK                            x       y       z     vdW  Elec       q    Type
REMARK                         _______ _______ _______ _____ _____    ______ ____
ROOT
ATOM      1  C   UNL     1      -3.061  13.141  20.620  0.00  0.00    +0.000 A 
ATOM      2  N   UNL     1      -4.265  12.679  20.337  0.00  0.00    +0.000 NA
ATOM      3  N   UNL     1      -4.188  11.931  19.204  0.00  0.00    +0.000 NA
ATOM      4  C   UNL     1      -2.945  11.963  18.781  0.00  0.00    +0.000 A 
ATOM      5  N   UNL     1      -2.180  12.744  19.622  0.00  0.00    +0.000 N 
ATOM      6  C   UNL     1      -0.811  13.058  19.418  0.00  0.00    +0.000 A 
ATOM      7  C   UNL     1      -0.328  14.328  19.775  0.00  0.00    +0.000 A 
ATOM      8  C   UNL     1       1.020  14.655  19.594  0.00  0.00    +0.000 A 
ATOM      9  C   UNL     1       1.881  13.743  19.001  0.00  0.00    +0.000 A 
ATOM     10 CL   UNL     1       3.541  14.135  18.799  0.00  0.00    +0.000 Cl
ATOM     11  C   UNL     1       1.408  12.504  18.583  0.00  0.00    +0.000 A 
ATOM     12  C   UNL     1       0.069  12.133  18.816  0.00  0.00    +0.000 A 
ATOM     13  C   UNL     1      -0.306  10.713  18.491  0.00  0.00    +0.000 C 
ATOM     14  N   UNL     1      -1.396  10.350  17.912  0.00  0.00    +0.000 NA
ATOM     15  C   UNL     1      -2.401  11.342  17.555  0.00  0.00    +0.000 C 
ENDROOT
BRANCH  13  16
ATOM     16  C   UNL     1       0.665   9.627  18.861  0.00  0.00    +0.000 A 
ATOM     17  C   UNL     1       1.476   9.019  17.895  0.00  0.00    +0.000 A 
ATOM     18  C   UNL     1       2.303   7.954  18.247  0.00  0.00    +0.000 A 
ATOM     19  C   UNL     1       2.351   7.515  19.570  0.00  0.00    +0.000 A 
ATOM     20  C   UNL     1       1.582   8.151  20.547  0.00  0.00    +0.000 A 
ATOM     21  C   UNL     1       0.743   9.209  20.196  0.00  0.00    +0.000 A 
ENDBRANCH  13  16
BRANCH   1  22
ATOM     22  C   UNL     1      -2.736  13.859  21.884  0.00  0.00    +0.000 C 
BRANCH  22  24
ATOM     23  C   UNL     1      -1.636  11.803  22.734  0.00  0.00    +0.000 C 
ATOM     24  N   UNL     1      -2.394  13.040  23.114  0.00  0.00    +0.000 N 
ATOM     25  C   UNL     1      -3.629  12.663  23.883  0.00  0.00    +0.000 C 
ATOM     26  O   UNL     1      -1.578  13.804  23.932  0.00  0.00    +0.000 OA
ENDBRANCH  22  24
ENDBRANCH   1  22
TORSDOF 3
ENDMDL
MODEL 2
REMARK VINA RESULT:      -6.5      7.785      9.671
REMARK  Name = 
REMARK  5 active torsions:
REMARK  status: ('A' for Active; 'I' for Inactive)
REMARK    1  A    between atoms: C_1  and  N_2
REMARK    2  A    between atoms: N_2  and  C_3
REMARK    3  A    between atoms: N_2  and  C_5
REMARK    4  A    between atoms: C_5  and  C_6
REMARK    5  A    between atoms: C_18  and  C_19
REMARK                            x       y       z     vdW  Elec       q    Type
REMARK                         _______ _______ _______ _____ _____    ______ ____
ROOT
ATOM      1  C   UNL     1       5.545  16.378  19.645  0.00  0.00    +0.000 A 
ATOM      2  N   UNL     1       5.729  17.532  19.031  0.00  0.00    +0.000 NA
ATOM      3  N   UNL     1       7.028  17.906  19.189  0.00  0.00    +0.000 NA
ATOM      4  C   UNL     1       7.625  16.996  19.925  0.00  0.00    +0.000 A 
ATOM      5  N   UNL     1       6.726  16.010  20.276  0.00  0.00    +0.000 N 
ATOM      6  C   UNL     1       7.016  14.916  21.133  0.00  0.00    +0.000 A 
ATOM      7  C   UNL     1       6.030  14.443  22.014  0.00  0.00    +0.000 A 
ATOM      8  C   UNL     1       6.289  13.358  22.858  0.00  0.00    +0.000 A 
ATOM      9  C   UNL     1       7.549  12.777  22.874  0.00  0.00    +0.000 A 
ATOM     10 CL   UNL     1       7.861  11.430  23.894  0.00  0.00    +0.000 Cl
ATOM     11  C   UNL     1       8.557  13.272  22.053  0.00  0.00    +0.000 A 
ATOM     12  C   UNL     1       8.296  14.321  21.151  0.00  0.00    +0.000 A 
ATOM     13  C   UNL     1       9.393  14.669  20.183  0.00  0.00    +0.000 C 
ATOM     14  N   UNL     1       9.738  15.865  19.856  0.00  0.00    +0.000 NA
ATOM     15  C   UNL     1       9.023  17.010  20.403  0.00  0.00    +0.000 C 
ENDROOT
BRANCH  13  16
ATOM     16  C   UNL     1      10.156  13.541  19.549  0.00  0.00    +0.000 A 
ATOM     17  C   UNL     1      11.451  13.212  19.971  0.00  0.00    +0.000 A 
ATOM     18  C   UNL     1      12.171  12.220  19.307  0.00  0.00    +0.000 A 
ATOM     19  C   UNL     1      11.590  11.529  18.244  0.00  0.00    +0.000 A 
ATOM     20  C   UNL     1      10.282  11.818  17.851  0.00  0.00    +0.000 A 
ATOM     21  C   UNL     1       9.562  12.819  18.505  0.00  0.00    +0.000 A 
ENDBRANCH  13  16
BRANCH   1  22
ATOM     22  C   UNL     1       4.288  15.586  19.539  0.00  0.00    +0.000 C 
BRANCH  22  24
ATOM     23  C   UNL     1       3.435  15.758  17.216  0.00  0.00    +0.000 C 
ATOM     24  N   UNL     1       4.012  14.838  18.249  0.00  0.00    +0.000 N 
ATOM     25  C   UNL     1       3.079  13.680  18.476  0.00  0.00    +0.000 C 
ATOM     26  O   UNL     1       5.213  14.351  17.762  0.00  0.00    +0.000 OA
ENDBRANCH  22  24
ENDBRANCH   1  22
TORSDOF 3
ENDMDL
MODEL 3
REMARK VINA RESULT:      -6.5      0.814      1.393
REMARK  Name = 
REMARK  5 active torsions:
REMARK  status: ('A' for Active; 'I' for Inactive)
REMARK    1  A    between atoms: C_1  and  N_2
REMARK    2  A    between atoms: N_2  and  C_3
REMARK    3  A    between atoms: N_2  and  C_5
REMARK    4  A    between atoms: C_5  and  C_6
REMARK    5  A    between atoms: C_18  and  C_19
REMARK                            x       y       z     vdW  Elec       q    Type
REMARK                         _______ _______ _______ _____ _____    ______ ____
ROOT
ATOM      1  C   UNL     1      -3.551  13.030  20.455  0.00  0.00    +0.000 A 
ATOM      2  N   UNL     1      -4.719  12.540  20.086  0.00  0.00    +0.000 NA
ATOM      3  N   UNL     1      -4.543  11.799  18.958  0.00  0.00    +0.000 NA
ATOM      4  C   UNL     1      -3.275  11.865  18.624  0.00  0.00    +0.000 A 
ATOM      5  N   UNL     1      -2.592  12.661  19.520  0.00  0.00    +0.000 N 
ATOM      6  C   UNL     1      -1.220  13.011  19.413  0.00  0.00    +0.000 A 
ATOM      7  C   UNL     1      -0.796  14.290  19.808  0.00  0.00    +0.000 A 
ATOM      8  C   UNL     1       0.552  14.652  19.724  0.00  0.00    +0.000 A 
ATOM      9  C   UNL     1       1.476  13.766  19.190  0.00  0.00    +0.000 A 
ATOM     10 CL   UNL     1       3.136  14.201  19.107  0.00  0.00    +0.000 Cl
ATOM     11  C   UNL     1       1.065  12.517  18.736  0.00  0.00    +0.000 A 
ATOM     12  C   UNL     1      -0.277  12.111  18.872  0.00  0.00    +0.000 A 
ATOM     13  C   UNL     1      -0.591  10.684  18.517  0.00  0.00    +0.000 C 
ATOM     14  N   UNL     1      -1.628  10.297  17.861  0.00  0.00    +0.000 NA
ATOM     15  C   UNL     1      -2.631  11.265  17.437  0.00  0.00    +0.000 C 
ENDROOT
BRANCH  13  16
ATOM     16  C   UNL     1       0.379   9.621  18.950  0.00  0.00    +0.000 A 
ATOM     17  C   UNL     1       0.472   9.226  20.290  0.00  0.00    +0.000 A 
ATOM     18  C   UNL     1       1.441   8.302  20.680  0.00  0.00    +0.000 A 
ATOM     19  C   UNL     1       2.295   7.743  19.730  0.00  0.00    +0.000 A 
ATOM     20  C   UNL     1       2.173   8.096  18.385  0.00  0.00    +0.000 A 
ATOM     21  C   UNL     1       1.214   9.030  17.992  0.00  0.00    +0.000 A 
ENDBRANCH  13  16
BRANCH   1  22
ATOM     22  C   UNL     1      -3.333  13.749  21.741  0.00  0.00    +0.000 C 
BRANCH  22  24
ATOM     23  C   UNL     1      -2.989  13.830  24.197  0.00  0.00    +0.000 C 
ATOM     24  N   UNL     1      -3.211  12.935  23.014  0.00  0.00    +0.000 N 
ATOM     25  C   UNL     1      -2.094  11.933  22.918  0.00  0.00    +0.000 C 
ATOM     26  O   UNL     1      -4.401  12.255  23.213  0.00  0.00    +0.000 OA
ENDBRANCH  22  24
ENDBRANCH   1  22
TORSDOF 3
ENDMDL
MODEL 4
REMARK VINA RESULT:      -6.4      1.195      1.402
REMARK  Name = 
REMARK  5 active torsions:
REMARK  status: ('A' for Active; 'I' for Inactive)
REMARK    1  A    between atoms: C_1  and  N_2
REMARK    2  A    between atoms: N_2  and  C_3
REMARK    3  A    between atoms: N_2  and  C_5
REMARK    4  A    between atoms: C_5  and  C_6
REMARK    5  A    between atoms: C_18  and  C_19
REMARK                            x       y       z     vdW  Elec       q    Type
REMARK                         _______ _______ _______ _____ _____    ______ ____
ROOT
ATOM      1  C   UNL     1      -4.099  13.085  20.900  0.00  0.00    +0.000 A 
ATOM      2  N   UNL     1      -5.231  12.535  20.502  0.00  0.00    +0.000 NA
ATOM      3  N   UNL     1      -4.998  11.843  19.354  0.00  0.00    +0.000 NA
ATOM      4  C   UNL     1      -3.732  11.997  19.038  0.00  0.00    +0.000 A 
ATOM      5  N   UNL     1      -3.109  12.805  19.966  0.00  0.00    +0.000 N 
ATOM      6  C   UNL     1      -1.760  13.241  19.887  0.00  0.00    +0.000 A 
ATOM      7  C   UNL     1      -1.421  14.532  20.327  0.00  0.00    +0.000 A 
ATOM      8  C   UNL     1      -0.097  14.978  20.270  0.00  0.00    +0.000 A 
ATOM      9  C   UNL     1       0.886  14.168  19.721  0.00  0.00    +0.000 A 
ATOM     10 CL   UNL     1       2.516  14.706  19.671  0.00  0.00    +0.000 Cl
ATOM     11  C   UNL     1       0.558  12.911  19.223  0.00  0.00    +0.000 A 
ATOM     12  C   UNL     1      -0.758  12.419  19.331  0.00  0.00    +0.000 A 
ATOM     13  C   UNL     1      -0.980  10.987  18.927  0.00  0.00    +0.000 C 
ATOM     14  N   UNL     1      -1.984  10.558  18.247  0.00  0.00    +0.000 NA
ATOM     15  C   UNL     1      -3.040  11.475  17.841  0.00  0.00    +0.000 C 
ENDROOT
BRANCH  13  16
ATOM     16  C   UNL     1       0.049   9.973  19.339  0.00  0.00    +0.000 A 
ATOM     17  C   UNL     1       0.988   9.477  18.425  0.00  0.00    +0.000 A 
ATOM     18  C   UNL     1       1.874   8.472  18.809  0.00  0.00    +0.000 A 
ATOM     19  C   UNL     1       1.851   7.983  20.115  0.00  0.00    +0.000 A 
ATOM     20  C   UNL     1       0.952   8.509  21.045  0.00  0.00    +0.000 A 
ATOM     21  C   UNL     1       0.055   9.506  20.660  0.00  0.00    +0.000 A 
ENDBRANCH  13  16
BRANCH   1  22
ATOM     22  C   UNL     1      -3.940  13.775  22.210  0.00  0.00    +0.000 C 
BRANCH  22  24
ATOM     23  C   UNL     1      -3.449  13.805  24.642  0.00  0.00    +0.000 C 
ATOM     24  N   UNL     1      -3.698  12.933  23.448  0.00  0.00    +0.000 N 
ATOM     25  C   UNL     1      -2.541  11.993  23.254  0.00  0.00    +0.000 C 
ATOM     26  O   UNL     1      -4.839  12.187  23.697  0.00  0.00    +0.000 OA
ENDBRANCH  22  24
ENDBRANCH   1  22
TORSDOF 3
ENDMDL
MODEL 5
REMARK VINA RESULT:      -6.4      2.637      4.185
REMARK  Name = 
REMARK  5 active torsions:
REMARK  status: ('A' for Active; 'I' for Inactive)
REMARK    1  A    between atoms: C_1  and  N_2
REMARK    2  A    between atoms: N_2  and  C_3
REMARK    3  A    between atoms: N_2  and  C_5
REMARK    4  A    between atoms: C_5  and  C_6
REMARK    5  A    between atoms: C_18  and  C_19
REMARK                            x       y       z     vdW  Elec       q    Type
REMARK                         _______ _______ _______ _____ _____    ______ ____
ROOT
ATOM      1  C   UNL     1      -0.677  13.911  21.197  0.00  0.00    +0.000 A 
ATOM      2  N   UNL     1      -0.344  14.129  22.456  0.00  0.00    +0.000 NA
ATOM      3  N   UNL     1      -0.314  12.937  23.110  0.00  0.00    +0.000 NA
ATOM      4  C   UNL     1      -0.658  11.998  22.259  0.00  0.00    +0.000 A 
ATOM      5  N   UNL     1      -0.933  12.556  21.027  0.00  0.00    +0.000 N 
ATOM      6  C   UNL     1      -1.410  11.839  19.899  0.00  0.00    +0.000 A 
ATOM      7  C   UNL     1      -2.332  12.444  19.029  0.00  0.00    +0.000 A 
ATOM      8  C   UNL     1      -2.806  11.760  17.905  0.00  0.00    +0.000 A 
ATOM      9  C   UNL     1      -2.412  10.451  17.672  0.00  0.00    +0.000 A 
ATOM     10 CL   UNL     1      -2.975   9.619  16.279  0.00  0.00    +0.000 Cl
ATOM     11  C   UNL     1      -1.547   9.814  18.556  0.00  0.00    +0.000 A 
ATOM     12  C   UNL     1      -1.010  10.507  19.657  0.00  0.00    +0.000 A 
ATOM     13  C   UNL     1       0.049   9.795  20.454  0.00  0.00    +0.000 C 
ATOM     14  N   UNL     1       0.133   9.794  21.738  0.00  0.00    +0.000 NA
ATOM     15  C   UNL     1      -0.820  10.555  22.535  0.00  0.00    +0.000 C 
ENDROOT
BRANCH  13  16
ATOM     16  C   UNL     1       1.089   9.015  19.701  0.00  0.00    +0.000 A 
ATOM     17  C   UNL     1       1.551   9.439  18.449  0.00  0.00    +0.000 A 
ATOM     18  C   UNL     1       2.450   8.652  17.732  0.00  0.00    +0.000 A 
ATOM     19  C   UNL     1       2.920   7.457  18.277  0.00  0.00    +0.000 A 
ATOM     20  C   UNL     1       2.503   7.054  19.547  0.00  0.00    +0.000 A 
ATOM     21  C   UNL     1       1.593   7.833  20.262  0.00  0.00    +0.000 A 
ENDBRANCH  13  16
BRANCH   1  22
ATOM     22  C   UNL     1      -0.642  14.966  20.147  0.00  0.00    +0.000 C 
BRANCH  22  24
ATOM     23  C   UNL     1       0.549  16.483  18.586  0.00  0.00    +0.000 C 
ATOM     24  N   UNL     1       0.690  15.309  19.509  0.00  0.00    +0.000 N 
ATOM     25  C   UNL     1       1.255  14.137  18.756  0.00  0.00    +0.000 C 
ATOM     26  O   UNL     1       1.576  15.662  20.513  0.00  0.00    +0.000 OA
ENDBRANCH  22  24
ENDBRANCH   1  22
TORSDOF 3
ENDMDL
MODEL 6
REMARK VINA RESULT:      -6.4      8.017     10.725
REMARK  Name = 
REMARK  5 active torsions:
REMARK  status: ('A' for Active; 'I' for Inactive)
REMARK    1  A    between atoms: C_1  and  N_2
REMARK    2  A    between atoms: N_2  and  C_3
REMARK    3  A    between atoms: N_2  and  C_5
REMARK    4  A    between atoms: C_5  and  C_6
REMARK    5  A    between atoms: C_18  and  C_19
REMARK                            x       y       z     vdW  Elec       q    Type
REMARK                         _______ _______ _______ _____ _____    ______ ____
ROOT
ATOM      1  C   UNL     1       6.647   5.111  15.819  0.00  0.00    +0.000 A 
ATOM      2  N   UNL     1       7.785   4.474  16.024  0.00  0.00    +0.000 NA
ATOM      3  N   UNL     1       7.962   4.322  17.365  0.00  0.00    +0.000 NA
ATOM      4  C   UNL     1       6.948   4.894  17.975  0.00  0.00    +0.000 A 
ATOM      5  N   UNL     1       6.089   5.444  17.046  0.00  0.00    +0.000 N 
ATOM      6  C   UNL     1       4.932   6.205  17.362  0.00  0.00    +0.000 A 
ATOM      7  C   UNL     1       4.573   7.292  16.548  0.00  0.00    +0.000 A 
ATOM      8  C   UNL     1       3.431   8.048  16.833  0.00  0.00    +0.000 A 
ATOM      9  C   UNL     1       2.675   7.765  17.960  0.00  0.00    +0.000 A 
ATOM     10 CL   UNL     1       1.259   8.678  18.298  0.00  0.00    +0.000 Cl
ATOM     11  C   UNL     1       3.050   6.731  18.812  0.00  0.00    +0.000 A 
ATOM     12  C   UNL     1       4.159   5.919  18.507  0.00  0.00    +0.000 A 
ATOM     13  C   UNL     1       4.383   4.720  19.388  0.00  0.00    +0.000 C 
ATOM     14  N   UNL     1       5.528   4.325  19.822  0.00  0.00    +0.000 NA
ATOM     15  C   UNL     1       6.742   5.029  19.432  0.00  0.00    +0.000 C 
ENDROOT
BRANCH  13  16
ATOM     16  C   UNL     1       3.182   3.921  19.806  0.00  0.00    +0.000 A 
ATOM     17  C   UNL     1       2.445   3.176  18.876  0.00  0.00    +0.000 A 
ATOM     18  C   UNL     1       1.284   2.514  19.273  0.00  0.00    +0.000 A 
ATOM     19  C   UNL     1       0.873   2.564  20.605  0.00  0.00    +0.000 A 
ATOM     20  C   UNL     1       1.630   3.263  21.547  0.00  0.00    +0.000 A 
ATOM     21  C   UNL     1       2.786   3.937  21.151  0.00  0.00    +0.000 A 
ENDBRANCH  13  16
BRANCH   1  22
ATOM     22  C   UNL     1       6.047   5.301  14.468  0.00  0.00    +0.000 C 
BRANCH  22  24
ATOM     23  C   UNL     1       7.310   4.346  12.558  0.00  0.00    +0.000 C 
ATOM     24  N   UNL     1       6.134   4.162  13.471  0.00  0.00    +0.000 N 
ATOM     25  C   UNL     1       4.874   4.047  12.660  0.00  0.00    +0.000 C 
ATOM     26  O   UNL     1       6.320   2.983  14.172  0.00  0.00    +0.000 OA
ENDBRANCH  22  24
ENDBRANCH   1  22
TORSDOF 3
ENDMDL
MODEL 7
REMARK VINA RESULT:      -6.3      4.446      6.396
REMARK  Name = 
REMARK  5 active torsions:
REMARK  status: ('A' for Active; 'I' for Inactive)
REMARK    1  A    between atoms: C_1  and  N_2
REMARK    2  A    between atoms: N_2  and  C_3
REMARK    3  A    between atoms: N_2  and  C_5
REMARK    4  A    between atoms: C_5  and  C_6
REMARK    5  A    between atoms: C_18  and  C_19
REMARK                            x       y       z     vdW  Elec       q    Type
REMARK                         _______ _______ _______ _____ _____    ______ ____
ROOT
ATOM      1  C   UNL     1      -7.388  13.085  22.714  0.00  0.00    +0.000 A 
ATOM      2  N   UNL     1      -7.622  12.057  23.508  0.00  0.00    +0.000 NA
ATOM      3  N   UNL     1      -7.763  10.941  22.743  0.00  0.00    +0.000 NA
ATOM      4  C   UNL     1      -7.645  11.295  21.484  0.00  0.00    +0.000 A 
ATOM      5  N   UNL     1      -7.436  12.656  21.394  0.00  0.00    +0.000 N 
ATOM      6  C   UNL     1      -7.343  13.385  20.179  0.00  0.00    +0.000 A 
ATOM      7  C   UNL     1      -7.875  14.683  20.106  0.00  0.00    +0.000 A 
ATOM      8  C   UNL     1      -7.784  15.424  18.923  0.00  0.00    +0.000 A 
ATOM      9  C   UNL     1      -7.220  14.857  17.791  0.00  0.00    +0.000 A 
ATOM     10 CL   UNL     1      -7.087  15.774  16.344  0.00  0.00    +0.000 Cl
ATOM     11  C   UNL     1      -6.744  13.550  17.826  0.00  0.00    +0.000 A 
ATOM     12  C   UNL     1      -6.769  12.812  19.025  0.00  0.00    +0.000 A 
ATOM     13  C   UNL     1      -6.075  11.477  19.012  0.00  0.00    +0.000 C 
ATOM     14  N   UNL     1      -6.527  10.403  19.558  0.00  0.00    +0.000 NA
ATOM     15  C   UNL     1      -7.783  10.429  20.294  0.00  0.00    +0.000 C 
ENDROOT
BRANCH  13  16
ATOM     16  C   UNL     1      -4.755  11.378  18.301  0.00  0.00    +0.000 A 
ATOM     17  C   UNL     1      -3.565  11.788  18.917  0.00  0.00    +0.000 A 
ATOM     18  C   UNL     1      -2.367  11.768  18.205  0.00  0.00    +0.000 A 
ATOM     19  C   UNL     1      -2.344  11.307  16.889  0.00  0.00    +0.000 A 
ATOM     20  C   UNL     1      -3.518  10.849  16.287  0.00  0.00    +0.000 A 
ATOM     21  C   UNL     1      -4.722  10.879  16.992  0.00  0.00    +0.000 A 
ENDBRANCH  13  16
BRANCH   1  22
ATOM     22  C   UNL     1      -7.014  14.438  23.215  0.00  0.00    +0.000 C 
BRANCH  22  24
ATOM     23  C   UNL     1      -5.381  15.996  24.244  0.00  0.00    +0.000 C 
ATOM     24  N   UNL     1      -5.545  14.751  23.425  0.00  0.00    +0.000 N 
ATOM     25  C   UNL     1      -4.825  14.907  22.114  0.00  0.00    +0.000 C 
ATOM     26  O   UNL     1      -4.972  13.703  24.125  0.00  0.00    +0.000 OA
ENDBRANCH  22  24
ENDBRANCH   1  22
TORSDOF 3
ENDMDL
MODEL 8
REMARK VINA RESULT:      -6.3      2.977      6.363
REMARK  Name = 
REMARK  5 active torsions:
REMARK  status: ('A' for Active; 'I' for Inactive)
REMARK    1  A    between atoms: C_1  and  N_2
REMARK    2  A    between atoms: N_2  and  C_3
REMARK    3  A    between atoms: N_2  and  C_5
REMARK    4  A    between atoms: C_5  and  C_6
REMARK    5  A    between atoms: C_18  and  C_19
REMARK                            x       y       z     vdW  Elec       q    Type
REMARK                         _______ _______ _______ _____ _____    ______ ____
ROOT
ATOM      1  C   UNL     1       0.802  11.580  20.612  0.00  0.00    +0.000 A 
ATOM      2  N   UNL     1       1.748  12.300  21.186  0.00  0.00    +0.000 NA
ATOM      3  N   UNL     1       1.239  13.526  21.487  0.00  0.00    +0.000 NA
ATOM      4  C   UNL     1      -0.005  13.562  21.068  0.00  0.00    +0.000 A 
ATOM      5  N   UNL     1      -0.337  12.363  20.472  0.00  0.00    +0.000 N 
ATOM      6  C   UNL     1      -1.578  12.087  19.840  0.00  0.00    +0.000 A 
ATOM      7  C   UNL     1      -1.608  11.281  18.690  0.00  0.00    +0.000 A 
ATOM      8  C   UNL     1      -2.821  10.986  18.058  0.00  0.00    +0.000 A 
ATOM      9  C   UNL     1      -4.002  11.539  18.530  0.00  0.00    +0.000 A 
ATOM     10 CL   UNL     1      -5.494  11.158  17.769  0.00  0.00    +0.000 Cl
ATOM     11  C   UNL     1      -3.984  12.390  19.631  0.00  0.00    +0.000 A 
ATOM     12  C   UNL     1      -2.782  12.647  20.318  0.00  0.00    +0.000 A 
ATOM     13  C   UNL     1      -2.889  13.433  21.596  0.00  0.00    +0.000 C 
ATOM     14  N   UNL     1      -2.081  14.368  21.958  0.00  0.00    +0.000 NA
ATOM     15  C   UNL     1      -0.935  14.709  21.127  0.00  0.00    +0.000 C 
ENDROOT
BRANCH  13  16
ATOM     16  C   UNL     1      -4.026  13.116  22.524  0.00  0.00    +0.000 A 
ATOM     17  C   UNL     1      -5.347  13.444  22.193  0.00  0.00    +0.000 A 
ATOM     18  C   UNL     1      -6.373  13.220  23.110  0.00  0.00    +0.000 A 
ATOM     19  C   UNL     1      -6.091  12.636  24.345  0.00  0.00    +0.000 A 
ATOM     20  C   UNL     1      -4.784  12.262  24.660  0.00  0.00    +0.000 A 
ATOM     21  C   UNL     1      -3.752  12.496  23.751  0.00  0.00    +0.000 A 
ENDBRANCH  13  16
BRANCH   1  22
ATOM     22  C   UNL     1       0.950  10.131  20.302  0.00  0.00    +0.000 C 
BRANCH  22  24
ATOM     23  C   UNL     1       1.417   7.805  21.027  0.00  0.00    +0.000 C 
ATOM     24  N   UNL     1       0.861   9.135  21.442  0.00  0.00    +0.000 N 
ATOM     25  C   UNL     1      -0.556   8.968  21.916  0.00  0.00    +0.000 C 
ATOM     26  O   UNL     1       1.629   9.607  22.494  0.00  0.00    +0.000 OA
ENDBRANCH  22  24
ENDBRANCH   1  22
TORSDOF 3
ENDMDL
MODEL 9
REMARK VINA RESULT:      -6.3      4.490      6.476
REMARK  Name = 
REMARK  5 active torsions:
REMARK  status: ('A' for Active; 'I' for Inactive)
REMARK    1  A    between atoms: C_1  and  N_2
REMARK    2  A    between atoms: N_2  and  C_3
REMARK    3  A    between atoms: N_2  and  C_5
REMARK    4  A    between atoms: C_5  and  C_6
REMARK    5  A    between atoms: C_18  and  C_19
REMARK                            x       y       z     vdW  Elec       q    Type
REMARK                         _______ _______ _______ _____ _____    ______ ____
ROOT
ATOM      1  C   UNL     1      -6.862  14.050  23.463  0.00  0.00    +0.000 A 
ATOM      2  N   UNL     1      -7.117  13.116  24.360  0.00  0.00    +0.000 NA
ATOM      3  N   UNL     1      -7.465  11.973  23.710  0.00  0.00    +0.000 NA
ATOM      4  C   UNL     1      -7.454  12.220  22.420  0.00  0.00    +0.000 A 
ATOM      5  N   UNL     1      -7.108  13.536  22.195  0.00  0.00    +0.000 N 
ATOM      6  C   UNL     1      -7.075  14.161  20.921  0.00  0.00    +0.000 A 
ATOM      7  C   UNL     1      -7.465  15.504  20.795  0.00  0.00    +0.000 A 
ATOM      8  C   UNL     1      -7.430  16.144  19.552  0.00  0.00    +0.000 A 
ATOM      9  C   UNL     1      -7.064  15.434  18.418  0.00  0.00    +0.000 A 
ATOM     10 CL   UNL     1      -6.997  16.224  16.894  0.00  0.00    +0.000 Cl
ATOM     11  C   UNL     1      -6.734  14.086  18.512  0.00  0.00    +0.000 A 
ATOM     12  C   UNL     1      -6.702  13.443  19.765  0.00  0.00    +0.000 A 
ATOM     13  C   UNL     1      -6.165  12.038  19.790  0.00  0.00    +0.000 C 
ATOM     14  N   UNL     1      -6.667  11.067  20.470  0.00  0.00    +0.000 NA
ATOM     15  C   UNL     1      -7.821  11.294  21.329  0.00  0.00    +0.000 C 
ENDROOT
BRANCH  13  16
ATOM     16  C   UNL     1      -4.954  11.733  18.956  0.00  0.00    +0.000 A 
ATOM     17  C   UNL     1      -3.667  12.075  19.390  0.00  0.00    +0.000 A 
ATOM     18  C   UNL     1      -2.569  11.861  18.559  0.00  0.00    +0.000 A 
ATOM     19  C   UNL     1      -2.745  11.274  17.307  0.00  0.00    +0.000 A 
ATOM     20  C   UNL     1      -4.019  10.884  16.889  0.00  0.00    +0.000 A 
ATOM     21  C   UNL     1      -5.123  11.108  17.713  0.00  0.00    +0.000 A 
ENDBRANCH  13  16
BRANCH   1  22
ATOM     22  C   UNL     1      -6.288  15.381  23.806  0.00  0.00    +0.000 C 
BRANCH  22  24
ATOM     23  C   UNL     1      -4.224  16.253  24.871  0.00  0.00    +0.000 C 
ATOM     24  N   UNL     1      -4.793  15.584  23.655  0.00  0.00    +0.000 N 
ATOM     25  C   UNL     1      -4.471  16.396  22.431  0.00  0.00    +0.000 C 
ATOM     26  O   UNL     1      -4.194  14.341  23.534  0.00  0.00    +0.000 OA
ENDBRANCH  22  24
ENDBRANCH   1  22
TORSDOF 3
ENDMDL
