MODEL 1
REMARK VINA RESULT:      -8.1      0.000      0.000
REMARK  Name = 
REMARK  6 active torsions:
REMARK  status: ('A' for Active; 'I' for Inactive)
REMARK    1  A    between atoms: C_1  and  C_2
REMARK    2  A    between atoms: C_6  and  C_7
REMARK    3  A    between atoms: C_8  and  N_9
REMARK    4  A    between atoms: C_10  and  C_12
REMARK    5  A    between atoms: C_12  and  N_13
REMARK    6  A    between atoms: N_19  and  C_20
REMARK                            x       y       z     vdW  Elec       q    Type
REMARK                         _______ _______ _______ _____ _____    ______ ____
ROOT
ATOM      1  N   UNL     1      -0.181  10.748  19.399  0.00  0.00    +0.000 N 
ATOM      2  N   UNL     1      -0.798  10.367  20.600  0.00  0.00    +0.000 NA
ATOM      3  N   UNL     1      -0.109   9.452  21.146  0.00  0.00    +0.000 NA
ATOM      4  C   UNL     1       1.113   9.295  20.361  0.00  0.00    +0.000 C 
ATOM      5  C   UNL     1       1.687   7.948  20.159  0.00  0.00    +0.000 C 
ATOM      6  O   UNL     1       1.809   7.110  21.039  0.00  0.00    +0.000 OA
ATOM      7  N   UNL     1       2.158   7.948  18.844  0.00  0.00    +0.000 N 
ATOM      8  C   UNL     1       1.805   9.145  18.203  0.00  0.00    +0.000 C 
ATOM      9  O   UNL     1       2.209   9.646  17.172  0.00  0.00    +0.000 OA
ATOM     10  C   UNL     1       0.595   9.603  18.995  0.00  0.00    +0.000 C 
ENDROOT
BRANCH   7  11
ATOM     11  C   UNL     1       2.780   6.828  18.221  0.00  0.00    +0.000 A 
ATOM     12  C   UNL     1       4.066   6.964  17.660  0.00  0.00    +0.000 A 
ATOM     13  C   UNL     1       4.762   5.873  17.141  0.00  0.00    +0.000 A 
ATOM     14  C   UNL     1       4.173   4.615  17.146  0.00  0.00    +0.000 A 
ATOM     15  C   UNL     1       2.894   4.463  17.672  0.00  0.00    +0.000 A 
ATOM     16 CL   UNL     1       2.160   2.905  17.658  0.00  0.00    +0.000 Cl
ATOM     17  C   UNL     1       2.200   5.553  18.217  0.00  0.00    +0.000 A 
ENDBRANCH   7  11
BRANCH   1  18
ATOM     18  C   UNL     1      -0.986  11.505  18.438  0.00  0.00    +0.000 C 
BRANCH  18  20
ATOM     19  N   UNL     1      -3.219  12.332  19.048  0.00  0.00    +0.000 N 
ATOM     20  C   UNL     1      -2.513  11.264  18.517  0.00  0.00    +0.000 C 
ATOM     21  O   UNL     1      -2.994  10.187  18.176  0.00  0.00    +0.000 OA
ATOM     22  H   UNL     1      -2.629  12.934  19.616  0.00  0.00    +0.000 HD
BRANCH  19  30
ATOM     23  C   UNL     1      -5.288  12.149  16.911  0.00  0.00    +0.000 C 
ATOM     24  C   UNL     1      -5.590  12.234  18.381  0.00  0.00    +0.000 A 
ATOM     25  C   UNL     1      -6.941  12.276  18.770  0.00  0.00    +0.000 A 
ATOM     26  C   UNL     1      -7.300  12.434  20.105  0.00  0.00    +0.000 A 
ATOM     27  C   UNL     1      -6.314  12.548  21.078  0.00  0.00    +0.000 A 
ATOM     28  C   UNL     1      -4.956  12.499  20.729  0.00  0.00    +0.000 A 
ATOM     29  C   UNL     1      -3.935  12.573  21.835  0.00  0.00    +0.000 C 
ATOM     30  C   UNL     1      -4.591  12.319  19.374  0.00  0.00    +0.000 A 
ENDBRANCH  19  30
ENDBRANCH  18  20
ENDBRANCH   1  18
TORSDOF 4
ENDMDL
MODEL 2
REMARK VINA RESULT:      -8.1      1.133      1.471
REMARK  Name = 
REMARK  6 active torsions:
REMARK  status: ('A' for Active; 'I' for Inactive)
REMARK    1  A    between atoms: C_1  and  C_2
REMARK    2  A    between atoms: C_6  and  C_7
REMARK    3  A    between atoms: C_8  and  N_9
REMARK    4  A    between atoms: C_10  and  C_12
REMARK    5  A    between atoms: C_12  and  N_13
REMARK    6  A    between atoms: N_19  and  C_20
REMARK                            x       y       z     vdW  Elec       q    Type
REMARK                         _______ _______ _______ _____ _____    ______ ____
ROOT
ATOM      1  N   UNL     1       0.272  10.284  19.464  0.00  0.00    +0.000 N 
ATOM      2  N   UNL     1      -0.391   9.977  20.661  0.00  0.00    +0.000 NA
ATOM      3  N   UNL     1       0.197   9.001  21.219  0.00  0.00    +0.000 NA
ATOM      4  C   UNL     1       1.403   8.714  20.447  0.00  0.00    +0.000 C 
ATOM      5  C   UNL     1       1.838   7.315  20.258  0.00  0.00    +0.000 C 
ATOM      6  O   UNL     1       1.867   6.475  21.145  0.00  0.00    +0.000 OA
ATOM      7  N   UNL     1       2.318   7.257  18.948  0.00  0.00    +0.000 N 
ATOM      8  C   UNL     1       2.094   8.479  18.295  0.00  0.00    +0.000 C 
ATOM      9  O   UNL     1       2.556   8.928  17.265  0.00  0.00    +0.000 OA
ATOM     10  C   UNL     1       0.930   9.064  19.074  0.00  0.00    +0.000 C 
ENDROOT
BRANCH   7  11
ATOM     11  C   UNL     1       2.828   6.075  18.337  0.00  0.00    +0.000 A 
ATOM     12  C   UNL     1       1.958   5.004  18.049  0.00  0.00    +0.000 A 
ATOM     13  C   UNL     1       2.385   3.875  17.351  0.00  0.00    +0.000 A 
ATOM     14  C   UNL     1       3.709   3.778  16.945  0.00  0.00    +0.000 A 
ATOM     15  C   UNL     1       4.592   4.812  17.242  0.00  0.00    +0.000 A 
ATOM     16 CL   UNL     1       6.238   4.677  16.754  0.00  0.00    +0.000 Cl
ATOM     17  C   UNL     1       4.161   5.960  17.921  0.00  0.00    +0.000 A 
ENDBRANCH   7  11
BRANCH   1  18
ATOM     18  C   UNL     1      -0.444  11.113  18.491  0.00  0.00    +0.000 C 
BRANCH  18  20
ATOM     19  N   UNL     1      -2.738  11.988  18.596  0.00  0.00    +0.000 N 
ATOM     20  C   UNL     1      -1.967  10.855  18.393  0.00  0.00    +0.000 C 
ATOM     21  O   UNL     1      -2.397   9.720  18.205  0.00  0.00    +0.000 OA
ATOM     22  H   UNL     1      -2.235  12.704  19.115  0.00  0.00    +0.000 HD
BRANCH  19  30
ATOM     23  C   UNL     1      -4.472  11.386  16.248  0.00  0.00    +0.000 C 
ATOM     24  C   UNL     1      -4.986  11.725  17.620  0.00  0.00    +0.000 A 
ATOM     25  C   UNL     1      -6.380  11.809  17.794  0.00  0.00    +0.000 A 
ATOM     26  C   UNL     1      -6.930  12.195  19.013  0.00  0.00    +0.000 A 
ATOM     27  C   UNL     1      -6.096  12.499  20.083  0.00  0.00    +0.000 A 
ATOM     28  C   UNL     1      -4.702  12.416  19.950  0.00  0.00    +0.000 A 
ATOM     29  C   UNL     1      -3.854  12.707  21.160  0.00  0.00    +0.000 C 
ATOM     30  C   UNL     1      -4.143  12.006  18.716  0.00  0.00    +0.000 A 
ENDBRANCH  19  30
ENDBRANCH  18  20
ENDBRANCH   1  18
TORSDOF 4
ENDMDL
MODEL 3
REMARK VINA RESULT:      -8.0      1.291      1.491
REMARK  Name = 
REMARK  6 active torsions:
REMARK  status: ('A' for Active; 'I' for Inactive)
REMARK    1  A    between atoms: C_1  and  C_2
REMARK    2  A    between atoms: C_6  and  C_7
REMARK    3  A    between atoms: C_8  and  N_9
REMARK    4  A    between atoms: C_10  and  C_12
REMARK    5  A    between atoms: C_12  and  N_13
REMARK    6  A    between atoms: N_19  and  C_20
REMARK                            x       y       z     vdW  Elec       q    Type
REMARK                         _______ _______ _______ _____ _____    ______ ____
ROOT
ATOM      1  N   UNL     1      -0.602  11.465  19.366  0.00  0.00    +0.000 N 
ATOM      2  N   UNL     1      -1.102  11.671  20.661  0.00  0.00    +0.000 NA
ATOM      3  N   UNL     1      -0.392  11.019  21.485  0.00  0.00    +0.000 NA
ATOM      4  C   UNL     1       0.734  10.454  20.746  0.00  0.00    +0.000 C 
ATOM      5  C   UNL     1       1.235   9.107  21.089  0.00  0.00    +0.000 C 
ATOM      6  O   UNL     1       1.420   8.708  22.229  0.00  0.00    +0.000 OA
ATOM      7  N   UNL     1       1.565   8.520  19.865  0.00  0.00    +0.000 N 
ATOM      8  C   UNL     1       1.189   9.361  18.807  0.00  0.00    +0.000 C 
ATOM      9  O   UNL     1       1.500   9.352  17.633  0.00  0.00    +0.000 OA
ATOM     10  C   UNL     1       0.086  10.201  19.425  0.00  0.00    +0.000 C 
ENDROOT
BRANCH   7  11
ATOM     11  C   UNL     1       2.078   7.198  19.728  0.00  0.00    +0.000 A 
ATOM     12  C   UNL     1       3.145   6.950  18.842  0.00  0.00    +0.000 A 
ATOM     13  C   UNL     1       3.756   5.698  18.756  0.00  0.00    +0.000 A 
ATOM     14  C   UNL     1       3.292   4.652  19.541  0.00  0.00    +0.000 A 
ATOM     15  C   UNL     1       2.222   4.868  20.404  0.00  0.00    +0.000 A 
ATOM     16 CL   UNL     1       1.636   3.561  21.361  0.00  0.00    +0.000 Cl
ATOM     17  C   UNL     1       1.621   6.130  20.512  0.00  0.00    +0.000 A 
ENDBRANCH   7  11
BRANCH   1  18
ATOM     18  C   UNL     1      -1.476  11.810  18.243  0.00  0.00    +0.000 C 
BRANCH  18  20
ATOM     19  N   UNL     1      -3.675  12.571  19.033  0.00  0.00    +0.000 N 
ATOM     20  C   UNL     1      -2.981  11.518  18.460  0.00  0.00    +0.000 C 
ATOM     21  O   UNL     1      -3.450  10.418  18.181  0.00  0.00    +0.000 OA
ATOM     22  H   UNL     1      -3.060  13.204  19.537  0.00  0.00    +0.000 HD
BRANCH  19  30
ATOM     23  C   UNL     1      -5.928  12.522  17.082  0.00  0.00    +0.000 C 
ATOM     24  C   UNL     1      -6.097  12.493  18.576  0.00  0.00    +0.000 A 
ATOM     25  C   UNL     1      -7.408  12.490  19.087  0.00  0.00    +0.000 A 
ATOM     26  C   UNL     1      -7.645  12.543  20.457  0.00  0.00    +0.000 A 
ATOM     27  C   UNL     1      -6.575  12.596  21.343  0.00  0.00    +0.000 A 
ATOM     28  C   UNL     1      -5.254  12.590  20.871  0.00  0.00    +0.000 A 
ATOM     29  C   UNL     1      -4.139  12.594  21.883  0.00  0.00    +0.000 C 
ATOM     30  C   UNL     1      -5.013  12.516  19.479  0.00  0.00    +0.000 A 
ENDBRANCH  19  30
ENDBRANCH  18  20
ENDBRANCH   1  18
TORSDOF 4
ENDMDL
MODEL 4
REMARK VINA RESULT:      -8.0      4.135      9.779
REMARK  Name = 
REMARK  6 active torsions:
REMARK  status: ('A' for Active; 'I' for Inactive)
REMARK    1  A    between atoms: C_1  and  C_2
REMARK    2  A    between atoms: C_6  and  C_7
REMARK    3  A    between atoms: C_8  and  N_9
REMARK    4  A    between atoms: C_10  and  C_12
REMARK    5  A    between atoms: C_12  and  N_13
REMARK    6  A    between atoms: N_19  and  C_20
REMARK                            x       y       z     vdW  Elec       q    Type
REMARK                         _______ _______ _______ _____ _____    ______ ____
ROOT
ATOM      1  N   UNL     1       2.040   8.149  19.271  0.00  0.00    +0.000 N 
ATOM      2  N   UNL     1       1.708   8.327  17.920  0.00  0.00    +0.000 NA
ATOM      3  N   UNL     1       1.316   9.521  17.746  0.00  0.00    +0.000 NA
ATOM      4  C   UNL     1       1.522  10.239  19.001  0.00  0.00    +0.000 C 
ATOM      5  C   UNL     1       0.538  11.250  19.439  0.00  0.00    +0.000 C 
ATOM      6  O   UNL     1       0.047  12.097  18.709  0.00  0.00    +0.000 OA
ATOM      7  N   UNL     1       0.448  11.094  20.824  0.00  0.00    +0.000 N 
ATOM      8  C   UNL     1       1.209   9.990  21.237  0.00  0.00    +0.000 C 
ATOM      9  O   UNL     1       1.594   9.655  22.340  0.00  0.00    +0.000 OA
ATOM     10  C   UNL     1       1.274   9.140  19.982  0.00  0.00    +0.000 C 
ENDROOT
BRANCH   7  11
ATOM     11  C   UNL     1      -0.410  11.866  21.659  0.00  0.00    +0.000 A 
ATOM     12  C   UNL     1      -1.509  11.252  22.292  0.00  0.00    +0.000 A 
ATOM     13  C   UNL     1      -2.310  11.936  23.206  0.00  0.00    +0.000 A 
ATOM     14  C   UNL     1      -2.043  13.268  23.491  0.00  0.00    +0.000 A 
ATOM     15  C   UNL     1      -0.978  13.902  22.859  0.00  0.00    +0.000 A 
ATOM     16 CL   UNL     1      -0.664  15.560  23.200  0.00  0.00    +0.000 Cl
ATOM     17  C   UNL     1      -0.156  13.211  21.958  0.00  0.00    +0.000 A 
ENDBRANCH   7  11
BRANCH   1  18
ATOM     18  C   UNL     1       2.153   6.773  19.762  0.00  0.00    +0.000 C 
BRANCH  18  20
ATOM     19  N   UNL     1       3.723   6.231  17.950  0.00  0.00    +0.000 N 
ATOM     20  C   UNL     1       3.403   5.998  19.278  0.00  0.00    +0.000 C 
ATOM     21  O   UNL     1       3.987   5.222  20.029  0.00  0.00    +0.000 OA
ATOM     22  H   UNL     1       2.924   6.566  17.418  0.00  0.00    +0.000 HD
BRANCH  19  30
ATOM     23  C   UNL     1       6.356   7.504  17.373  0.00  0.00    +0.000 C 
ATOM     24  C   UNL     1       5.966   6.121  16.931  0.00  0.00    +0.000 A 
ATOM     25  C   UNL     1       6.888   5.397  16.153  0.00  0.00    +0.000 A 
ATOM     26  C   UNL     1       6.569   4.144  15.640  0.00  0.00    +0.000 A 
ATOM     27  C   UNL     1       5.321   3.587  15.900  0.00  0.00    +0.000 A 
ATOM     28  C   UNL     1       4.380   4.274  16.681  0.00  0.00    +0.000 A 
ATOM     29  C   UNL     1       3.067   3.595  16.971  0.00  0.00    +0.000 C 
ATOM     30  C   UNL     1       4.712   5.541  17.218  0.00  0.00    +0.000 A 
ENDBRANCH  19  30
ENDBRANCH  18  20
ENDBRANCH   1  18
TORSDOF 4
ENDMDL
MODEL 5
REMARK VINA RESULT:      -8.0      4.220      6.832
REMARK  Name = 
REMARK  6 active torsions:
REMARK  status: ('A' for Active; 'I' for Inactive)
REMARK    1  A    between atoms: C_1  and  C_2
REMARK    2  A    between atoms: C_6  and  C_7
REMARK    3  A    between atoms: C_8  and  N_9
REMARK    4  A    between atoms: C_10  and  C_12
REMARK    5  A    between atoms: C_12  and  N_13
REMARK    6  A    between atoms: N_19  and  C_20
REMARK                            x       y       z     vdW  Elec       q    Type
REMARK                         _______ _______ _______ _____ _____    ______ ____
ROOT
ATOM      1  N   UNL     1       4.643   5.273  19.287  0.00  0.00    +0.000 N 
ATOM      2  N   UNL     1       5.508   4.509  20.085  0.00  0.00    +0.000 NA
ATOM      3  N   UNL     1       6.616   4.377  19.482  0.00  0.00    +0.000 NA
ATOM      4  C   UNL     1       6.564   5.207  18.281  0.00  0.00    +0.000 C 
ATOM      5  C   UNL     1       7.198   4.732  17.033  0.00  0.00    +0.000 C 
ATOM      6  O   UNL     1       8.305   4.220  16.972  0.00  0.00    +0.000 OA
ATOM      7  N   UNL     1       6.336   5.137  16.011  0.00  0.00    +0.000 N 
ATOM      8  C   UNL     1       5.176   5.710  16.554  0.00  0.00    +0.000 C 
ATOM      9  O   UNL     1       4.309   6.390  16.043  0.00  0.00    +0.000 OA
ATOM     10  C   UNL     1       5.115   5.092  17.939  0.00  0.00    +0.000 C 
ENDROOT
BRANCH   7  11
ATOM     11  C   UNL     1       6.556   4.868  14.630  0.00  0.00    +0.000 A 
ATOM     12  C   UNL     1       7.577   5.550  13.938  0.00  0.00    +0.000 A 
ATOM     13  C   UNL     1       7.906   5.242  12.618  0.00  0.00    +0.000 A 
ATOM     14  C   UNL     1       7.198   4.255  11.946  0.00  0.00    +0.000 A 
ATOM     15  C   UNL     1       6.168   3.586  12.602  0.00  0.00    +0.000 A 
ATOM     16 CL   UNL     1       5.280   2.377  11.756  0.00  0.00    +0.000 Cl
ATOM     17  C   UNL     1       5.851   3.876  13.936  0.00  0.00    +0.000 A 
ENDBRANCH   7  11
BRANCH   1  18
ATOM     18  C   UNL     1       3.215   5.232  19.611  0.00  0.00    +0.000 C 
BRANCH  18  20
ATOM     19  N   UNL     1       2.301   7.498  19.873  0.00  0.00    +0.000 N 
ATOM     20  C   UNL     1       2.371   6.395  19.036  0.00  0.00    +0.000 C 
ATOM     21  O   UNL     1       1.796   6.277  17.958  0.00  0.00    +0.000 OA
ATOM     22  H   UNL     1       2.493   7.254  20.841  0.00  0.00    +0.000 HD
BRANCH  19  30
ATOM     23  C   UNL     1       2.726   9.281  17.523  0.00  0.00    +0.000 C 
ATOM     24  C   UNL     1       1.659   9.485  18.563  0.00  0.00    +0.000 A 
ATOM     25  C   UNL     1       0.836  10.620  18.443  0.00  0.00    +0.000 A 
ATOM     26  C   UNL     1      -0.121  10.919  19.407  0.00  0.00    +0.000 A 
ATOM     27  C   UNL     1      -0.277  10.086  20.509  0.00  0.00    +0.000 A 
ATOM     28  C   UNL     1       0.517   8.939  20.657  0.00  0.00    +0.000 A 
ATOM     29  C   UNL     1       0.263   8.048  21.844  0.00  0.00    +0.000 C 
ATOM     30  C   UNL     1       1.478   8.625  19.666  0.00  0.00    +0.000 A 
ENDBRANCH  19  30
ENDBRANCH  18  20
ENDBRANCH   1  18
TORSDOF 4
ENDMDL
MODEL 6
REMARK VINA RESULT:      -8.0      3.866      6.386
REMARK  Name = 
REMARK  6 active torsions:
REMARK  status: ('A' for Active; 'I' for Inactive)
REMARK    1  A    between atoms: C_1  and  C_2
REMARK    2  A    between atoms: C_6  and  C_7
REMARK    3  A    between atoms: C_8  and  N_9
REMARK    4  A    between atoms: C_10  and  C_12
REMARK    5  A    between atoms: C_12  and  N_13
REMARK    6  A    between atoms: N_19  and  C_20
REMARK                            x       y       z     vdW  Elec       q    Type
REMARK                         _______ _______ _______ _____ _____    ______ ____
ROOT
ATOM      1  N   UNL     1       4.299   5.990  18.819  0.00  0.00    +0.000 N 
ATOM      2  N   UNL     1       4.907   5.115  19.733  0.00  0.00    +0.000 NA
ATOM      3  N   UNL     1       6.023   4.738  19.262  0.00  0.00    +0.000 NA
ATOM      4  C   UNL     1       6.263   5.497  18.037  0.00  0.00    +0.000 C 
ATOM      5  C   UNL     1       6.915   4.843  16.884  0.00  0.00    +0.000 C 
ATOM      6  O   UNL     1       7.897   4.122  16.964  0.00  0.00    +0.000 OA
ATOM      7  N   UNL     1       6.262   5.354  15.760  0.00  0.00    +0.000 N 
ATOM      8  C   UNL     1       5.190   6.170  16.151  0.00  0.00    +0.000 C 
ATOM      9  O   UNL     1       4.534   6.979  15.525  0.00  0.00    +0.000 OA
ATOM     10  C   UNL     1       4.863   5.649  17.538  0.00  0.00    +0.000 C 
ENDROOT
BRANCH   7  11
ATOM     11  C   UNL     1       6.566   4.975  14.421  0.00  0.00    +0.000 A 
ATOM     12  C   UNL     1       7.629   5.602  13.740  0.00  0.00    +0.000 A 
ATOM     13  C   UNL     1       8.039   5.189  12.472  0.00  0.00    +0.000 A 
ATOM     14  C   UNL     1       7.372   4.149  11.840  0.00  0.00    +0.000 A 
ATOM     15  C   UNL     1       6.302   3.533  12.483  0.00  0.00    +0.000 A 
ATOM     16 CL   UNL     1       5.465   2.257  11.685  0.00  0.00    +0.000 Cl
ATOM     17  C   UNL     1       5.903   3.928  13.767  0.00  0.00    +0.000 A 
ENDBRANCH   7  11
BRANCH   1  18
ATOM     18  C   UNL     1       2.866   6.245  18.981  0.00  0.00    +0.000 C 
BRANCH  18  20
ATOM     19  N   UNL     1       1.445   8.014  19.926  0.00  0.00    +0.000 N 
ATOM     20  C   UNL     1       2.458   7.738  19.021  0.00  0.00    +0.000 C 
ATOM     21  O   UNL     1       2.981   8.549  18.262  0.00  0.00    +0.000 OA
ATOM     22  H   UNL     1       0.896   7.187  20.147  0.00  0.00    +0.000 HD
BRANCH  19  30
ATOM     23  C   UNL     1       0.142   9.287  17.567  0.00  0.00    +0.000 C 
ATOM     24  C   UNL     1       0.158   9.877  18.950  0.00  0.00    +0.000 A 
ATOM     25  C   UNL     1      -0.442  11.136  19.132  0.00  0.00    +0.000 A 
ATOM     26  C   UNL     1      -0.398  11.782  20.364  0.00  0.00    +0.000 A 
ATOM     27  C   UNL     1       0.243  11.178  21.439  0.00  0.00    +0.000 A 
ATOM     28  C   UNL     1       0.843   9.918  21.299  0.00  0.00    +0.000 A 
ATOM     29  C   UNL     1       1.475   9.292  22.515  0.00  0.00    +0.000 C 
ATOM     30  C   UNL     1       0.782   9.253  20.051  0.00  0.00    +0.000 A 
ENDBRANCH  19  30
ENDBRANCH  18  20
ENDBRANCH   1  18
TORSDOF 4
ENDMDL
MODEL 7
REMARK VINA RESULT:      -7.9      0.531      1.691
REMARK  Name = 
REMARK  6 active torsions:
REMARK  status: ('A' for Active; 'I' for Inactive)
REMARK    1  A    between atoms: C_1  and  C_2
REMARK    2  A    between atoms: C_6  and  C_7
REMARK    3  A    between atoms: C_8  and  N_9
REMARK    4  A    between atoms: C_10  and  C_12
REMARK    5  A    between atoms: C_12  and  N_13
REMARK    6  A    between atoms: N_19  and  C_20
REMARK                            x       y       z     vdW  Elec       q    Type
REMARK                         _______ _______ _______ _____ _____    ______ ____
ROOT
ATOM      1  N   UNL     1       0.115  10.579  19.619  0.00  0.00    +0.000 N 
ATOM      2  N   UNL     1      -0.494  10.165  20.813  0.00  0.00    +0.000 NA
ATOM      3  N   UNL     1       0.161   9.191  21.294  0.00  0.00    +0.000 NA
ATOM      4  C   UNL     1       1.357   9.017  20.473  0.00  0.00    +0.000 C 
ATOM      5  C   UNL     1       1.859   7.657  20.187  0.00  0.00    +0.000 C 
ATOM      6  O   UNL     1       1.959   6.769  21.020  0.00  0.00    +0.000 OA
ATOM      7  N   UNL     1       2.302   7.704  18.863  0.00  0.00    +0.000 N 
ATOM      8  C   UNL     1       1.993   8.948  18.293  0.00  0.00    +0.000 C 
ATOM      9  O   UNL     1       2.399   9.483  17.280  0.00  0.00    +0.000 OA
ATOM     10  C   UNL     1       0.825   9.422  19.137  0.00  0.00    +0.000 C 
ENDROOT
BRANCH   7  11
ATOM     11  C   UNL     1       2.854   6.590  18.167  0.00  0.00    +0.000 A 
ATOM     12  C   UNL     1       4.074   6.731  17.476  0.00  0.00    +0.000 A 
ATOM     13  C   UNL     1       4.712   5.645  16.877  0.00  0.00    +0.000 A 
ATOM     14  C   UNL     1       4.126   4.388  16.932  0.00  0.00    +0.000 A 
ATOM     15  C   UNL     1       2.908   4.231  17.587  0.00  0.00    +0.000 A 
ATOM     16 CL   UNL     1       2.175   2.673  17.636  0.00  0.00    +0.000 Cl
ATOM     17  C   UNL     1       2.276   5.315  18.213  0.00  0.00    +0.000 A 
ENDBRANCH   7  11
BRANCH   1  18
ATOM     18  C   UNL     1      -0.673  11.424  18.718  0.00  0.00    +0.000 C 
BRANCH  18  20
ATOM     19  N   UNL     1      -3.015  12.164  18.802  0.00  0.00    +0.000 N 
ATOM     20  C   UNL     1      -2.177  11.073  18.627  0.00  0.00    +0.000 C 
ATOM     21  O   UNL     1      -2.539   9.911  18.467  0.00  0.00    +0.000 OA
ATOM     22  H   UNL     1      -2.556  12.920  19.303  0.00  0.00    +0.000 HD
BRANCH  19  30
ATOM     23  C   UNL     1      -4.339  12.594  21.437  0.00  0.00    +0.000 C 
ATOM     24  C   UNL     1      -5.070  12.299  20.157  0.00  0.00    +0.000 A 
ATOM     25  C   UNL     1      -6.470  12.172  20.216  0.00  0.00    +0.000 A 
ATOM     26  C   UNL     1      -7.209  11.822  19.090  0.00  0.00    +0.000 A 
ATOM     27  C   UNL     1      -6.561  11.598  17.881  0.00  0.00    +0.000 A 
ATOM     28  C   UNL     1      -5.168  11.726  17.780  0.00  0.00    +0.000 A 
ATOM     29  C   UNL     1      -4.532  11.522  16.430  0.00  0.00    +0.000 C 
ATOM     30  C   UNL     1      -4.419  12.100  18.921  0.00  0.00    +0.000 A 
ENDBRANCH  19  30
ENDBRANCH  18  20
ENDBRANCH   1  18
TORSDOF 4
ENDMDL
MODEL 8
REMARK VINA RESULT:      -7.9      1.127      1.463
REMARK  Name = 
REMARK  6 active torsions:
REMARK  status: ('A' for Active; 'I' for Inactive)
REMARK    1  A    between atoms: C_1  and  C_2
REMARK    2  A    between atoms: C_6  and  C_7
REMARK    3  A    between atoms: C_8  and  N_9
REMARK    4  A    between atoms: C_10  and  C_12
REMARK    5  A    between atoms: C_12  and  N_13
REMARK    6  A    between atoms: N_19  and  C_20
REMARK                            x       y       z     vdW  Elec       q    Type
REMARK                         _______ _______ _______ _____ _____    ______ ____
ROOT
ATOM      1  N   UNL     1      -0.545  11.358  19.320  0.00  0.00    +0.000 N 
ATOM      2  N   UNL     1      -1.075  11.412  20.618  0.00  0.00    +0.000 NA
ATOM      3  N   UNL     1      -0.351  10.711  21.389  0.00  0.00    +0.000 NA
ATOM      4  C   UNL     1       0.811  10.272  20.621  0.00  0.00    +0.000 C 
ATOM      5  C   UNL     1       1.366   8.920  20.839  0.00  0.00    +0.000 C 
ATOM      6  O   UNL     1       1.550   8.418  21.938  0.00  0.00    +0.000 OA
ATOM      7  N   UNL     1       1.743   8.473  19.571  0.00  0.00    +0.000 N 
ATOM      8  C   UNL     1       1.347   9.398  18.594  0.00  0.00    +0.000 C 
ATOM      9  O   UNL     1       1.678   9.520  17.431  0.00  0.00    +0.000 OA
ATOM     10  C   UNL     1       0.198  10.124  19.268  0.00  0.00    +0.000 C 
ENDROOT
BRANCH   7  11
ATOM     11  C   UNL     1       2.316   7.194  19.314  0.00  0.00    +0.000 A 
ATOM     12  C   UNL     1       1.961   6.093  20.119  0.00  0.00    +0.000 A 
ATOM     13  C   UNL     1       2.406   4.801  19.839  0.00  0.00    +0.000 A 
ATOM     14  C   UNL     1       3.245   4.584  18.754  0.00  0.00    +0.000 A 
ATOM     15  C   UNL     1       3.629   5.661  17.962  0.00  0.00    +0.000 A 
ATOM     16 CL   UNL     1       4.687   5.388  16.629  0.00  0.00    +0.000 Cl
ATOM     17  C   UNL     1       3.165   6.957  18.225  0.00  0.00    +0.000 A 
ENDBRANCH   7  11
BRANCH   1  18
ATOM     18  C   UNL     1      -1.415  11.775  18.218  0.00  0.00    +0.000 C 
BRANCH  18  20
ATOM     19  N   UNL     1      -3.620  12.543  18.985  0.00  0.00    +0.000 N 
ATOM     20  C   UNL     1      -2.923  11.487  18.419  0.00  0.00    +0.000 C 
ATOM     21  O   UNL     1      -3.392  10.389  18.134  0.00  0.00    +0.000 OA
ATOM     22  H   UNL     1      -3.008  13.173  19.496  0.00  0.00    +0.000 HD
BRANCH  19  30
ATOM     23  C   UNL     1      -5.850  12.467  17.010  0.00  0.00    +0.000 C 
ATOM     24  C   UNL     1      -6.036  12.457  18.502  0.00  0.00    +0.000 A 
ATOM     25  C   UNL     1      -7.352  12.459  18.998  0.00  0.00    +0.000 A 
ATOM     26  C   UNL     1      -7.606  12.529  20.365  0.00  0.00    +0.000 A 
ATOM     27  C   UNL     1      -6.546  12.594  21.262  0.00  0.00    +0.000 A 
ATOM     28  C   UNL     1      -5.219  12.584  20.805  0.00  0.00    +0.000 A 
ATOM     29  C   UNL     1      -4.115  12.601  21.829  0.00  0.00    +0.000 C 
ATOM     30  C   UNL     1      -4.962  12.493  19.416  0.00  0.00    +0.000 A 
ENDBRANCH  19  30
ENDBRANCH  18  20
ENDBRANCH   1  18
TORSDOF 4
ENDMDL
MODEL 9
REMARK VINA RESULT:      -7.9      1.013      2.098
REMARK  Name = 
REMARK  6 active torsions:
REMARK  status: ('A' for Active; 'I' for Inactive)
REMARK    1  A    between atoms: C_1  and  C_2
REMARK    2  A    between atoms: C_6  and  C_7
REMARK    3  A    between atoms: C_8  and  N_9
REMARK    4  A    between atoms: C_10  and  C_12
REMARK    5  A    between atoms: C_12  and  N_13
REMARK    6  A    between atoms: N_19  and  C_20
REMARK                            x       y       z     vdW  Elec       q    Type
REMARK                         _______ _______ _______ _____ _____    ______ ____
ROOT
ATOM      1  N   UNL     1       0.048  10.602  19.446  0.00  0.00    +0.000 N 
ATOM      2  N   UNL     1      -0.555  10.331  20.684  0.00  0.00    +0.000 NA
ATOM      3  N   UNL     1       0.088   9.401  21.260  0.00  0.00    +0.000 NA
ATOM      4  C   UNL     1       1.270   9.116  20.450  0.00  0.00    +0.000 C 
ATOM      5  C   UNL     1       1.744   7.724  20.308  0.00  0.00    +0.000 C 
ATOM      6  O   UNL     1       1.837   6.929  21.230  0.00  0.00    +0.000 OA
ATOM      7  N   UNL     1       2.171   7.619  18.982  0.00  0.00    +0.000 N 
ATOM      8  C   UNL     1       1.879   8.802  18.285  0.00  0.00    +0.000 C 
ATOM      9  O   UNL     1       2.283   9.217  17.216  0.00  0.00    +0.000 OA
ATOM     10  C   UNL     1       0.730   9.386  19.085  0.00  0.00    +0.000 C 
ENDROOT
BRANCH   7  11
ATOM     11  C   UNL     1       2.694   6.427  18.405  0.00  0.00    +0.000 A 
ATOM     12  C   UNL     1       1.851   5.315  18.210  0.00  0.00    +0.000 A 
ATOM     13  C   UNL     1       2.286   4.167  17.547  0.00  0.00    +0.000 A 
ATOM     14  C   UNL     1       3.593   4.095  17.084  0.00  0.00    +0.000 A 
ATOM     15  C   UNL     1       4.450   5.172  17.288  0.00  0.00    +0.000 A 
ATOM     16 CL   UNL     1       6.077   5.068  16.730  0.00  0.00    +0.000 Cl
ATOM     17  C   UNL     1       4.010   6.337  17.932  0.00  0.00    +0.000 A 
ENDBRANCH   7  11
BRANCH   1  18
ATOM     18  C   UNL     1      -0.735  11.361  18.468  0.00  0.00    +0.000 C 
BRANCH  18  20
ATOM     19  N   UNL     1      -3.050  12.160  18.670  0.00  0.00    +0.000 N 
ATOM     20  C   UNL     1      -2.251  11.050  18.447  0.00  0.00    +0.000 C 
ATOM     21  O   UNL     1      -2.651   9.899  18.295  0.00  0.00    +0.000 OA
ATOM     22  H   UNL     1      -2.548  12.900  19.154  0.00  0.00    +0.000 HD
BRANCH  19  30
ATOM     23  C   UNL     1      -4.234  12.593  21.371  0.00  0.00    +0.000 C 
ATOM     24  C   UNL     1      -5.034  12.332  20.125  0.00  0.00    +0.000 A 
ATOM     25  C   UNL     1      -6.432  12.241  20.251  0.00  0.00    +0.000 A 
ATOM     26  C   UNL     1      -7.233  11.924  19.158  0.00  0.00    +0.000 A 
ATOM     27  C   UNL     1      -6.651  11.697  17.916  0.00  0.00    +0.000 A 
ATOM     28  C   UNL     1      -5.261  11.790  17.750  0.00  0.00    +0.000 A 
ATOM     29  C   UNL     1      -4.696  11.586  16.368  0.00  0.00    +0.000 C 
ATOM     30  C   UNL     1      -4.448  12.131  18.857  0.00  0.00    +0.000 A 
ENDBRANCH  19  30
ENDBRANCH  18  20
ENDBRANCH   1  18
TORSDOF 4
ENDMDL
