MODEL 1
REMARK VINA RESULT:      -6.9      0.000      0.000
REMARK  Name = 
REMARK  4 active torsions:
REMARK  status: ('A' for Active; 'I' for Inactive)
REMARK    1  A    between atoms: O_1  and  C_2
REMARK    2  A    between atoms: C_2  and  C_3
REMARK    3  A    between atoms: C_9  and  C_10
REMARK    4  A    between atoms: C_13  and  C_14
REMARK                            x       y       z     vdW  Elec       q    Type
REMARK                         _______ _______ _______ _____ _____    ______ ____
ROOT
ATOM      1  C   UNL     1       4.347   5.219  16.791  0.00  0.00    +0.000 A 
ATOM      2  N   UNL     1       4.457   6.545  16.615  0.00  0.00    +0.000 NA
ATOM      3  O   UNL     1       5.309   6.662  15.522  0.00  0.00    +0.000 OA
ATOM      4  C   UNL     1       5.629   5.391  15.123  0.00  0.00    +0.000 A 
ATOM      5  N   UNL     1       5.035   4.481  15.859  0.00  0.00    +0.000 NA
ENDROOT
BRANCH   1  12
ATOM      6  C   UNL     1       4.195   4.356  19.152  0.00  0.00    +0.000 A 
ATOM      7  C   UNL     1       3.406   3.770  20.164  0.00  0.00    +0.000 A 
ATOM      8  C   UNL     1       2.071   3.447  19.940  0.00  0.00    +0.000 A 
ATOM      9 CL   UNL     1       1.135   2.753  21.206  0.00  0.00    +0.000 Cl
ATOM     10  C   UNL     1       1.488   3.691  18.703  0.00  0.00    +0.000 A 
ATOM     11  C   UNL     1       2.252   4.264  17.682  0.00  0.00    +0.000 A 
ATOM     12  C   UNL     1       3.603   4.602  17.888  0.00  0.00    +0.000 A 
BRANCH   6  13
ATOM     13  C   UNL     1       5.636   4.726  19.443  0.00  0.00    +0.000 C 
BRANCH  13  14
ATOM     14  O   UNL     1       6.545   3.993  18.627  0.00  0.00    +0.000 OA
ATOM     15  H   UNL     1       6.339   3.053  18.762  0.00  0.00    +0.000 HD
ENDBRANCH  13  14
ENDBRANCH   6  13
ENDBRANCH   1  12
BRANCH   4  16
ATOM     16  C   UNL     1       6.527   5.082  14.054  0.00  0.00    +0.000 A 
ATOM     17  O   UNL     1       7.804   5.607  13.992  0.00  0.00    +0.000 OA
ATOM     18  C   UNL     1       8.398   5.135  12.867  0.00  0.00    +0.000 A 
ATOM     19  C   UNL     1       7.539   4.316  12.177  0.00  0.00    +0.000 A 
ATOM     20  C   UNL     1       6.349   4.291  12.935  0.00  0.00    +0.000 A 
ATOM     21 BR   UNL     1       4.833   3.320  12.406  0.00  0.00    +0.000 Br
ENDBRANCH   4  16
TORSDOF 4
ENDMDL
MODEL 2
REMARK VINA RESULT:      -6.7      1.546      2.034
REMARK  Name = 
REMARK  4 active torsions:
REMARK  status: ('A' for Active; 'I' for Inactive)
REMARK    1  A    between atoms: O_1  and  C_2
REMARK    2  A    between atoms: C_2  and  C_3
REMARK    3  A    between atoms: C_9  and  C_10
REMARK    4  A    between atoms: C_13  and  C_14
REMARK                            x       y       z     vdW  Elec       q    Type
REMARK                         _______ _______ _______ _____ _____    ______ ____
ROOT
ATOM      1  C   UNL     1       5.501   4.430  17.175  0.00  0.00    +0.000 A 
ATOM      2  N   UNL     1       6.741   4.384  17.685  0.00  0.00    +0.000 NA
ATOM      3  O   UNL     1       7.559   4.580  16.577  0.00  0.00    +0.000 OA
ATOM      4  C   UNL     1       6.737   4.743  15.494  0.00  0.00    +0.000 A 
ATOM      5  N   UNL     1       5.469   4.687  15.826  0.00  0.00    +0.000 NA
ENDROOT
BRANCH   1  12
ATOM      6  C   UNL     1       3.402   5.246  18.304  0.00  0.00    +0.000 A 
ATOM      7  C   UNL     1       2.246   4.935  19.050  0.00  0.00    +0.000 A 
ATOM      8  C   UNL     1       1.966   3.627  19.433  0.00  0.00    +0.000 A 
ATOM      9 CL   UNL     1       0.534   3.285  20.324  0.00  0.00    +0.000 Cl
ATOM     10  C   UNL     1       2.831   2.595  19.092  0.00  0.00    +0.000 A 
ATOM     11  C   UNL     1       3.988   2.879  18.359  0.00  0.00    +0.000 A 
ATOM     12  C   UNL     1       4.289   4.195  17.959  0.00  0.00    +0.000 A 
BRANCH   6  13
ATOM     13  C   UNL     1       3.657   6.677  17.875  0.00  0.00    +0.000 C 
BRANCH  13  14
ATOM     14  O   UNL     1       2.666   7.566  18.382  0.00  0.00    +0.000 OA
ATOM     15  H   UNL     1       1.811   7.123  18.259  0.00  0.00    +0.000 HD
ENDBRANCH  13  14
ENDBRANCH   6  13
ENDBRANCH   1  12
BRANCH   4  16
ATOM     16  C   UNL     1       7.197   4.922  14.151  0.00  0.00    +0.000 A 
ATOM     17  O   UNL     1       8.274   5.732  13.845  0.00  0.00    +0.000 OA
ATOM     18  C   UNL     1       8.455   5.698  12.500  0.00  0.00    +0.000 A 
ATOM     19  C   UNL     1       7.515   4.890  11.908  0.00  0.00    +0.000 A 
ATOM     20  C   UNL     1       6.715   4.405  12.964  0.00  0.00    +0.000 A 
ATOM     21 BR   UNL     1       5.255   3.260  12.682  0.00  0.00    +0.000 Br
ENDBRANCH   4  16
TORSDOF 4
ENDMDL
MODEL 3
REMARK VINA RESULT:      -6.6      5.478      7.482
REMARK  Name = 
REMARK  4 active torsions:
REMARK  status: ('A' for Active; 'I' for Inactive)
REMARK    1  A    between atoms: O_1  and  C_2
REMARK    2  A    between atoms: C_2  and  C_3
REMARK    3  A    between atoms: C_9  and  C_10
REMARK    4  A    between atoms: C_13  and  C_14
REMARK                            x       y       z     vdW  Elec       q    Type
REMARK                         _______ _______ _______ _____ _____    ______ ____
ROOT
ATOM      1  C   UNL     1       2.832   6.827  18.641  0.00  0.00    +0.000 A 
ATOM      2  N   UNL     1       2.636   6.482  19.923  0.00  0.00    +0.000 NA
ATOM      3  O   UNL     1       1.854   7.516  20.426  0.00  0.00    +0.000 OA
ATOM      4  C   UNL     1       1.633   8.391  19.395  0.00  0.00    +0.000 A 
ATOM      5  N   UNL     1       2.193   7.987  18.279  0.00  0.00    +0.000 NA
ENDROOT
BRANCH   1  12
ATOM      6  C   UNL     1       3.455   4.696  17.450  0.00  0.00    +0.000 A 
ATOM      7  C   UNL     1       4.302   4.042  16.531  0.00  0.00    +0.000 A 
ATOM      8  C   UNL     1       5.326   4.726  15.884  0.00  0.00    +0.000 A 
ATOM      9 CL   UNL     1       6.325   3.898  14.753  0.00  0.00    +0.000 Cl
ATOM     10  C   UNL     1       5.540   6.074  16.137  0.00  0.00    +0.000 A 
ATOM     11  C   UNL     1       4.718   6.743  17.050  0.00  0.00    +0.000 A 
ATOM     12  C   UNL     1       3.674   6.072  17.714  0.00  0.00    +0.000 A 
BRANCH   6  13
ATOM     13  C   UNL     1       2.328   3.928  18.112  0.00  0.00    +0.000 C 
BRANCH  13  14
ATOM     14  O   UNL     1       1.121   4.007  17.359  0.00  0.00    +0.000 OA
ATOM     15  H   UNL     1       0.764   3.105  17.316  0.00  0.00    +0.000 HD
ENDBRANCH  13  14
ENDBRANCH   6  13
ENDBRANCH   1  12
BRANCH   4  16
ATOM     16  C   UNL     1       0.908   9.618  19.519  0.00  0.00    +0.000 A 
ATOM     17  O   UNL     1       0.891  10.566  18.514  0.00  0.00    +0.000 OA
ATOM     18  C   UNL     1       0.128  11.608  18.934  0.00  0.00    +0.000 A 
ATOM     19  C   UNL     1      -0.352  11.373  20.198  0.00  0.00    +0.000 A 
ATOM     20  C   UNL     1       0.152  10.109  20.566  0.00  0.00    +0.000 A 
ATOM     21 BR   UNL     1      -0.200   9.326  22.235  0.00  0.00    +0.000 Br
ENDBRANCH   4  16
TORSDOF 4
ENDMDL
MODEL 4
REMARK VINA RESULT:      -6.6      1.644      1.992
REMARK  Name = 
REMARK  4 active torsions:
REMARK  status: ('A' for Active; 'I' for Inactive)
REMARK    1  A    between atoms: O_1  and  C_2
REMARK    2  A    between atoms: C_2  and  C_3
REMARK    3  A    between atoms: C_9  and  C_10
REMARK    4  A    between atoms: C_13  and  C_14
REMARK                            x       y       z     vdW  Elec       q    Type
REMARK                         _______ _______ _______ _____ _____    ______ ____
ROOT
ATOM      1  C   UNL     1       5.538   4.543  17.261  0.00  0.00    +0.000 A 
ATOM      2  N   UNL     1       6.772   4.311  17.735  0.00  0.00    +0.000 NA
ATOM      3  O   UNL     1       7.585   4.446  16.615  0.00  0.00    +0.000 OA
ATOM      4  C   UNL     1       6.769   4.763  15.561  0.00  0.00    +0.000 A 
ATOM      5  N   UNL     1       5.512   4.859  15.925  0.00  0.00    +0.000 NA
ENDROOT
BRANCH   1  12
ATOM      6  C   UNL     1       3.608   3.217  18.188  0.00  0.00    +0.000 A 
ATOM      7  C   UNL     1       2.452   3.191  18.996  0.00  0.00    +0.000 A 
ATOM      8  C   UNL     1       2.020   4.328  19.672  0.00  0.00    +0.000 A 
ATOM      9 CL   UNL     1       0.617   4.250  20.666  0.00  0.00    +0.000 Cl
ATOM     10  C   UNL     1       2.722   5.521  19.559  0.00  0.00    +0.000 A 
ATOM     11  C   UNL     1       3.867   5.574  18.757  0.00  0.00    +0.000 A 
ATOM     12  C   UNL     1       4.323   4.435  18.067  0.00  0.00    +0.000 A 
BRANCH   6  13
ATOM     13  C   UNL     1       4.067   1.951  17.493  0.00  0.00    +0.000 C 
BRANCH  13  14
ATOM     14  O   UNL     1       4.161   0.855  18.398  0.00  0.00    +0.000 OA
ATOM     15  H   UNL     1       3.250   0.580  18.593  0.00  0.00    +0.000 HD
ENDBRANCH  13  14
ENDBRANCH   6  13
ENDBRANCH   1  12
BRANCH   4  16
ATOM     16  C   UNL     1       7.220   4.937  14.215  0.00  0.00    +0.000 A 
ATOM     17  O   UNL     1       8.304   5.734  13.900  0.00  0.00    +0.000 OA
ATOM     18  C   UNL     1       8.473   5.700  12.554  0.00  0.00    +0.000 A 
ATOM     19  C   UNL     1       7.519   4.904  11.970  0.00  0.00    +0.000 A 
ATOM     20  C   UNL     1       6.722   4.427  13.031  0.00  0.00    +0.000 A 
ATOM     21 BR   UNL     1       5.245   3.301  12.761  0.00  0.00    +0.000 Br
ENDBRANCH   4  16
TORSDOF 4
ENDMDL
MODEL 5
REMARK VINA RESULT:      -6.5      4.882      7.250
REMARK  Name = 
REMARK  4 active torsions:
REMARK  status: ('A' for Active; 'I' for Inactive)
REMARK    1  A    between atoms: O_1  and  C_2
REMARK    2  A    between atoms: C_2  and  C_3
REMARK    3  A    between atoms: C_9  and  C_10
REMARK    4  A    between atoms: C_13  and  C_14
REMARK                            x       y       z     vdW  Elec       q    Type
REMARK                         _______ _______ _______ _____ _____    ______ ____
ROOT
ATOM      1  C   UNL     1       3.174   5.967  18.791  0.00  0.00    +0.000 A 
ATOM      2  N   UNL     1       2.807   5.132  19.775  0.00  0.00    +0.000 NA
ATOM      3  O   UNL     1       2.057   5.937  20.626  0.00  0.00    +0.000 OA
ATOM      4  C   UNL     1       2.025   7.189  20.071  0.00  0.00    +0.000 A 
ATOM      5  N   UNL     1       2.674   7.238  18.931  0.00  0.00    +0.000 NA
ENDROOT
BRANCH   1  12
ATOM      6  C   UNL     1       4.461   4.245  17.478  0.00  0.00    +0.000 A 
ATOM      7  C   UNL     1       5.299   3.957  16.380  0.00  0.00    +0.000 A 
ATOM      8  C   UNL     1       5.713   4.959  15.508  0.00  0.00    +0.000 A 
ATOM      9 CL   UNL     1       6.718   4.564  14.168  0.00  0.00    +0.000 Cl
ATOM     10  C   UNL     1       5.311   6.274  15.707  0.00  0.00    +0.000 A 
ATOM     11  C   UNL     1       4.486   6.585  16.793  0.00  0.00    +0.000 A 
ATOM     12  C   UNL     1       4.053   5.587  17.686  0.00  0.00    +0.000 A 
BRANCH   6  13
ATOM     13  C   UNL     1       4.003   3.123  18.388  0.00  0.00    +0.000 C 
BRANCH  13  14
ATOM     14  O   UNL     1       4.983   2.807  19.372  0.00  0.00    +0.000 OA
ATOM     15  H   UNL     1       4.718   1.956  19.759  0.00  0.00    +0.000 HD
ENDBRANCH  13  14
ENDBRANCH   6  13
ENDBRANCH   1  12
BRANCH   4  16
ATOM     16  C   UNL     1       1.390   8.322  20.671  0.00  0.00    +0.000 A 
ATOM     17  O   UNL     1       1.246   8.444  22.039  0.00  0.00    +0.000 OA
ATOM     18  C   UNL     1       0.604   9.614  22.291  0.00  0.00    +0.000 A 
ATOM     19  C   UNL     1       0.312  10.264  21.117  0.00  0.00    +0.000 A 
ATOM     20  C   UNL     1       0.809   9.434  20.091  0.00  0.00    +0.000 A 
ATOM     21 BR   UNL     1       0.642   9.863  18.271  0.00  0.00    +0.000 Br
ENDBRANCH   4  16
TORSDOF 4
ENDMDL
MODEL 6
REMARK VINA RESULT:      -6.5      2.276      2.548
REMARK  Name = 
REMARK  4 active torsions:
REMARK  status: ('A' for Active; 'I' for Inactive)
REMARK    1  A    between atoms: O_1  and  C_2
REMARK    2  A    between atoms: C_2  and  C_3
REMARK    3  A    between atoms: C_9  and  C_10
REMARK    4  A    between atoms: C_13  and  C_14
REMARK                            x       y       z     vdW  Elec       q    Type
REMARK                         _______ _______ _______ _____ _____    ______ ____
ROOT
ATOM      1  C   UNL     1       5.369   5.962  16.679  0.00  0.00    +0.000 A 
ATOM      2  N   UNL     1       6.650   6.354  16.763  0.00  0.00    +0.000 NA
ATOM      3  O   UNL     1       7.228   5.837  15.609  0.00  0.00    +0.000 OA
ATOM      4  C   UNL     1       6.238   5.189  14.918  0.00  0.00    +0.000 A 
ATOM      5  N   UNL     1       5.079   5.270  15.529  0.00  0.00    +0.000 NA
ENDROOT
BRANCH   1  12
ATOM      6  C   UNL     1       4.203   5.329  18.820  0.00  0.00    +0.000 A 
ATOM      7  C   UNL     1       3.229   5.644  19.791  0.00  0.00    +0.000 A 
ATOM      8  C   UNL     1       2.453   6.794  19.686  0.00  0.00    +0.000 A 
ATOM      9 CL   UNL     1       1.290   7.154  20.903  0.00  0.00    +0.000 Cl
ATOM     10  C   UNL     1       2.621   7.658  18.612  0.00  0.00    +0.000 A 
ATOM     11  C   UNL     1       3.575   7.365  17.633  0.00  0.00    +0.000 A 
ATOM     12  C   UNL     1       4.372   6.208  17.720  0.00  0.00    +0.000 A 
BRANCH   6  13
ATOM     13  C   UNL     1       5.053   4.085  18.984  0.00  0.00    +0.000 C 
BRANCH  13  14
ATOM     14  O   UNL     1       4.712   3.083  18.031  0.00  0.00    +0.000 OA
ATOM     15  H   UNL     1       3.817   3.294  17.718  0.00  0.00    +0.000 HD
ENDBRANCH  13  14
ENDBRANCH   6  13
ENDBRANCH   1  12
BRANCH   4  16
ATOM     16  C   UNL     1       6.440   4.479  13.693  0.00  0.00    +0.000 A 
ATOM     17  O   UNL     1       5.681   3.377  13.349  0.00  0.00    +0.000 OA
ATOM     18  C   UNL     1       6.116   2.928  12.144  0.00  0.00    +0.000 A 
ATOM     19  C   UNL     1       7.153   3.704  11.687  0.00  0.00    +0.000 A 
ATOM     20  C   UNL     1       7.357   4.684  12.680  0.00  0.00    +0.000 A 
ATOM     21 BR   UNL     1       8.693   5.995  12.547  0.00  0.00    +0.000 Br
ENDBRANCH   4  16
TORSDOF 4
ENDMDL
MODEL 7
REMARK VINA RESULT:      -6.5      5.539      7.402
REMARK  Name = 
REMARK  4 active torsions:
REMARK  status: ('A' for Active; 'I' for Inactive)
REMARK    1  A    between atoms: O_1  and  C_2
REMARK    2  A    between atoms: C_2  and  C_3
REMARK    3  A    between atoms: C_9  and  C_10
REMARK    4  A    between atoms: C_13  and  C_14
REMARK                            x       y       z     vdW  Elec       q    Type
REMARK                         _______ _______ _______ _____ _____    ______ ____
ROOT
ATOM      1  C   UNL     1       2.463   7.376  18.743  0.00  0.00    +0.000 A 
ATOM      2  N   UNL     1       2.146   7.182  20.032  0.00  0.00    +0.000 NA
ATOM      3  O   UNL     1       1.426   8.323  20.369  0.00  0.00    +0.000 OA
ATOM      4  C   UNL     1       1.358   9.102  19.244  0.00  0.00    +0.000 A 
ATOM      5  N   UNL     1       1.958   8.541  18.221  0.00  0.00    +0.000 NA
ENDROOT
BRANCH   1  12
ATOM      6  C   UNL     1       2.971   5.094  17.806  0.00  0.00    +0.000 A 
ATOM      7  C   UNL     1       3.820   4.282  17.026  0.00  0.00    +0.000 A 
ATOM      8  C   UNL     1       4.952   4.806  16.410  0.00  0.00    +0.000 A 
ATOM      9 CL   UNL     1       5.951   3.788  15.449  0.00  0.00    +0.000 Cl
ATOM     10  C   UNL     1       5.273   6.149  16.559  0.00  0.00    +0.000 A 
ATOM     11  C   UNL     1       4.450   6.973  17.334  0.00  0.00    +0.000 A 
ATOM     12  C   UNL     1       3.299   6.464  17.963  0.00  0.00    +0.000 A 
BRANCH   6  13
ATOM     13  C   UNL     1       1.728   4.495  18.435  0.00  0.00    +0.000 C 
BRANCH  13  14
ATOM     14  O   UNL     1       1.252   3.372  17.699  0.00  0.00    +0.000 OA
ATOM     15  H   UNL     1       2.030   2.828  17.494  0.00  0.00    +0.000 HD
ENDBRANCH  13  14
ENDBRANCH   6  13
ENDBRANCH   1  12
BRANCH   4  16
ATOM     16  C   UNL     1       0.738  10.390  19.191  0.00  0.00    +0.000 A 
ATOM     17  O   UNL     1       1.237  11.475  19.887  0.00  0.00    +0.000 OA
ATOM     18  C   UNL     1       0.431  12.539  19.639  0.00  0.00    +0.000 A 
ATOM     19  C   UNL     1      -0.595  12.179  18.800  0.00  0.00    +0.000 A 
ATOM     20  C   UNL     1      -0.397  10.810  18.525  0.00  0.00    +0.000 A 
ATOM     21 BR   UNL     1      -1.556   9.821  17.429  0.00  0.00    +0.000 Br
ENDBRANCH   4  16
TORSDOF 4
ENDMDL
MODEL 8
REMARK VINA RESULT:      -6.4      2.147      2.413
REMARK  Name = 
REMARK  4 active torsions:
REMARK  status: ('A' for Active; 'I' for Inactive)
REMARK    1  A    between atoms: O_1  and  C_2
REMARK    2  A    between atoms: C_2  and  C_3
REMARK    3  A    between atoms: C_9  and  C_10
REMARK    4  A    between atoms: C_13  and  C_14
REMARK                            x       y       z     vdW  Elec       q    Type
REMARK                         _______ _______ _______ _____ _____    ______ ____
ROOT
ATOM      1  C   UNL     1       4.620   4.906  16.970  0.00  0.00    +0.000 A 
ATOM      2  N   UNL     1       4.700   3.569  16.904  0.00  0.00    +0.000 NA
ATOM      3  O   UNL     1       5.517   3.341  15.803  0.00  0.00    +0.000 OA
ATOM      4  C   UNL     1       5.873   4.568  15.306  0.00  0.00    +0.000 A 
ATOM      5  N   UNL     1       5.366   5.550  16.013  0.00  0.00    +0.000 NA
ENDROOT
BRANCH   1  12
ATOM      6  C   UNL     1       3.428   5.060  19.183  0.00  0.00    +0.000 A 
ATOM      7  C   UNL     1       2.640   5.825  20.068  0.00  0.00    +0.000 A 
ATOM      8  C   UNL     1       2.233   7.114  19.738  0.00  0.00    +0.000 A 
ATOM      9 CL   UNL     1       1.289   8.024  20.853  0.00  0.00    +0.000 Cl
ATOM     10  C   UNL     1       2.592   7.673  18.519  0.00  0.00    +0.000 A 
ATOM     11  C   UNL     1       3.367   6.932  17.622  0.00  0.00    +0.000 A 
ATOM     12  C   UNL     1       3.793   5.627  17.936  0.00  0.00    +0.000 A 
BRANCH   6  13
ATOM     13  C   UNL     1       3.882   3.672  19.590  0.00  0.00    +0.000 C 
BRANCH  13  14
ATOM     14  O   UNL     1       2.936   2.675  19.216  0.00  0.00    +0.000 OA
ATOM     15  H   UNL     1       3.413   2.041  18.656  0.00  0.00    +0.000 HD
ENDBRANCH  13  14
ENDBRANCH   6  13
ENDBRANCH   1  12
BRANCH   4  16
ATOM     16  C   UNL     1       6.675   4.764  14.138  0.00  0.00    +0.000 A 
ATOM     17  O   UNL     1       7.794   5.574  14.142  0.00  0.00    +0.000 OA
ATOM     18  C   UNL     1       8.328   5.559  12.894  0.00  0.00    +0.000 A 
ATOM     19  C   UNL     1       7.581   4.762  12.062  0.00  0.00    +0.000 A 
ATOM     20  C   UNL     1       6.529   4.265  12.858  0.00  0.00    +0.000 A 
ATOM     21 BR   UNL     1       5.197   3.129  12.180  0.00  0.00    +0.000 Br
ENDBRANCH   4  16
TORSDOF 4
ENDMDL
MODEL 9
REMARK VINA RESULT:      -6.4      5.553      7.885
REMARK  Name = 
REMARK  4 active torsions:
REMARK  status: ('A' for Active; 'I' for Inactive)
REMARK    1  A    between atoms: O_1  and  C_2
REMARK    2  A    between atoms: C_2  and  C_3
REMARK    3  A    between atoms: C_9  and  C_10
REMARK    4  A    between atoms: C_13  and  C_14
REMARK                            x       y       z     vdW  Elec       q    Type
REMARK                         _______ _______ _______ _____ _____    ______ ____
ROOT
ATOM      1  C   UNL     1       2.587   7.827  18.171  0.00  0.00    +0.000 A 
ATOM      2  N   UNL     1       2.022   8.785  17.421  0.00  0.00    +0.000 NA
ATOM      3  O   UNL     1       1.220   9.478  18.321  0.00  0.00    +0.000 OA
ATOM      4  C   UNL     1       1.384   8.884  19.545  0.00  0.00    +0.000 A 
ATOM      5  N   UNL     1       2.237   7.887  19.498  0.00  0.00    +0.000 NA
ENDROOT
BRANCH   1  12
ATOM      6  C   UNL     1       3.117   5.413  17.686  0.00  0.00    +0.000 A 
ATOM      7  C   UNL     1       4.011   4.470  17.137  0.00  0.00    +0.000 A 
ATOM      8  C   UNL     1       5.208   4.870  16.550  0.00  0.00    +0.000 A 
ATOM      9 CL   UNL     1       6.263   3.692  15.872  0.00  0.00    +0.000 Cl
ATOM     10  C   UNL     1       5.549   6.215  16.498  0.00  0.00    +0.000 A 
ATOM     11  C   UNL     1       4.682   7.168  17.042  0.00  0.00    +0.000 A 
ATOM     12  C   UNL     1       3.465   6.786  17.639  0.00  0.00    +0.000 A 
BRANCH   6  13
ATOM     13  C   UNL     1       1.808   4.944  18.288  0.00  0.00    +0.000 C 
BRANCH  13  14
ATOM     14  O   UNL     1       1.109   4.062  17.414  0.00  0.00    +0.000 OA
ATOM     15  H   UNL     1       0.516   3.533  17.973  0.00  0.00    +0.000 HD
ENDBRANCH  13  14
ENDBRANCH   6  13
ENDBRANCH   1  12
BRANCH   4  16
ATOM     16  C   UNL     1       0.689   9.276  20.732  0.00  0.00    +0.000 A 
ATOM     17  O   UNL     1       0.059   8.360  21.551  0.00  0.00    +0.000 OA
ATOM     18  C   UNL     1      -0.510   9.038  22.581  0.00  0.00    +0.000 A 
ATOM     19  C   UNL     1      -0.277  10.385  22.455  0.00  0.00    +0.000 A 
ATOM     20  C   UNL     1       0.481  10.530  21.275  0.00  0.00    +0.000 A 
ATOM     21 BR   UNL     1       1.047  12.201  20.635  0.00  0.00    +0.000 Br
ENDBRANCH   4  16
TORSDOF 4
ENDMDL
