MODEL 1
REMARK VINA RESULT:      -8.0      0.000      0.000
REMARK  Name = 
REMARK  9 active torsions:
REMARK  status: ('A' for Active; 'I' for Inactive)
REMARK    1  A    between atoms: C_1  and  O_2
REMARK    2  A    between atoms: O_2  and  C_3
REMARK    3  A    between atoms: N_7  and  C_8
REMARK    4  A    between atoms: C_8  and  C_9
REMARK    5  A    between atoms: C_9  and  C_10
REMARK    6  A    between atoms: C_10  and  C_11
REMARK    7  A    between atoms: C_11  and  C_12
REMARK    8  A    between atoms: C_12  and  N_13
REMARK    9  A    between atoms: C_28  and  O_29
REMARK                            x       y       z     vdW  Elec       q    Type
REMARK                         _______ _______ _______ _____ _____    ______ ____
ROOT
ATOM      1  C   UNL     1       3.501   3.311  19.685  0.00  0.00    +0.000 A 
ATOM      2  C   UNL     1       4.481   4.235  19.306  0.00  0.00    +0.000 A 
ATOM      3  C   UNL     1       4.916   4.346  17.957  0.00  0.00    +0.000 A 
ATOM      4  C   UNL     1       5.921   5.197  17.478  0.00  0.00    +0.000 A 
ATOM      5  N   UNL     1       6.578   6.094  18.354  0.00  0.00    +0.000 N 
ATOM      6  N   UNL     1       6.262   5.221  16.177  0.00  0.00    +0.000 NA
ATOM      7  C   UNL     1       5.626   4.425  15.315  0.00  0.00    +0.000 A 
ATOM      8  N   UNL     1       5.991   4.489  14.000  0.00  0.00    +0.000 N 
ATOM      9  C   UNL     1       5.379   3.673  12.970  0.00  0.00    +0.000 C 
ATOM     10  C   UNL     1       6.540   3.348  12.042  0.00  0.00    +0.000 C 
ATOM     11  C   UNL     1       7.456   4.558  12.167  0.00  0.00    +0.000 C 
ATOM     12  C   UNL     1       7.300   4.992  13.624  0.00  0.00    +0.000 C 
ATOM     13  N   UNL     1       4.655   3.588  15.691  0.00  0.00    +0.000 NA
ATOM     14  C   UNL     1       4.319   3.545  16.983  0.00  0.00    +0.000 A 
ATOM     15  C   UNL     1       3.329   2.648  17.365  0.00  0.00    +0.000 A 
ATOM     16  C   UNL     1       2.917   2.524  18.695  0.00  0.00    +0.000 A 
ATOM     17  H   UNL     1       6.858   5.603  19.195  0.00  0.00    +0.000 HD
ENDROOT
BRANCH   1  19
ATOM     18  C   UNL     1       2.049   4.066  21.411  0.00  0.00    +0.000 C 
ATOM     19  O   UNL     1       3.202   3.329  21.019  0.00  0.00    +0.000 OA
ENDBRANCH   1  19
BRANCH  16  20
ATOM     20  O   UNL     1       1.920   1.635  18.985  0.00  0.00    +0.000 OA
ATOM     21  H   UNL     1       2.260   0.952  19.588  0.00  0.00    +0.000 HD
ENDBRANCH  16  20
BRANCH   5  22
ATOM     22  C   UNL     1       7.695   6.786  17.711  0.00  0.00    +0.000 C 
BRANCH  22  23
ATOM     23  C   UNL     1       8.282   7.851  18.625  0.00  0.00    +0.000 C 
BRANCH  23  24
ATOM     24  C   UNL     1       8.302   9.263  18.024  0.00  0.00    +0.000 C 
BRANCH  24  25
ATOM     25  C   UNL     1       9.114  10.152  18.964  0.00  0.00    +0.000 C 
BRANCH  25  26
ATOM     26  C   UNL     1      10.038  11.159  18.275  0.00  0.00    +0.000 C 
BRANCH  26  27
ATOM     27  N   UNL     1      11.160  11.521  19.163  0.00  0.00    +0.000 NA
ATOM     28  C   UNL     1      10.749  11.837  20.542  0.00  0.00    +0.000 C 
ATOM     29  C   UNL     1      10.449  13.318  20.517  0.00  0.00    +0.000 C 
ATOM     30  C   UNL     1      11.602  13.838  19.688  0.00  0.00    +0.000 C 
ATOM     31  C   UNL     1      11.875  12.722  18.682  0.00  0.00    +0.000 C 
ENDBRANCH  26  27
ENDBRANCH  25  26
ENDBRANCH  24  25
ENDBRANCH  23  24
ENDBRANCH  22  23
ENDBRANCH   5  22
TORSDOF 8
ENDMDL
MODEL 2
REMARK VINA RESULT:      -7.7      0.906      1.137
REMARK  Name = 
REMARK  9 active torsions:
REMARK  status: ('A' for Active; 'I' for Inactive)
REMARK    1  A    between atoms: C_1  and  O_2
REMARK    2  A    between atoms: O_2  and  C_3
REMARK    3  A    between atoms: N_7  and  C_8
REMARK    4  A    between atoms: C_8  and  C_9
REMARK    5  A    between atoms: C_9  and  C_10
REMARK    6  A    between atoms: C_10  and  C_11
REMARK    7  A    between atoms: C_11  and  C_12
REMARK    8  A    between atoms: C_12  and  N_13
REMARK    9  A    between atoms: C_28  and  O_29
REMARK                            x       y       z     vdW  Elec       q    Type
REMARK                         _______ _______ _______ _____ _____    ______ ____
ROOT
ATOM      1  C   UNL     1       3.017   3.127  19.666  0.00  0.00    +0.000 A 
ATOM      2  C   UNL     1       4.124   3.938  19.398  0.00  0.00    +0.000 A 
ATOM      3  C   UNL     1       4.628   4.095  18.078  0.00  0.00    +0.000 A 
ATOM      4  C   UNL     1       5.756   4.840  17.705  0.00  0.00    +0.000 A 
ATOM      5  N   UNL     1       6.486   5.570  18.674  0.00  0.00    +0.000 N 
ATOM      6  N   UNL     1       6.154   4.921  16.422  0.00  0.00    +0.000 NA
ATOM      7  C   UNL     1       5.457   4.287  15.477  0.00  0.00    +0.000 A 
ATOM      8  N   UNL     1       5.885   4.405  14.184  0.00  0.00    +0.000 N 
ATOM      9  C   UNL     1       5.217   3.762  13.070  0.00  0.00    +0.000 C 
ATOM     10  C   UNL     1       6.364   3.358  12.156  0.00  0.00    +0.000 C 
ATOM     11  C   UNL     1       7.425   4.421  12.413  0.00  0.00    +0.000 C 
ATOM     12  C   UNL     1       7.263   4.756  13.895  0.00  0.00    +0.000 C 
ATOM     13  N   UNL     1       4.369   3.561  15.749  0.00  0.00    +0.000 NA
ATOM     14  C   UNL     1       3.975   3.461  17.021  0.00  0.00    +0.000 A 
ATOM     15  C   UNL     1       2.860   2.678  17.294  0.00  0.00    +0.000 A 
ATOM     16  C   UNL     1       2.379   2.505  18.594  0.00  0.00    +0.000 A 
ATOM     17  H   UNL     1       6.662   4.980  19.479  0.00  0.00    +0.000 HD
ENDROOT
BRANCH   1  19
ATOM     18  C   UNL     1       2.210   4.292  21.575  0.00  0.00    +0.000 C 
ATOM     19  O   UNL     1       2.664   3.079  20.986  0.00  0.00    +0.000 OA
ENDBRANCH   1  19
BRANCH  16  20
ATOM     20  O   UNL     1       1.262   1.738  18.776  0.00  0.00    +0.000 OA
ATOM     21  H   UNL     1       1.345   0.918  18.259  0.00  0.00    +0.000 HD
ENDBRANCH  16  20
BRANCH   5  22
ATOM     22  C   UNL     1       7.711   6.154  18.128  0.00  0.00    +0.000 C 
BRANCH  22  23
ATOM     23  C   UNL     1       7.569   7.657  17.949  0.00  0.00    +0.000 C 
BRANCH  23  24
ATOM     24  C   UNL     1       8.598   8.491  18.726  0.00  0.00    +0.000 C 
BRANCH  24  25
ATOM     25  C   UNL     1       8.526   9.921  18.198  0.00  0.00    +0.000 C 
BRANCH  25  26
ATOM     26  C   UNL     1       9.563  10.885  18.779  0.00  0.00    +0.000 C 
BRANCH  26  27
ATOM     27  N   UNL     1       9.870  11.957  17.812  0.00  0.00    +0.000 NA
ATOM     28  C   UNL     1      11.132  12.664  18.088  0.00  0.00    +0.000 C 
ATOM     29  C   UNL     1      10.742  13.785  19.024  0.00  0.00    +0.000 C 
ATOM     30  C   UNL     1       9.461  14.270  18.384  0.00  0.00    +0.000 C 
ATOM     31  C   UNL     1       8.827  13.005  17.806  0.00  0.00    +0.000 C 
ENDBRANCH  26  27
ENDBRANCH  25  26
ENDBRANCH  24  25
ENDBRANCH  23  24
ENDBRANCH  22  23
ENDBRANCH   5  22
TORSDOF 8
ENDMDL
MODEL 3
REMARK VINA RESULT:      -7.6      1.052      1.285
REMARK  Name = 
REMARK  9 active torsions:
REMARK  status: ('A' for Active; 'I' for Inactive)
REMARK    1  A    between atoms: C_1  and  O_2
REMARK    2  A    between atoms: O_2  and  C_3
REMARK    3  A    between atoms: N_7  and  C_8
REMARK    4  A    between atoms: C_8  and  C_9
REMARK    5  A    between atoms: C_9  and  C_10
REMARK    6  A    between atoms: C_10  and  C_11
REMARK    7  A    between atoms: C_11  and  C_12
REMARK    8  A    between atoms: C_12  and  N_13
REMARK    9  A    between atoms: C_28  and  O_29
REMARK                            x       y       z     vdW  Elec       q    Type
REMARK                         _______ _______ _______ _____ _____    ______ ____
ROOT
ATOM      1  C   UNL     1       2.691   2.818  19.729  0.00  0.00    +0.000 A 
ATOM      2  C   UNL     1       3.911   3.489  19.585  0.00  0.00    +0.000 A 
ATOM      3  C   UNL     1       4.468   3.752  18.304  0.00  0.00    +0.000 A 
ATOM      4  C   UNL     1       5.701   4.368  18.048  0.00  0.00    +0.000 A 
ATOM      5  N   UNL     1       6.501   4.842  19.115  0.00  0.00    +0.000 N 
ATOM      6  N   UNL     1       6.140   4.566  16.792  0.00  0.00    +0.000 NA
ATOM      7  C   UNL     1       5.387   4.179  15.762  0.00  0.00    +0.000 A 
ATOM      8  N   UNL     1       5.861   4.411  14.502  0.00  0.00    +0.000 N 
ATOM      9  C   UNL     1       5.139   4.032  13.303  0.00  0.00    +0.000 C 
ATOM     10  C   UNL     1       6.241   3.596  12.350  0.00  0.00    +0.000 C 
ATOM     11  C   UNL     1       7.436   4.447  12.761  0.00  0.00    +0.000 C 
ATOM     12  C   UNL     1       7.283   4.593  14.275  0.00  0.00    +0.000 C 
ATOM     13  N   UNL     1       4.198   3.588  15.922  0.00  0.00    +0.000 NA
ATOM     14  C   UNL     1       3.759   3.372  17.164  0.00  0.00    +0.000 A 
ATOM     15  C   UNL     1       2.536   2.729  17.317  0.00  0.00    +0.000 A 
ATOM     16  C   UNL     1       2.000   2.451  18.576  0.00  0.00    +0.000 A 
ATOM     17  H   UNL     1       6.568   4.128  19.831  0.00  0.00    +0.000 HD
ENDROOT
BRANCH   1  19
ATOM     18  C   UNL     1       2.274   3.797  21.856  0.00  0.00    +0.000 C 
ATOM     19  O   UNL     1       2.299   2.640  21.027  0.00  0.00    +0.000 OA
ENDBRANCH   1  19
BRANCH  16  20
ATOM     20  O   UNL     1       0.780   1.837  18.640  0.00  0.00    +0.000 OA
ATOM     21  H   UNL     1       0.281   2.024  17.827  0.00  0.00    +0.000 HD
ENDBRANCH  16  20
BRANCH   5  22
ATOM     22  C   UNL     1       7.811   5.311  18.666  0.00  0.00    +0.000 C 
BRANCH  22  23
ATOM     23  C   UNL     1       7.967   6.807  18.894  0.00  0.00    +0.000 C 
BRANCH  23  24
ATOM     24  C   UNL     1       7.363   7.685  17.788  0.00  0.00    +0.000 C 
BRANCH  24  25
ATOM     25  C   UNL     1       8.369   8.790  17.477  0.00  0.00    +0.000 C 
BRANCH  25  26
ATOM     26  C   UNL     1       8.245  10.048  18.341  0.00  0.00    +0.000 C 
BRANCH  26  27
ATOM     27  N   UNL     1       9.575  10.481  18.813  0.00  0.00    +0.000 NA
ATOM     28  C   UNL     1       9.553  11.144  20.128  0.00  0.00    +0.000 C 
ATOM     29  C   UNL     1       9.321  12.604  19.812  0.00  0.00    +0.000 C 
ATOM     30  C   UNL     1      10.240  12.798  18.627  0.00  0.00    +0.000 C 
ATOM     31  C   UNL     1      10.192  11.460  17.891  0.00  0.00    +0.000 C 
ENDBRANCH  26  27
ENDBRANCH  25  26
ENDBRANCH  24  25
ENDBRANCH  23  24
ENDBRANCH  22  23
ENDBRANCH   5  22
TORSDOF 8
ENDMDL
MODEL 4
REMARK VINA RESULT:      -7.5      0.834      1.055
REMARK  Name = 
REMARK  9 active torsions:
REMARK  status: ('A' for Active; 'I' for Inactive)
REMARK    1  A    between atoms: C_1  and  O_2
REMARK    2  A    between atoms: O_2  and  C_3
REMARK    3  A    between atoms: N_7  and  C_8
REMARK    4  A    between atoms: C_8  and  C_9
REMARK    5  A    between atoms: C_9  and  C_10
REMARK    6  A    between atoms: C_10  and  C_11
REMARK    7  A    between atoms: C_11  and  C_12
REMARK    8  A    between atoms: C_12  and  N_13
REMARK    9  A    between atoms: C_28  and  O_29
REMARK                            x       y       z     vdW  Elec       q    Type
REMARK                         _______ _______ _______ _____ _____    ______ ____
ROOT
ATOM      1  C   UNL     1       3.028   3.851  19.540  0.00  0.00    +0.000 A 
ATOM      2  C   UNL     1       4.108   4.665  19.185  0.00  0.00    +0.000 A 
ATOM      3  C   UNL     1       4.626   4.678  17.861  0.00  0.00    +0.000 A 
ATOM      4  C   UNL     1       5.732   5.413  17.411  0.00  0.00    +0.000 A 
ATOM      5  N   UNL     1       6.419   6.285  18.291  0.00  0.00    +0.000 N 
ATOM      6  N   UNL     1       6.146   5.351  16.133  0.00  0.00    +0.000 NA
ATOM      7  C   UNL     1       5.488   4.580  15.266  0.00  0.00    +0.000 A 
ATOM      8  N   UNL     1       5.931   4.554  13.973  0.00  0.00    +0.000 N 
ATOM      9  C   UNL     1       5.304   3.753  12.939  0.00  0.00    +0.000 C 
ATOM     10  C   UNL     1       6.480   3.285  12.095  0.00  0.00    +0.000 C 
ATOM     11  C   UNL     1       7.496   4.412  12.230  0.00  0.00    +0.000 C 
ATOM     12  C   UNL     1       7.299   4.920  13.658  0.00  0.00    +0.000 C 
ATOM     13  N   UNL     1       4.424   3.851  15.614  0.00  0.00    +0.000 NA
ATOM     14  C   UNL     1       4.014   3.893  16.884  0.00  0.00    +0.000 A 
ATOM     15  C   UNL     1       2.925   3.107  17.240  0.00  0.00    +0.000 A 
ATOM     16  C   UNL     1       2.430   3.077  18.546  0.00  0.00    +0.000 A 
ATOM     17  H   UNL     1       6.604   5.807  19.165  0.00  0.00    +0.000 HD
ENDROOT
BRANCH   1  19
ATOM     18  C   UNL     1       2.571   2.739  21.592  0.00  0.00    +0.000 C 
ATOM     19  O   UNL     1       2.657   3.952  20.852  0.00  0.00    +0.000 OA
ENDBRANCH   1  19
BRANCH  16  20
ATOM     20  O   UNL     1       1.339   2.296  18.809  0.00  0.00    +0.000 OA
ATOM     21  H   UNL     1       0.687   2.810  19.314  0.00  0.00    +0.000 HD
ENDBRANCH  16  20
BRANCH   5  22
ATOM     22  C   UNL     1       7.629   6.845  17.690  0.00  0.00    +0.000 C 
BRANCH  22  23
ATOM     23  C   UNL     1       8.216   7.945  18.561  0.00  0.00    +0.000 C 
BRANCH  23  24
ATOM     24  C   UNL     1       8.222   9.336  17.909  0.00  0.00    +0.000 C 
BRANCH  24  25
ATOM     25  C   UNL     1       9.445  10.085  18.434  0.00  0.00    +0.000 C 
BRANCH  25  26
ATOM     26  C   UNL     1       9.152  11.443  19.078  0.00  0.00    +0.000 C 
BRANCH  26  27
ATOM     27  N   UNL     1      10.397  12.220  19.231  0.00  0.00    +0.000 NA
ATOM     28  C   UNL     1      10.227  13.666  19.010  0.00  0.00    +0.000 C 
ATOM     29  C   UNL     1      10.437  13.850  17.525  0.00  0.00    +0.000 C 
ATOM     30  C   UNL     1      11.628  12.949  17.282  0.00  0.00    +0.000 C 
ATOM     31  C   UNL     1      11.431  11.794  18.263  0.00  0.00    +0.000 C 
ENDBRANCH  26  27
ENDBRANCH  25  26
ENDBRANCH  24  25
ENDBRANCH  23  24
ENDBRANCH  22  23
ENDBRANCH   5  22
TORSDOF 8
ENDMDL
MODEL 5
REMARK VINA RESULT:      -7.3      2.665      5.213
REMARK  Name = 
REMARK  9 active torsions:
REMARK  status: ('A' for Active; 'I' for Inactive)
REMARK    1  A    between atoms: C_1  and  O_2
REMARK    2  A    between atoms: O_2  and  C_3
REMARK    3  A    between atoms: N_7  and  C_8
REMARK    4  A    between atoms: C_8  and  C_9
REMARK    5  A    between atoms: C_9  and  C_10
REMARK    6  A    between atoms: C_10  and  C_11
REMARK    7  A    between atoms: C_11  and  C_12
REMARK    8  A    between atoms: C_12  and  N_13
REMARK    9  A    between atoms: C_28  and  O_29
REMARK                            x       y       z     vdW  Elec       q    Type
REMARK                         _______ _______ _______ _____ _____    ______ ____
ROOT
ATOM      1  C   UNL     1       6.991   4.550  13.184  0.00  0.00    +0.000 A 
ATOM      2  C   UNL     1       7.182   5.315  14.339  0.00  0.00    +0.000 A 
ATOM      3  C   UNL     1       6.355   5.152  15.484  0.00  0.00    +0.000 A 
ATOM      4  C   UNL     1       6.425   5.897  16.670  0.00  0.00    +0.000 A 
ATOM      5  N   UNL     1       7.420   6.891  16.833  0.00  0.00    +0.000 N 
ATOM      6  N   UNL     1       5.589   5.665  17.697  0.00  0.00    +0.000 NA
ATOM      7  C   UNL     1       4.674   4.700  17.596  0.00  0.00    +0.000 A 
ATOM      8  N   UNL     1       3.852   4.485  18.666  0.00  0.00    +0.000 N 
ATOM      9  C   UNL     1       2.816   3.471  18.676  0.00  0.00    +0.000 C 
ATOM     10  C   UNL     1       1.688   4.126  19.458  0.00  0.00    +0.000 C 
ATOM     11  C   UNL     1       2.408   5.055  20.427  0.00  0.00    +0.000 C 
ATOM     12  C   UNL     1       3.628   5.536  19.642  0.00  0.00    +0.000 C 
ATOM     13  N   UNL     1       4.545   3.943  16.501  0.00  0.00    +0.000 NA
ATOM     14  C   UNL     1       5.359   4.175  15.469  0.00  0.00    +0.000 A 
ATOM     15  C   UNL     1       5.194   3.402  14.327  0.00  0.00    +0.000 A 
ATOM     16  C   UNL     1       5.992   3.578  13.193  0.00  0.00    +0.000 A 
ATOM     17  H   UNL     1       7.452   7.477  16.008  0.00  0.00    +0.000 HD
ENDROOT
BRANCH   1  19
ATOM     18  C   UNL     1       8.578   6.063  12.265  0.00  0.00    +0.000 C 
ATOM     19  O   UNL     1       7.866   4.834  12.172  0.00  0.00    +0.000 OA
ENDBRANCH   1  19
BRANCH  16  20
ATOM     20  O   UNL     1       5.781   2.760  12.118  0.00  0.00    +0.000 OA
ATOM     21  H   UNL     1       6.596   2.267  11.922  0.00  0.00    +0.000 HD
ENDBRANCH  16  20
BRANCH   5  22
ATOM     22  C   UNL     1       7.242   7.663  18.063  0.00  0.00    +0.000 C 
BRANCH  22  23
ATOM     23  C   UNL     1       8.527   8.373  18.457  0.00  0.00    +0.000 C 
BRANCH  23  24
ATOM     24  C   UNL     1       8.542   9.878  18.152  0.00  0.00    +0.000 C 
BRANCH  24  25
ATOM     25  C   UNL     1       9.617  10.515  19.029  0.00  0.00    +0.000 C 
BRANCH  25  26
ATOM     26  C   UNL     1       9.364  11.975  19.415  0.00  0.00    +0.000 C 
BRANCH  26  27
ATOM     27  N   UNL     1      10.626  12.739  19.395  0.00  0.00    +0.000 NA
ATOM     28  C   UNL     1      10.521  14.045  18.723  0.00  0.00    +0.000 C 
ATOM     29  C   UNL     1      10.818  13.749  17.271  0.00  0.00    +0.000 C 
ATOM     30  C   UNL     1      11.986  12.798  17.398  0.00  0.00    +0.000 C 
ATOM     31  C   UNL     1      11.696  12.014  18.677  0.00  0.00    +0.000 C 
ENDBRANCH  26  27
ENDBRANCH  25  26
ENDBRANCH  24  25
ENDBRANCH  23  24
ENDBRANCH  22  23
ENDBRANCH   5  22
TORSDOF 8
ENDMDL
MODEL 6
REMARK VINA RESULT:      -7.1      4.701      8.215
REMARK  Name = 
REMARK  9 active torsions:
REMARK  status: ('A' for Active; 'I' for Inactive)
REMARK    1  A    between atoms: C_1  and  O_2
REMARK    2  A    between atoms: O_2  and  C_3
REMARK    3  A    between atoms: N_7  and  C_8
REMARK    4  A    between atoms: C_8  and  C_9
REMARK    5  A    between atoms: C_9  and  C_10
REMARK    6  A    between atoms: C_10  and  C_11
REMARK    7  A    between atoms: C_11  and  C_12
REMARK    8  A    between atoms: C_12  and  N_13
REMARK    9  A    between atoms: C_28  and  O_29
REMARK                            x       y       z     vdW  Elec       q    Type
REMARK                         _______ _______ _______ _____ _____    ______ ____
ROOT
ATOM      1  C   UNL     1       3.233   2.826  20.197  0.00  0.00    +0.000 A 
ATOM      2  C   UNL     1       3.646   3.827  19.311  0.00  0.00    +0.000 A 
ATOM      3  C   UNL     1       3.109   5.142  19.374  0.00  0.00    +0.000 A 
ATOM      4  C   UNL     1       3.413   6.203  18.508  0.00  0.00    +0.000 A 
ATOM      5  N   UNL     1       4.371   6.036  17.479  0.00  0.00    +0.000 N 
ATOM      6  N   UNL     1       2.844   7.413  18.651  0.00  0.00    +0.000 NA
ATOM      7  C   UNL     1       1.976   7.618  19.643  0.00  0.00    +0.000 A 
ATOM      8  N   UNL     1       1.429   8.865  19.764  0.00  0.00    +0.000 N 
ATOM      9  C   UNL     1       0.472   9.212  20.796  0.00  0.00    +0.000 C 
ATOM     10  C   UNL     1      -0.479  10.166  20.089  0.00  0.00    +0.000 C 
ATOM     11  C   UNL     1       0.398  10.849  19.048  0.00  0.00    +0.000 C 
ATOM     12  C   UNL     1       1.384   9.761  18.623  0.00  0.00    +0.000 C 
ATOM     13  N   UNL     1       1.636   6.662  20.512  0.00  0.00    +0.000 NA
ATOM     14  C   UNL     1       2.183   5.452  20.370  0.00  0.00    +0.000 A 
ATOM     15  C   UNL     1       1.798   4.458  21.261  0.00  0.00    +0.000 A 
ATOM     16  C   UNL     1       2.309   3.159  21.186  0.00  0.00    +0.000 A 
ATOM     17  H   UNL     1       4.186   5.173  16.981  0.00  0.00    +0.000 HD
ENDROOT
BRANCH   1  19
ATOM     18  C   UNL     1       3.932   1.155  18.656  0.00  0.00    +0.000 C 
ATOM     19  O   UNL     1       3.841   1.617  19.999  0.00  0.00    +0.000 OA
ENDBRANCH   1  19
BRANCH  16  20
ATOM     20  O   UNL     1       1.897   2.246  22.116  0.00  0.00    +0.000 OA
ATOM     21  H   UNL     1       2.116   2.569  23.006  0.00  0.00    +0.000 HD
ENDBRANCH  16  20
BRANCH   5  22
ATOM     22  C   UNL     1       4.441   7.194  16.588  0.00  0.00    +0.000 C 
BRANCH  22  23
ATOM     23  C   UNL     1       5.203   6.861  15.314  0.00  0.00    +0.000 C 
BRANCH  23  24
ATOM     24  C   UNL     1       6.018   5.562  15.382  0.00  0.00    +0.000 C 
BRANCH  24  25
ATOM     25  C   UNL     1       5.299   4.521  14.527  0.00  0.00    +0.000 C 
BRANCH  25  26
ATOM     26  C   UNL     1       6.206   3.485  13.859  0.00  0.00    +0.000 C 
BRANCH  26  27
ATOM     27  N   UNL     1       6.186   3.651  12.393  0.00  0.00    +0.000 NA
ATOM     28  C   UNL     1       5.139   2.865  11.719  0.00  0.00    +0.000 C 
ATOM     29  C   UNL     1       5.788   1.530  11.438  0.00  0.00    +0.000 C 
ATOM     30  C   UNL     1       7.156   1.962  10.961  0.00  0.00    +0.000 C 
ATOM     31  C   UNL     1       7.459   3.219  11.775  0.00  0.00    +0.000 C 
ENDBRANCH  26  27
ENDBRANCH  25  26
ENDBRANCH  24  25
ENDBRANCH  23  24
ENDBRANCH  22  23
ENDBRANCH   5  22
TORSDOF 8
ENDMDL
MODEL 7
REMARK VINA RESULT:      -7.1      2.659      5.194
REMARK  Name = 
REMARK  9 active torsions:
REMARK  status: ('A' for Active; 'I' for Inactive)
REMARK    1  A    between atoms: C_1  and  O_2
REMARK    2  A    between atoms: O_2  and  C_3
REMARK    3  A    between atoms: N_7  and  C_8
REMARK    4  A    between atoms: C_8  and  C_9
REMARK    5  A    between atoms: C_9  and  C_10
REMARK    6  A    between atoms: C_10  and  C_11
REMARK    7  A    between atoms: C_11  and  C_12
REMARK    8  A    between atoms: C_12  and  N_13
REMARK    9  A    between atoms: C_28  and  O_29
REMARK                            x       y       z     vdW  Elec       q    Type
REMARK                         _______ _______ _______ _____ _____    ______ ____
ROOT
ATOM      1  C   UNL     1       7.009   4.556  13.116  0.00  0.00    +0.000 A 
ATOM      2  C   UNL     1       7.196   5.374  14.235  0.00  0.00    +0.000 A 
ATOM      3  C   UNL     1       6.405   5.224  15.406  0.00  0.00    +0.000 A 
ATOM      4  C   UNL     1       6.473   6.018  16.560  0.00  0.00    +0.000 A 
ATOM      5  N   UNL     1       7.429   7.058  16.658  0.00  0.00    +0.000 N 
ATOM      6  N   UNL     1       5.672   5.794  17.617  0.00  0.00    +0.000 NA
ATOM      7  C   UNL     1       4.796   4.789  17.577  0.00  0.00    +0.000 A 
ATOM      8  N   UNL     1       4.009   4.585  18.676  0.00  0.00    +0.000 N 
ATOM      9  C   UNL     1       3.018   3.530  18.753  0.00  0.00    +0.000 C 
ATOM     10  C   UNL     1       1.882   4.170  19.537  0.00  0.00    +0.000 C 
ATOM     11  C   UNL     1       2.586   5.166  20.449  0.00  0.00    +0.000 C 
ATOM     12  C   UNL     1       3.765   5.664  19.615  0.00  0.00    +0.000 C 
ATOM     13  N   UNL     1       4.672   3.984  16.517  0.00  0.00    +0.000 NA
ATOM     14  C   UNL     1       5.451   4.208  15.456  0.00  0.00    +0.000 A 
ATOM     15  C   UNL     1       5.290   3.383  14.349  0.00  0.00    +0.000 A 
ATOM     16  C   UNL     1       6.052   3.545  13.190  0.00  0.00    +0.000 A 
ATOM     17  H   UNL     1       7.415   7.612  15.810  0.00  0.00    +0.000 HD
ENDROOT
BRANCH   1  19
ATOM     18  C   UNL     1       8.506   6.096  12.095  0.00  0.00    +0.000 C 
ATOM     19  O   UNL     1       7.847   4.835  12.072  0.00  0.00    +0.000 OA
ENDBRANCH   1  19
BRANCH  16  20
ATOM     20  O   UNL     1       5.850   2.677  12.153  0.00  0.00    +0.000 OA
ATOM     21  H   UNL     1       4.964   2.821  11.779  0.00  0.00    +0.000 HD
ENDBRANCH  16  20
BRANCH   5  22
ATOM     22  C   UNL     1       7.248   7.871  17.861  0.00  0.00    +0.000 C 
BRANCH  22  23
ATOM     23  C   UNL     1       8.576   8.127  18.556  0.00  0.00    +0.000 C 
BRANCH  23  24
ATOM     24  C   UNL     1       8.753   9.559  19.081  0.00  0.00    +0.000 C 
BRANCH  24  25
ATOM     25  C   UNL     1       9.183  10.432  17.904  0.00  0.00    +0.000 C 
BRANCH  25  26
ATOM     26  C   UNL     1       9.159  11.940  18.166  0.00  0.00    +0.000 C 
BRANCH  26  27
ATOM     27  N   UNL     1      10.479  12.534  17.877  0.00  0.00    +0.000 NA
ATOM     28  C   UNL     1      11.613  11.663  18.230  0.00  0.00    +0.000 C 
ATOM     29  C   UNL     1      11.912  11.998  19.674  0.00  0.00    +0.000 C 
ATOM     30  C   UNL     1      11.795  13.506  19.657  0.00  0.00    +0.000 C 
ATOM     31  C   UNL     1      10.695  13.785  18.634  0.00  0.00    +0.000 C 
ENDBRANCH  26  27
ENDBRANCH  25  26
ENDBRANCH  24  25
ENDBRANCH  23  24
ENDBRANCH  22  23
ENDBRANCH   5  22
TORSDOF 8
ENDMDL
MODEL 8
REMARK VINA RESULT:      -7.0      2.768      5.269
REMARK  Name = 
REMARK  9 active torsions:
REMARK  status: ('A' for Active; 'I' for Inactive)
REMARK    1  A    between atoms: C_1  and  O_2
REMARK    2  A    between atoms: O_2  and  C_3
REMARK    3  A    between atoms: N_7  and  C_8
REMARK    4  A    between atoms: C_8  and  C_9
REMARK    5  A    between atoms: C_9  and  C_10
REMARK    6  A    between atoms: C_10  and  C_11
REMARK    7  A    between atoms: C_11  and  C_12
REMARK    8  A    between atoms: C_12  and  N_13
REMARK    9  A    between atoms: C_28  and  O_29
REMARK                            x       y       z     vdW  Elec       q    Type
REMARK                         _______ _______ _______ _____ _____    ______ ____
ROOT
ATOM      1  C   UNL     1       6.990   4.558  13.182  0.00  0.00    +0.000 A 
ATOM      2  C   UNL     1       7.220   5.326  14.329  0.00  0.00    +0.000 A 
ATOM      3  C   UNL     1       6.417   5.182  15.493  0.00  0.00    +0.000 A 
ATOM      4  C   UNL     1       6.526   5.932  16.672  0.00  0.00    +0.000 A 
ATOM      5  N   UNL     1       7.540   6.912  16.807  0.00  0.00    +0.000 N 
ATOM      6  N   UNL     1       5.710   5.719  17.720  0.00  0.00    +0.000 NA
ATOM      7  C   UNL     1       4.778   4.768  17.645  0.00  0.00    +0.000 A 
ATOM      8  N   UNL     1       3.977   4.572  18.735  0.00  0.00    +0.000 N 
ATOM      9  C   UNL     1       2.927   3.574  18.775  0.00  0.00    +0.000 C 
ATOM     10  C   UNL     1       1.827   4.251  19.578  0.00  0.00    +0.000 C 
ATOM     11  C   UNL     1       2.583   5.174  20.525  0.00  0.00    +0.000 C 
ATOM     12  C   UNL     1       3.792   5.632  19.710  0.00  0.00    +0.000 C 
ATOM     13  N   UNL     1       4.612   4.007  16.558  0.00  0.00    +0.000 NA
ATOM     14  C   UNL     1       5.406   4.221  15.507  0.00  0.00    +0.000 A 
ATOM     15  C   UNL     1       5.203   3.444  14.372  0.00  0.00    +0.000 A 
ATOM     16  C   UNL     1       5.977   3.602  13.220  0.00  0.00    +0.000 A 
ATOM     17  H   UNL     1       7.561   7.493  15.978  0.00  0.00    +0.000 HD
ENDROOT
BRANCH   1  19
ATOM     18  C   UNL     1       8.665   5.981  12.273  0.00  0.00    +0.000 C 
ATOM     19  O   UNL     1       7.846   4.823  12.149  0.00  0.00    +0.000 OA
ENDBRANCH   1  19
BRANCH  16  20
ATOM     20  O   UNL     1       5.729   2.782  12.155  0.00  0.00    +0.000 OA
ATOM     21  H   UNL     1       4.782   2.812  11.937  0.00  0.00    +0.000 HD
ENDBRANCH  16  20
BRANCH   5  22
ATOM     22  C   UNL     1       7.401   7.693  18.036  0.00  0.00    +0.000 C 
BRANCH  22  23
ATOM     23  C   UNL     1       7.964   9.095  17.862  0.00  0.00    +0.000 C 
BRANCH  23  24
ATOM     24  C   UNL     1       8.930   9.535  18.971  0.00  0.00    +0.000 C 
BRANCH  24  25
ATOM     25  C   UNL     1       9.737  10.716  18.438  0.00  0.00    +0.000 C 
BRANCH  25  26
ATOM     26  C   UNL     1      10.136  11.760  19.484  0.00  0.00    +0.000 C 
BRANCH  26  27
ATOM     27  N   UNL     1      10.130  13.112  18.891  0.00  0.00    +0.000 NA
ATOM     28  C   UNL     1       9.697  14.168  19.821  0.00  0.00    +0.000 C 
ATOM     29  C   UNL     1       8.195  14.222  19.659  0.00  0.00    +0.000 C 
ATOM     30  C   UNL     1       8.056  14.114  18.158  0.00  0.00    +0.000 C 
ATOM     31  C   UNL     1       9.207  13.201  17.738  0.00  0.00    +0.000 C 
ENDBRANCH  26  27
ENDBRANCH  25  26
ENDBRANCH  24  25
ENDBRANCH  23  24
ENDBRANCH  22  23
ENDBRANCH   5  22
TORSDOF 8
ENDMDL
MODEL 9
REMARK VINA RESULT:      -6.9      3.970     10.609
REMARK  Name = 
REMARK  9 active torsions:
REMARK  status: ('A' for Active; 'I' for Inactive)
REMARK    1  A    between atoms: C_1  and  O_2
REMARK    2  A    between atoms: O_2  and  C_3
REMARK    3  A    between atoms: N_7  and  C_8
REMARK    4  A    between atoms: C_8  and  C_9
REMARK    5  A    between atoms: C_9  and  C_10
REMARK    6  A    between atoms: C_10  and  C_11
REMARK    7  A    between atoms: C_11  and  C_12
REMARK    8  A    between atoms: C_12  and  N_13
REMARK    9  A    between atoms: C_28  and  O_29
REMARK                            x       y       z     vdW  Elec       q    Type
REMARK                         _______ _______ _______ _____ _____    ______ ____
ROOT
ATOM      1  C   UNL     1       8.058  12.379  23.971  0.00  0.00    +0.000 A 
ATOM      2  C   UNL     1       8.392  11.788  22.748  0.00  0.00    +0.000 A 
ATOM      3  C   UNL     1       9.034  12.526  21.717  0.00  0.00    +0.000 A 
ATOM      4  C   UNL     1       9.367  12.049  20.441  0.00  0.00    +0.000 A 
ATOM      5  N   UNL     1       9.112  10.701  20.091  0.00  0.00    +0.000 N 
ATOM      6  N   UNL     1       9.972  12.834  19.532  0.00  0.00    +0.000 NA
ATOM      7  C   UNL     1      10.274  14.095  19.848  0.00  0.00    +0.000 A 
ATOM      8  N   UNL     1      10.901  14.857  18.903  0.00  0.00    +0.000 N 
ATOM      9  C   UNL     1      11.276  16.240  19.124  0.00  0.00    +0.000 C 
ATOM     10  C   UNL     1      11.034  16.891  17.771  0.00  0.00    +0.000 C 
ATOM     11  C   UNL     1      11.289  15.768  16.775  0.00  0.00    +0.000 C 
ATOM     12  C   UNL     1      10.798  14.513  17.496  0.00  0.00    +0.000 C 
ATOM     13  N   UNL     1       9.994  14.624  21.044  0.00  0.00    +0.000 NA
ATOM     14  C   UNL     1       9.379  13.858  21.948  0.00  0.00    +0.000 A 
ATOM     15  C   UNL     1       9.066  14.429  23.176  0.00  0.00    +0.000 A 
ATOM     16  C   UNL     1       8.415  13.710  24.181  0.00  0.00    +0.000 A 
ATOM     17  H   UNL     1       8.167  10.454  20.360  0.00  0.00    +0.000 HD
ENDROOT
BRANCH   1  19
ATOM     18  C   UNL     1       6.028  11.662  24.982  0.00  0.00    +0.000 C 
ATOM     19  O   UNL     1       7.440  11.534  24.851  0.00  0.00    +0.000 OA
ENDBRANCH   1  19
BRANCH  16  20
ATOM     20  O   UNL     1       8.164  14.338  25.369  0.00  0.00    +0.000 OA
ATOM     21  H   UNL     1       9.006  14.595  25.783  0.00  0.00    +0.000 HD
ENDBRANCH  16  20
BRANCH   5  22
ATOM     22  C   UNL     1       9.382  10.430  18.679  0.00  0.00    +0.000 C 
BRANCH  22  23
ATOM     23  C   UNL     1       8.245   9.645  18.043  0.00  0.00    +0.000 C 
BRANCH  23  24
ATOM     24  C   UNL     1       8.230   8.151  18.395  0.00  0.00    +0.000 C 
BRANCH  24  25
ATOM     25  C   UNL     1       7.684   7.398  17.184  0.00  0.00    +0.000 C 
BRANCH  25  26
ATOM     26  C   UNL     1       6.224   6.952  17.297  0.00  0.00    +0.000 C 
BRANCH  26  27
ATOM     27  N   UNL     1       6.143   5.489  17.469  0.00  0.00    +0.000 NA
ATOM     28  C   UNL     1       7.264   4.755  16.856  0.00  0.00    +0.000 C 
ATOM     29  C   UNL     1       6.814   4.492  15.437  0.00  0.00    +0.000 C 
ATOM     30  C   UNL     1       5.373   4.088  15.655  0.00  0.00    +0.000 C 
ATOM     31  C   UNL     1       4.923   4.930  16.848  0.00  0.00    +0.000 C 
ENDBRANCH  26  27
ENDBRANCH  25  26
ENDBRANCH  24  25
ENDBRANCH  23  24
ENDBRANCH  22  23
ENDBRANCH   5  22
TORSDOF 8
ENDMDL
