MODEL 1
REMARK VINA RESULT:      -8.4      0.000      0.000
REMARK  Name = 
REMARK  6 active torsions:
REMARK  status: ('A' for Active; 'I' for Inactive)
REMARK    1  A    between atoms: C_2  and  C_3
REMARK    2  A    between atoms: C_2  and  C_16
REMARK    3  A    between atoms: C_4  and  O_5
REMARK    4  A    between atoms: C_4  and  C_6
REMARK    5  A    between atoms: C_14  and  O_15
REMARK    6  A    between atoms: C_19  and  C_20
REMARK                            x       y       z     vdW  Elec       q    Type
REMARK                         _______ _______ _______ _____ _____    ______ ____
ROOT
ATOM      1  C   UNL     1       4.845   6.189  18.122  0.00  0.00    +0.000 C 
ATOM      2  C   UNL     1       3.583   6.077  18.567  0.00  0.00    +0.000 C 
ENDROOT
BRANCH   2   3
ATOM      3  C   UNL     1       2.703   7.253  18.804  0.00  0.00    +0.000 A 
ATOM      4  C   UNL     1       2.601   8.222  17.783  0.00  0.00    +0.000 A 
ATOM      5  C   UNL     1       1.811   9.373  17.908  0.00  0.00    +0.000 A 
ATOM      6  C   UNL     1       1.122   9.522  19.104  0.00  0.00    +0.000 A 
ATOM      7  O   UNL     1       0.303  10.564  19.419  0.00  0.00    +0.000 OA
ATOM      8  C   UNL     1      -0.167  10.337  20.670  0.00  0.00    +0.000 A 
ATOM      9  C   UNL     1       0.337   9.158  21.169  0.00  0.00    +0.000 A 
ATOM     10  C   UNL     1       1.178   8.617  20.156  0.00  0.00    +0.000 A 
ATOM     11  C   UNL     1       1.986   7.469  20.008  0.00  0.00    +0.000 A 
BRANCH  11  12
ATOM     12  O   UNL     1       2.089   6.565  21.046  0.00  0.00    +0.000 OA
ATOM     13  H   UNL     1       1.299   5.999  21.023  0.00  0.00    +0.000 HD
ENDBRANCH  11  12
ENDBRANCH   2   3
BRANCH   1  15
ATOM     14  O   UNL     1       6.163   4.317  18.712  0.00  0.00    +0.000 OA
ATOM     15  C   UNL     1       5.681   5.004  17.817  0.00  0.00    +0.000 C 
BRANCH  15  16
ATOM     16  C   UNL     1       5.920   4.688  16.387  0.00  0.00    +0.000 A 
ATOM     17  C   UNL     1       7.086   5.098  15.726  0.00  0.00    +0.000 A 
ATOM     18  C   UNL     1       7.272   4.789  14.376  0.00  0.00    +0.000 A 
ATOM     19  C   UNL     1       6.293   4.075  13.667  0.00  0.00    +0.000 A 
ATOM     20  C   UNL     1       5.119   3.686  14.335  0.00  0.00    +0.000 A 
ATOM     21  C   UNL     1       4.931   3.996  15.683  0.00  0.00    +0.000 A 
BRANCH  19  22
ATOM     22  C   UNL     1       6.481   3.724  12.211  0.00  0.00    +0.000 C 
ATOM     23  F   UNL     1       7.040   2.497  12.015  0.00  0.00    +0.000 F 
ATOM     24  F   UNL     1       5.305   3.709  11.524  0.00  0.00    +0.000 F 
ATOM     25  F   UNL     1       7.285   4.608  11.560  0.00  0.00    +0.000 F 
ENDBRANCH  19  22
ENDBRANCH  15  16
ENDBRANCH   1  15
BRANCH   2  26
ATOM     26  O   UNL     1       3.001   4.852  18.856  0.00  0.00    +0.000 OA
ATOM     27  H   UNL     1       3.615   4.361  19.447  0.00  0.00    +0.000 HD
ENDBRANCH   2  26
TORSDOF 6
ENDMDL
MODEL 2
REMARK VINA RESULT:      -8.2      0.087      1.234
REMARK  Name = 
REMARK  6 active torsions:
REMARK  status: ('A' for Active; 'I' for Inactive)
REMARK    1  A    between atoms: C_2  and  C_3
REMARK    2  A    between atoms: C_2  and  C_16
REMARK    3  A    between atoms: C_4  and  O_5
REMARK    4  A    between atoms: C_4  and  C_6
REMARK    5  A    between atoms: C_14  and  O_15
REMARK    6  A    between atoms: C_19  and  C_20
REMARK                            x       y       z     vdW  Elec       q    Type
REMARK                         _______ _______ _______ _____ _____    ______ ____
ROOT
ATOM      1  C   UNL     1       4.878   6.216  18.141  0.00  0.00    +0.000 C 
ATOM      2  C   UNL     1       3.595   6.105  18.521  0.00  0.00    +0.000 C 
ENDROOT
BRANCH   2   3
ATOM      3  C   UNL     1       2.722   7.286  18.765  0.00  0.00    +0.000 A 
ATOM      4  C   UNL     1       2.623   8.259  17.749  0.00  0.00    +0.000 A 
ATOM      5  C   UNL     1       1.840   9.414  17.881  0.00  0.00    +0.000 A 
ATOM      6  C   UNL     1       1.154   9.561  19.080  0.00  0.00    +0.000 A 
ATOM      7  O   UNL     1       0.343  10.607  19.401  0.00  0.00    +0.000 OA
ATOM      8  C   UNL     1      -0.126  10.377  20.653  0.00  0.00    +0.000 A 
ATOM      9  C   UNL     1       0.374   9.193  21.146  0.00  0.00    +0.000 A 
ATOM     10  C   UNL     1       1.209   8.652  20.128  0.00  0.00    +0.000 A 
ATOM     11  C   UNL     1       2.010   7.500  19.972  0.00  0.00    +0.000 A 
BRANCH  11  12
ATOM     12  O   UNL     1       2.110   6.591  21.006  0.00  0.00    +0.000 OA
ATOM     13  H   UNL     1       3.040   6.566  21.287  0.00  0.00    +0.000 HD
ENDBRANCH  11  12
ENDBRANCH   2   3
BRANCH   1  15
ATOM     14  O   UNL     1       6.247   4.373  18.713  0.00  0.00    +0.000 OA
ATOM     15  C   UNL     1       5.711   5.030  17.825  0.00  0.00    +0.000 C 
BRANCH  15  16
ATOM     16  C   UNL     1       5.878   4.676  16.394  0.00  0.00    +0.000 A 
ATOM     17  C   UNL     1       4.973   3.833  15.733  0.00  0.00    +0.000 A 
ATOM     18  C   UNL     1       5.169   3.515  14.386  0.00  0.00    +0.000 A 
ATOM     19  C   UNL     1       6.272   4.026  13.686  0.00  0.00    +0.000 A 
ATOM     20  C   UNL     1       7.183   4.855  14.364  0.00  0.00    +0.000 A 
ATOM     21  C   UNL     1       6.991   5.171  15.710  0.00  0.00    +0.000 A 
BRANCH  19  22
ATOM     22  C   UNL     1       6.494   3.700  12.228  0.00  0.00    +0.000 C 
ATOM     23  F   UNL     1       5.356   3.754  11.480  0.00  0.00    +0.000 F 
ATOM     24  F   UNL     1       7.370   4.556  11.632  0.00  0.00    +0.000 F 
ATOM     25  F   UNL     1       7.003   2.452  12.044  0.00  0.00    +0.000 F 
ENDBRANCH  19  22
ENDBRANCH  15  16
ENDBRANCH   1  15
BRANCH   2  26
ATOM     26  O   UNL     1       2.982   4.880  18.730  0.00  0.00    +0.000 OA
ATOM     27  H   UNL     1       3.607   4.316  19.240  0.00  0.00    +0.000 HD
ENDBRANCH   2  26
TORSDOF 6
ENDMDL
MODEL 3
REMARK VINA RESULT:      -7.5      1.822      3.054
REMARK  Name = 
REMARK  6 active torsions:
REMARK  status: ('A' for Active; 'I' for Inactive)
REMARK    1  A    between atoms: C_2  and  C_3
REMARK    2  A    between atoms: C_2  and  C_16
REMARK    3  A    between atoms: C_4  and  O_5
REMARK    4  A    between atoms: C_4  and  C_6
REMARK    5  A    between atoms: C_14  and  O_15
REMARK    6  A    between atoms: C_19  and  C_20
REMARK                            x       y       z     vdW  Elec       q    Type
REMARK                         _______ _______ _______ _____ _____    ______ ____
ROOT
ATOM      1  C   UNL     1       2.276   7.585  19.054  0.00  0.00    +0.000 C 
ATOM      2  C   UNL     1       1.705   8.159  20.126  0.00  0.00    +0.000 C 
ENDROOT
BRANCH   2   3
ATOM      3  C   UNL     1       0.940   9.433  20.047  0.00  0.00    +0.000 A 
ATOM      4  C   UNL     1       0.375   9.791  18.805  0.00  0.00    +0.000 A 
ATOM      5  C   UNL     1      -0.353  10.974  18.618  0.00  0.00    +0.000 A 
ATOM      6  C   UNL     1      -0.495  11.794  19.730  0.00  0.00    +0.000 A 
ATOM      7  O   UNL     1      -1.165  12.980  19.756  0.00  0.00    +0.000 OA
ATOM      8  C   UNL     1      -1.065  13.466  21.018  0.00  0.00    +0.000 A 
ATOM      9  C   UNL     1      -0.338  12.607  21.810  0.00  0.00    +0.000 A 
ATOM     10  C   UNL     1       0.038  11.513  20.981  0.00  0.00    +0.000 A 
ATOM     11  C   UNL     1       0.772  10.319  21.141  0.00  0.00    +0.000 A 
BRANCH  11  12
ATOM     12  O   UNL     1       1.342  10.023  22.363  0.00  0.00    +0.000 OA
ATOM     13  H   UNL     1       0.657  10.137  23.043  0.00  0.00    +0.000 HD
ENDBRANCH  11  12
ENDBRANCH   2   3
BRANCH   1  15
ATOM     14  O   UNL     1       2.906   5.585  20.148  0.00  0.00    +0.000 OA
ATOM     15  C   UNL     1       2.967   6.277  19.136  0.00  0.00    +0.000 C 
BRANCH  15  16
ATOM     16  C   UNL     1       3.744   5.840  17.949  0.00  0.00    +0.000 A 
ATOM     17  C   UNL     1       4.421   6.758  17.134  0.00  0.00    +0.000 A 
ATOM     18  C   UNL     1       5.135   6.310  16.019  0.00  0.00    +0.000 A 
ATOM     19  C   UNL     1       5.176   4.944  15.701  0.00  0.00    +0.000 A 
ATOM     20  C   UNL     1       4.478   4.035  16.515  0.00  0.00    +0.000 A 
ATOM     21  C   UNL     1       3.761   4.481  17.627  0.00  0.00    +0.000 A 
BRANCH  19  22
ATOM     22  C   UNL     1       5.950   4.441  14.506  0.00  0.00    +0.000 C 
ATOM     23  F   UNL     1       6.653   3.299  14.754  0.00  0.00    +0.000 F 
ATOM     24  F   UNL     1       5.144   4.155  13.447  0.00  0.00    +0.000 F 
ATOM     25  F   UNL     1       6.859   5.347  14.053  0.00  0.00    +0.000 F 
ENDBRANCH  19  22
ENDBRANCH  15  16
ENDBRANCH   1  15
BRANCH   2  26
ATOM     26  O   UNL     1       1.795   7.616  21.398  0.00  0.00    +0.000 OA
ATOM     27  H   UNL     1       0.882   7.409  21.701  0.00  0.00    +0.000 HD
ENDBRANCH   2  26
TORSDOF 6
ENDMDL
MODEL 4
REMARK VINA RESULT:      -7.5      5.555      9.130
REMARK  Name = 
REMARK  6 active torsions:
REMARK  status: ('A' for Active; 'I' for Inactive)
REMARK    1  A    between atoms: C_2  and  C_3
REMARK    2  A    between atoms: C_2  and  C_16
REMARK    3  A    between atoms: C_4  and  O_5
REMARK    4  A    between atoms: C_4  and  C_6
REMARK    5  A    between atoms: C_14  and  O_15
REMARK    6  A    between atoms: C_19  and  C_20
REMARK                            x       y       z     vdW  Elec       q    Type
REMARK                         _______ _______ _______ _____ _____    ______ ____
ROOT
ATOM      1  C   UNL     1       1.345   9.140  18.788  0.00  0.00    +0.000 C 
ATOM      2  C   UNL     1       1.835   8.231  19.646  0.00  0.00    +0.000 C 
ENDROOT
BRANCH   2   3
ATOM      3  C   UNL     1       2.562   7.011  19.200  0.00  0.00    +0.000 A 
ATOM      4  C   UNL     1       3.282   7.074  17.988  0.00  0.00    +0.000 A 
ATOM      5  C   UNL     1       3.990   5.980  17.471  0.00  0.00    +0.000 A 
ATOM      6  C   UNL     1       3.948   4.810  18.217  0.00  0.00    +0.000 A 
ATOM      7  O   UNL     1       4.569   3.642  17.888  0.00  0.00    +0.000 OA
ATOM      8  C   UNL     1       4.277   2.748  18.866  0.00  0.00    +0.000 A 
ATOM      9  C   UNL     1       3.475   3.324  19.824  0.00  0.00    +0.000 A 
ATOM     10  C   UNL     1       3.255   4.669  19.412  0.00  0.00    +0.000 A 
ATOM     11  C   UNL     1       2.545   5.783  19.908  0.00  0.00    +0.000 A 
BRANCH  11  12
ATOM     12  O   UNL     1       1.820   5.669  21.077  0.00  0.00    +0.000 OA
ATOM     13  H   UNL     1       1.261   6.460  21.156  0.00  0.00    +0.000 HD
ENDBRANCH  11  12
ENDBRANCH   2   3
BRANCH   1  15
ATOM     14  O   UNL     1       1.273  11.172  19.996  0.00  0.00    +0.000 OA
ATOM     15  C   UNL     1       0.693  10.389  19.251  0.00  0.00    +0.000 C 
BRANCH  15  16
ATOM     16  C   UNL     1      -0.692  10.648  18.785  0.00  0.00    +0.000 A 
ATOM     17  C   UNL     1      -1.518  11.588  19.417  0.00  0.00    +0.000 A 
ATOM     18  C   UNL     1      -2.820  11.799  18.955  0.00  0.00    +0.000 A 
ATOM     19  C   UNL     1      -3.316  11.069  17.863  0.00  0.00    +0.000 A 
ATOM     20  C   UNL     1      -2.485  10.116  17.249  0.00  0.00    +0.000 A 
ATOM     21  C   UNL     1      -1.185   9.902  17.712  0.00  0.00    +0.000 A 
BRANCH  19  22
ATOM     22  C   UNL     1      -4.716  11.291  17.344  0.00  0.00    +0.000 C 
ATOM     23  F   UNL     1      -5.152  12.575  17.486  0.00  0.00    +0.000 F 
ATOM     24  F   UNL     1      -4.831  11.006  16.018  0.00  0.00    +0.000 F 
ATOM     25  F   UNL     1      -5.637  10.514  17.977  0.00  0.00    +0.000 F 
ENDBRANCH  19  22
ENDBRANCH  15  16
ENDBRANCH   1  15
BRANCH   2  26
ATOM     26  O   UNL     1       1.691   8.348  21.019  0.00  0.00    +0.000 OA
ATOM     27  H   UNL     1       1.048   7.665  21.313  0.00  0.00    +0.000 HD
ENDBRANCH   2  26
TORSDOF 6
ENDMDL
MODEL 5
REMARK VINA RESULT:      -7.5      1.025      1.163
REMARK  Name = 
REMARK  6 active torsions:
REMARK  status: ('A' for Active; 'I' for Inactive)
REMARK    1  A    between atoms: C_2  and  C_3
REMARK    2  A    between atoms: C_2  and  C_16
REMARK    3  A    between atoms: C_4  and  O_5
REMARK    4  A    between atoms: C_4  and  C_6
REMARK    5  A    between atoms: C_14  and  O_15
REMARK    6  A    between atoms: C_19  and  C_20
REMARK                            x       y       z     vdW  Elec       q    Type
REMARK                         _______ _______ _______ _____ _____    ______ ____
ROOT
ATOM      1  C   UNL     1       3.894   6.743  18.169  0.00  0.00    +0.000 C 
ATOM      2  C   UNL     1       2.974   6.847  19.142  0.00  0.00    +0.000 C 
ENDROOT
BRANCH   2   3
ATOM      3  C   UNL     1       2.021   7.987  19.231  0.00  0.00    +0.000 A 
ATOM      4  C   UNL     1       1.683   8.664  18.041  0.00  0.00    +0.000 A 
ATOM      5  C   UNL     1       0.806   9.757  18.015  0.00  0.00    +0.000 A 
ATOM      6  C   UNL     1       0.277  10.153  19.236  0.00  0.00    +0.000 A 
ATOM      7  O   UNL     1      -0.591  11.187  19.422  0.00  0.00    +0.000 OA
ATOM      8  C   UNL     1      -0.859  11.247  20.751  0.00  0.00    +0.000 A 
ATOM      9  C   UNL     1      -0.174  10.263  21.427  0.00  0.00    +0.000 A 
ATOM     10  C   UNL     1       0.568   9.543  20.449  0.00  0.00    +0.000 A 
ATOM     11  C   UNL     1       1.459   8.448  20.449  0.00  0.00    +0.000 A 
BRANCH  11  12
ATOM     12  O   UNL     1       1.795   7.838  21.641  0.00  0.00    +0.000 OA
ATOM     13  H   UNL     1       2.601   7.318  21.489  0.00  0.00    +0.000 HD
ENDBRANCH  11  12
ENDBRANCH   2   3
BRANCH   1  15
ATOM     14  O   UNL     1       5.206   4.980  19.043  0.00  0.00    +0.000 OA
ATOM     15  C   UNL     1       4.782   5.562  18.049  0.00  0.00    +0.000 C 
BRANCH  15  16
ATOM     16  C   UNL     1       5.146   5.119  16.680  0.00  0.00    +0.000 A 
ATOM     17  C   UNL     1       5.274   6.028  15.621  0.00  0.00    +0.000 A 
ATOM     18  C   UNL     1       5.610   5.572  14.344  0.00  0.00    +0.000 A 
ATOM     19  C   UNL     1       5.814   4.204  14.106  0.00  0.00    +0.000 A 
ATOM     20  C   UNL     1       5.665   3.300  15.172  0.00  0.00    +0.000 A 
ATOM     21  C   UNL     1       5.326   3.753  16.448  0.00  0.00    +0.000 A 
BRANCH  19  22
ATOM     22  C   UNL     1       6.187   3.694  12.735  0.00  0.00    +0.000 C 
ATOM     23  F   UNL     1       6.633   2.406  12.736  0.00  0.00    +0.000 F 
ATOM     24  F   UNL     1       5.137   3.721  11.868  0.00  0.00    +0.000 F 
ATOM     25  F   UNL     1       7.174   4.429  12.154  0.00  0.00    +0.000 F 
ENDBRANCH  19  22
ENDBRANCH  15  16
ENDBRANCH   1  15
BRANCH   2  26
ATOM     26  O   UNL     1       2.846   5.906  20.151  0.00  0.00    +0.000 OA
ATOM     27  H   UNL     1       3.718   5.464  20.260  0.00  0.00    +0.000 HD
ENDBRANCH   2  26
TORSDOF 6
ENDMDL
MODEL 6
REMARK VINA RESULT:      -7.5      0.934      1.161
REMARK  Name = 
REMARK  6 active torsions:
REMARK  status: ('A' for Active; 'I' for Inactive)
REMARK    1  A    between atoms: C_2  and  C_3
REMARK    2  A    between atoms: C_2  and  C_16
REMARK    3  A    between atoms: C_4  and  O_5
REMARK    4  A    between atoms: C_4  and  C_6
REMARK    5  A    between atoms: C_14  and  O_15
REMARK    6  A    between atoms: C_19  and  C_20
REMARK                            x       y       z     vdW  Elec       q    Type
REMARK                         _______ _______ _______ _____ _____    ______ ____
ROOT
ATOM      1  C   UNL     1       4.191   6.662  18.292  0.00  0.00    +0.000 C 
ATOM      2  C   UNL     1       3.050   6.634  18.999  0.00  0.00    +0.000 C 
ENDROOT
BRANCH   2   3
ATOM      3  C   UNL     1       2.134   7.803  19.096  0.00  0.00    +0.000 A 
ATOM      4  C   UNL     1       1.875   8.543  17.923  0.00  0.00    +0.000 A 
ATOM      5  C   UNL     1       1.039   9.668  17.907  0.00  0.00    +0.000 A 
ATOM      6  C   UNL     1       0.466  10.029  19.120  0.00  0.00    +0.000 A 
ATOM      7  O   UNL     1      -0.373  11.084  19.313  0.00  0.00    +0.000 OA
ATOM      8  C   UNL     1      -0.701  11.096  20.629  0.00  0.00    +0.000 A 
ATOM      9  C   UNL     1      -0.084  10.060  21.290  0.00  0.00    +0.000 A 
ATOM     10  C   UNL     1       0.679   9.357  20.315  0.00  0.00    +0.000 A 
ATOM     11  C   UNL     1       1.531   8.231  20.306  0.00  0.00    +0.000 A 
BRANCH  11  12
ATOM     12  O   UNL     1       1.789   7.557  21.484  0.00  0.00    +0.000 OA
ATOM     13  H   UNL     1       1.535   8.140  22.218  0.00  0.00    +0.000 HD
ENDBRANCH  11  12
ENDBRANCH   2   3
BRANCH   1  15
ATOM     14  O   UNL     1       5.536   4.899  19.117  0.00  0.00    +0.000 OA
ATOM     15  C   UNL     1       5.052   5.465  18.140  0.00  0.00    +0.000 C 
BRANCH  15  16
ATOM     16  C   UNL     1       5.315   4.983  16.761  0.00  0.00    +0.000 A 
ATOM     17  C   UNL     1       5.489   3.622  16.477  0.00  0.00    +0.000 A 
ATOM     18  C   UNL     1       5.744   3.208  15.166  0.00  0.00    +0.000 A 
ATOM     19  C   UNL     1       5.835   4.146  14.127  0.00  0.00    +0.000 A 
ATOM     20  C   UNL     1       5.677   5.510  14.427  0.00  0.00    +0.000 A 
ATOM     21  C   UNL     1       5.426   5.926  15.736  0.00  0.00    +0.000 A 
BRANCH  19  22
ATOM     22  C   UNL     1       6.100   3.716  12.704  0.00  0.00    +0.000 C 
ATOM     23  F   UNL     1       6.537   2.429  12.598  0.00  0.00    +0.000 F 
ATOM     24  F   UNL     1       4.989   3.795  11.921  0.00  0.00    +0.000 F 
ATOM     25  F   UNL     1       7.046   4.481  12.094  0.00  0.00    +0.000 F 
ENDBRANCH  19  22
ENDBRANCH  15  16
ENDBRANCH   1  15
BRANCH   2  26
ATOM     26  O   UNL     1       2.639   5.517  19.709  0.00  0.00    +0.000 OA
ATOM     27  H   UNL     1       2.698   4.741  19.107  0.00  0.00    +0.000 HD
ENDBRANCH   2  26
TORSDOF 6
ENDMDL
MODEL 7
REMARK VINA RESULT:      -7.4      1.924      3.379
REMARK  Name = 
REMARK  6 active torsions:
REMARK  status: ('A' for Active; 'I' for Inactive)
REMARK    1  A    between atoms: C_2  and  C_3
REMARK    2  A    between atoms: C_2  and  C_16
REMARK    3  A    between atoms: C_4  and  O_5
REMARK    4  A    between atoms: C_4  and  C_6
REMARK    5  A    between atoms: C_14  and  O_15
REMARK    6  A    between atoms: C_19  and  C_20
REMARK                            x       y       z     vdW  Elec       q    Type
REMARK                         _______ _______ _______ _____ _____    ______ ____
ROOT
ATOM      1  C   UNL     1       1.955   7.619  19.180  0.00  0.00    +0.000 C 
ATOM      2  C   UNL     1       1.581   8.338  20.251  0.00  0.00    +0.000 C 
ENDROOT
BRANCH   2   3
ATOM      3  C   UNL     1       0.832   9.619  20.141  0.00  0.00    +0.000 A 
ATOM      4  C   UNL     1       1.092  10.446  19.028  0.00  0.00    +0.000 A 
ATOM      5  C   UNL     1       0.451  11.677  18.834  0.00  0.00    +0.000 A 
ATOM      6  C   UNL     1      -0.466  12.056  19.806  0.00  0.00    +0.000 A 
ATOM      7  O   UNL     1      -1.191  13.209  19.800  0.00  0.00    +0.000 OA
ATOM      8  C   UNL     1      -1.959  13.202  20.919  0.00  0.00    +0.000 A 
ATOM      9  C   UNL     1      -1.738  12.056  21.649  0.00  0.00    +0.000 A 
ATOM     10  C   UNL     1      -0.768  11.301  20.931  0.00  0.00    +0.000 A 
ATOM     11  C   UNL     1      -0.104  10.067  21.106  0.00  0.00    +0.000 A 
BRANCH  11  12
ATOM     12  O   UNL     1      -0.358   9.306  22.230  0.00  0.00    +0.000 OA
ATOM     13  H   UNL     1      -1.285   9.452  22.481  0.00  0.00    +0.000 HD
ENDBRANCH  11  12
ENDBRANCH   2   3
BRANCH   1  15
ATOM     14  O   UNL     1       2.508   5.622  20.320  0.00  0.00    +0.000 OA
ATOM     15  C   UNL     1       2.631   6.307  19.309  0.00  0.00    +0.000 C 
BRANCH  15  16
ATOM     16  C   UNL     1       3.471   5.858  18.171  0.00  0.00    +0.000 A 
ATOM     17  C   UNL     1       4.222   6.762  17.407  0.00  0.00    +0.000 A 
ATOM     18  C   UNL     1       4.994   6.302  16.336  0.00  0.00    +0.000 A 
ATOM     19  C   UNL     1       5.022   4.937  16.012  0.00  0.00    +0.000 A 
ATOM     20  C   UNL     1       4.251   4.042  16.773  0.00  0.00    +0.000 A 
ATOM     21  C   UNL     1       3.476   4.500  17.841  0.00  0.00    +0.000 A 
BRANCH  19  22
ATOM     22  C   UNL     1       5.858   4.422  14.865  0.00  0.00    +0.000 C 
ATOM     23  F   UNL     1       6.889   5.249  14.530  0.00  0.00    +0.000 F 
ATOM     24  F   UNL     1       6.426   3.215  15.137  0.00  0.00    +0.000 F 
ATOM     25  F   UNL     1       5.134   4.249  13.727  0.00  0.00    +0.000 F 
ENDBRANCH  19  22
ENDBRANCH  15  16
ENDBRANCH   1  15
BRANCH   2  26
ATOM     26  O   UNL     1       1.878   7.951  21.548  0.00  0.00    +0.000 OA
ATOM     27  H   UNL     1       1.812   8.747  22.121  0.00  0.00    +0.000 HD
ENDBRANCH   2  26
TORSDOF 6
ENDMDL
MODEL 8
REMARK VINA RESULT:      -7.4      5.748      9.211
REMARK  Name = 
REMARK  6 active torsions:
REMARK  status: ('A' for Active; 'I' for Inactive)
REMARK    1  A    between atoms: C_2  and  C_3
REMARK    2  A    between atoms: C_2  and  C_16
REMARK    3  A    between atoms: C_4  and  O_5
REMARK    4  A    between atoms: C_4  and  C_6
REMARK    5  A    between atoms: C_14  and  O_15
REMARK    6  A    between atoms: C_19  and  C_20
REMARK                            x       y       z     vdW  Elec       q    Type
REMARK                         _______ _______ _______ _____ _____    ______ ____
ROOT
ATOM      1  C   UNL     1       1.444   9.290  18.350  0.00  0.00    +0.000 C 
ATOM      2  C   UNL     1       1.833   8.411  19.288  0.00  0.00    +0.000 C 
ENDROOT
BRANCH   2   3
ATOM      3  C   UNL     1       2.535   7.141  18.961  0.00  0.00    +0.000 A 
ATOM      4  C   UNL     1       3.361   7.114  17.817  0.00  0.00    +0.000 A 
ATOM      5  C   UNL     1       4.056   5.967  17.412  0.00  0.00    +0.000 A 
ATOM      6  C   UNL     1       3.893   4.835  18.201  0.00  0.00    +0.000 A 
ATOM      7  O   UNL     1       4.482   3.627  17.979  0.00  0.00    +0.000 OA
ATOM      8  C   UNL     1       4.063   2.794  18.964  0.00  0.00    +0.000 A 
ATOM      9  C   UNL     1       3.209   3.449  19.821  0.00  0.00    +0.000 A 
ATOM     10  C   UNL     1       3.092   4.782  19.334  0.00  0.00    +0.000 A 
ATOM     11  C   UNL     1       2.397   5.949  19.716  0.00  0.00    +0.000 A 
BRANCH  11  12
ATOM     12  O   UNL     1       1.568   5.922  20.820  0.00  0.00    +0.000 OA
ATOM     13  H   UNL     1       0.657   6.045  20.508  0.00  0.00    +0.000 HD
ENDBRANCH  11  12
ENDBRANCH   2   3
BRANCH   1  15
ATOM     14  O   UNL     1       1.476  11.508  19.170  0.00  0.00    +0.000 OA
ATOM     15  C   UNL     1       0.817  10.587  18.698  0.00  0.00    +0.000 C 
BRANCH  15  16
ATOM     16  C   UNL     1      -0.642  10.724  18.461  0.00  0.00    +0.000 A 
ATOM     17  C   UNL     1      -1.319   9.912  17.541  0.00  0.00    +0.000 A 
ATOM     18  C   UNL     1      -2.692  10.077  17.339  0.00  0.00    +0.000 A 
ATOM     19  C   UNL     1      -3.404  11.058  18.046  0.00  0.00    +0.000 A 
ATOM     20  C   UNL     1      -2.711  11.879  18.952  0.00  0.00    +0.000 A 
ATOM     21  C   UNL     1      -1.339  11.718  19.153  0.00  0.00    +0.000 A 
BRANCH  19  22
ATOM     22  C   UNL     1      -4.889  11.244  17.847  0.00  0.00    +0.000 C 
ATOM     23  F   UNL     1      -5.269  11.222  16.538  0.00  0.00    +0.000 F 
ATOM     24  F   UNL     1      -5.621  10.273  18.461  0.00  0.00    +0.000 F 
ATOM     25  F   UNL     1      -5.339  12.427  18.346  0.00  0.00    +0.000 F 
ENDBRANCH  19  22
ENDBRANCH  15  16
ENDBRANCH   1  15
BRANCH   2  26
ATOM     26  O   UNL     1       1.598   8.611  20.639  0.00  0.00    +0.000 OA
ATOM     27  H   UNL     1       1.903   7.808  21.118  0.00  0.00    +0.000 HD
ENDBRANCH   2  26
TORSDOF 6
ENDMDL
MODEL 9
REMARK VINA RESULT:      -7.4      3.713      5.436
REMARK  Name = 
REMARK  6 active torsions:
REMARK  status: ('A' for Active; 'I' for Inactive)
REMARK    1  A    between atoms: C_2  and  C_3
REMARK    2  A    between atoms: C_2  and  C_16
REMARK    3  A    between atoms: C_4  and  O_5
REMARK    4  A    between atoms: C_4  and  C_6
REMARK    5  A    between atoms: C_14  and  O_15
REMARK    6  A    between atoms: C_19  and  C_20
REMARK                            x       y       z     vdW  Elec       q    Type
REMARK                         _______ _______ _______ _____ _____    ______ ____
ROOT
ATOM      1  C   UNL     1       1.894   8.440  19.359  0.00  0.00    +0.000 C 
ATOM      2  C   UNL     1       1.071   9.488  19.192  0.00  0.00    +0.000 C 
ENDROOT
BRANCH   2   3
ATOM      3  C   UNL     1       0.469  10.230  20.333  0.00  0.00    +0.000 A 
ATOM      4  C   UNL     1      -0.026   9.483  21.423  0.00  0.00    +0.000 A 
ATOM      5  C   UNL     1      -0.623  10.081  22.541  0.00  0.00    +0.000 A 
ATOM      6  C   UNL     1      -0.710  11.466  22.528  0.00  0.00    +0.000 A 
ATOM      7  O   UNL     1      -1.251  12.233  23.515  0.00  0.00    +0.000 OA
ATOM      8  C   UNL     1      -1.148  13.525  23.117  0.00  0.00    +0.000 A 
ATOM      9  C   UNL     1      -0.545  13.605  21.883  0.00  0.00    +0.000 A 
ATOM     10  C   UNL     1      -0.254  12.268  21.489  0.00  0.00    +0.000 A 
ATOM     11  C   UNL     1       0.338  11.641  20.372  0.00  0.00    +0.000 A 
BRANCH  11  12
ATOM     12  O   UNL     1       0.774  12.406  19.308  0.00  0.00    +0.000 OA
ATOM     13  H   UNL     1       1.691  12.148  19.117  0.00  0.00    +0.000 HD
ENDBRANCH  11  12
ENDBRANCH   2   3
BRANCH   1  15
ATOM     14  O   UNL     1       2.866   8.381  17.204  0.00  0.00    +0.000 OA
ATOM     15  C   UNL     1       2.548   7.762  18.214  0.00  0.00    +0.000 C 
BRANCH  15  16
ATOM     16  C   UNL     1       2.793   6.303  18.335  0.00  0.00    +0.000 A 
ATOM     17  C   UNL     1       3.660   5.627  17.466  0.00  0.00    +0.000 A 
ATOM     18  C   UNL     1       3.859   4.250  17.606  0.00  0.00    +0.000 A 
ATOM     19  C   UNL     1       3.189   3.532  18.609  0.00  0.00    +0.000 A 
ATOM     20  C   UNL     1       2.308   4.217  19.462  0.00  0.00    +0.000 A 
ATOM     21  C   UNL     1       2.106   5.592  19.322  0.00  0.00    +0.000 A 
BRANCH  19  22
ATOM     22  C   UNL     1       3.399   2.046  18.780  0.00  0.00    +0.000 C 
ATOM     23  F   UNL     1       2.275   1.380  19.167  0.00  0.00    +0.000 F 
ATOM     24  F   UNL     1       3.809   1.443  17.630  0.00  0.00    +0.000 F 
ATOM     25  F   UNL     1       4.344   1.757  19.715  0.00  0.00    +0.000 F 
ENDBRANCH  19  22
ENDBRANCH  15  16
ENDBRANCH   1  15
BRANCH   2  26
ATOM     26  O   UNL     1       0.704   9.955  17.940  0.00  0.00    +0.000 OA
ATOM     27  H   UNL     1       0.056  10.684  18.070  0.00  0.00    +0.000 HD
ENDBRANCH   2  26
TORSDOF 6
ENDMDL
