MODEL 1
REMARK VINA RESULT:      -8.5      0.000      0.000
REMARK  Name = 
REMARK  11 active torsions:
REMARK  status: ('A' for Active; 'I' for Inactive)
REMARK    1  A    between atoms: C_2  and  C_3
REMARK    2  A    between atoms: C_3  and  C_4
REMARK    3  A    between atoms: C_4  and  C_5
REMARK    4  A    between atoms: C_5  and  C_6
REMARK    5  A    between atoms: C_6  and  C_7
REMARK    6  A    between atoms: C_7  and  N_8
REMARK    7  A    between atoms: N_8  and  C_9
REMARK    8  A    between atoms: N_23  and  C_24
REMARK    9  A    between atoms: C_24  and  C_25
REMARK   10  A    between atoms: C_25  and  C_26
REMARK   11  A    between atoms: C_26  and  C_27
REMARK                            x       y       z     vdW  Elec       q    Type
REMARK                         _______ _______ _______ _____ _____    ______ ____
ROOT
ATOM      1  C   UNL     1       1.811   8.610  17.665  0.00  0.00    +0.000 C 
ENDROOT
BRANCH   1   2
ATOM      2  C   UNL     1       2.635   7.411  18.163  0.00  0.00    +0.000 C 
BRANCH   2   3
ATOM      3  C   UNL     1       2.348   7.054  19.621  0.00  0.00    +0.000 C 
BRANCH   3   5
ATOM      4  O   UNL     1       2.422   4.984  20.854  0.00  0.00    +0.000 OA
ATOM      5  C   UNL     1       2.175   5.553  19.798  0.00  0.00    +0.000 C 
ATOM      6  N   UNL     1       1.715   4.910  18.671  0.00  0.00    +0.000 N 
ATOM      7  H   UNL     1       1.527   5.452  17.838  0.00  0.00    +0.000 HD
BRANCH   6   8
ATOM      8  C   UNL     1       1.435   3.487  18.639  0.00  0.00    +0.000 C 
BRANCH   8   9
ATOM      9  C   UNL     1       2.494   2.655  19.363  0.00  0.00    +0.000 C 
BRANCH   9  10
ATOM     10  C   UNL     1       3.633   2.236  18.432  0.00  0.00    +0.000 C 
BRANCH  10  11
ATOM     11  C   UNL     1       4.609   3.347  18.204  0.00  0.00    +0.000 A 
ATOM     12  N   UNL     1       5.475   3.757  19.104  0.00  0.00    +0.000 NA
ATOM     13  C   UNL     1       6.193   4.834  18.609  0.00  0.00    +0.000 A 
ATOM     14  C   UNL     1       7.196   5.544  19.300  0.00  0.00    +0.000 A 
ATOM     15  C   UNL     1       7.828   6.631  18.685  0.00  0.00    +0.000 A 
ATOM     16  C   UNL     1       7.480   7.009  17.393  0.00  0.00    +0.000 A 
ATOM     17  C   UNL     1       6.496   6.314  16.682  0.00  0.00    +0.000 A 
ATOM     18  C   UNL     1       5.863   5.230  17.313  0.00  0.00    +0.000 A 
ATOM     19  S   UNL     1       4.619   4.201  16.714  0.00  0.00    +0.000 S 
ENDBRANCH  10  11
ENDBRANCH   9  10
ENDBRANCH   8   9
ENDBRANCH   6   8
ENDBRANCH   3   5
ENDBRANCH   2   3
ENDBRANCH   1   2
BRANCH   1  20
ATOM     20  C   UNL     1       2.391   9.979  18.100  0.00  0.00    +0.000 C 
BRANCH  20  21
ATOM     21  C   UNL     1       1.274  10.836  18.672  0.00  0.00    +0.000 C 
BRANCH  21  22
ATOM     22  N   UNL     1       0.157  10.147  19.270  0.00  0.00    +0.000 N 
ATOM     23  H   UNL     1       0.404   9.651  20.124  0.00  0.00    +0.000 HD
BRANCH  22  24
ATOM     24  C   UNL     1      -1.072  10.864  19.457  0.00  0.00    +0.000 A 
ATOM     25  C   UNL     1      -1.994  10.801  18.373  0.00  0.00    +0.000 A 
ATOM     26  C   UNL     1      -3.173  11.544  18.460  0.00  0.00    +0.000 A 
ATOM     27  N   UNL     1      -3.482  12.312  19.523  0.00  0.00    +0.000 NA
ATOM     28  C   UNL     1      -2.633  12.391  20.549  0.00  0.00    +0.000 A 
ATOM     29  C   UNL     1      -3.052  13.206  21.600  0.00  0.00    +0.000 A 
ATOM     30  C   UNL     1      -2.300  13.399  22.751  0.00  0.00    +0.000 A 
ATOM     31  C   UNL     1      -1.086  12.771  22.863  0.00  0.00    +0.000 A 
ATOM     32  C   UNL     1      -0.652  11.953  21.817  0.00  0.00    +0.000 A 
ATOM     33  C   UNL     1      -1.395  11.714  20.604  0.00  0.00    +0.000 A 
ATOM     34  C   UNL     1      -4.167  11.637  17.328  0.00  0.00    +0.000 C 
ATOM     35  C   UNL     1      -3.962  10.637  16.196  0.00  0.00    +0.000 C 
ATOM     36  C   UNL     1      -2.481  10.445  15.912  0.00  0.00    +0.000 C 
ATOM     37  C   UNL     1      -1.779   9.917  17.162  0.00  0.00    +0.000 C 
ENDBRANCH  22  24
ENDBRANCH  21  22
ENDBRANCH  20  21
ENDBRANCH   1  20
TORSDOF 11
ENDMDL
MODEL 2
REMARK VINA RESULT:      -8.5      1.190      3.292
REMARK  Name = 
REMARK  11 active torsions:
REMARK  status: ('A' for Active; 'I' for Inactive)
REMARK    1  A    between atoms: C_2  and  C_3
REMARK    2  A    between atoms: C_3  and  C_4
REMARK    3  A    between atoms: C_4  and  C_5
REMARK    4  A    between atoms: C_5  and  C_6
REMARK    5  A    between atoms: C_6  and  C_7
REMARK    6  A    between atoms: C_7  and  N_8
REMARK    7  A    between atoms: N_8  and  C_9
REMARK    8  A    between atoms: N_23  and  C_24
REMARK    9  A    between atoms: C_24  and  C_25
REMARK   10  A    between atoms: C_25  and  C_26
REMARK   11  A    between atoms: C_26  and  C_27
REMARK                            x       y       z     vdW  Elec       q    Type
REMARK                         _______ _______ _______ _____ _____    ______ ____
ROOT
ATOM      1  C   UNL     1       1.971   7.370  18.348  0.00  0.00    +0.000 C 
ENDROOT
BRANCH   1   2
ATOM      2  C   UNL     1       2.579   6.816  19.647  0.00  0.00    +0.000 C 
BRANCH   2   3
ATOM      3  C   UNL     1       1.527   6.293  20.624  0.00  0.00    +0.000 C 
BRANCH   3   5
ATOM      4  O   UNL     1       0.525   4.146  20.181  0.00  0.00    +0.000 OA
ATOM      5  C   UNL     1       1.480   4.773  20.622  0.00  0.00    +0.000 C 
ATOM      6  N   UNL     1       2.605   4.181  21.153  0.00  0.00    +0.000 N 
ATOM      7  H   UNL     1       3.356   4.768  21.490  0.00  0.00    +0.000 HD
BRANCH   6   8
ATOM      8  C   UNL     1       2.785   2.743  21.202  0.00  0.00    +0.000 C 
BRANCH   8   9
ATOM      9  C   UNL     1       3.887   2.248  20.265  0.00  0.00    +0.000 C 
BRANCH   9  10
ATOM     10  C   UNL     1       3.704   2.765  18.837  0.00  0.00    +0.000 C 
BRANCH  10  11
ATOM     11  C   UNL     1       4.667   3.864  18.510  0.00  0.00    +0.000 A 
ATOM     12  N   UNL     1       5.724   4.150  19.236  0.00  0.00    +0.000 NA
ATOM     13  C   UNL     1       6.377   5.250  18.702  0.00  0.00    +0.000 A 
ATOM     14  C   UNL     1       7.540   5.853  19.224  0.00  0.00    +0.000 A 
ATOM     15  C   UNL     1       8.083   6.978  18.593  0.00  0.00    +0.000 A 
ATOM     16  C   UNL     1       7.488   7.500  17.449  0.00  0.00    +0.000 A 
ATOM     17  C   UNL     1       6.340   6.914  16.906  0.00  0.00    +0.000 A 
ATOM     18  C   UNL     1       5.800   5.789  17.552  0.00  0.00    +0.000 A 
ATOM     19  S   UNL     1       4.404   4.868  17.142  0.00  0.00    +0.000 S 
ENDBRANCH  10  11
ENDBRANCH   9  10
ENDBRANCH   8   9
ENDBRANCH   6   8
ENDBRANCH   3   5
ENDBRANCH   2   3
ENDBRANCH   1   2
BRANCH   1  20
ATOM     20  C   UNL     1       2.652   8.672  17.855  0.00  0.00    +0.000 C 
BRANCH  20  21
ATOM     21  C   UNL     1       1.609   9.771  17.745  0.00  0.00    +0.000 C 
BRANCH  21  22
ATOM     22  N   UNL     1       0.230   9.360  17.626  0.00  0.00    +0.000 N 
ATOM     23  H   UNL     1       0.070   8.403  17.933  0.00  0.00    +0.000 HD
BRANCH  22  24
ATOM     24  C   UNL     1      -0.791  10.222  18.150  0.00  0.00    +0.000 A 
ATOM     25  C   UNL     1      -0.599  10.660  19.491  0.00  0.00    +0.000 A 
ATOM     26  C   UNL     1      -1.597  11.435  20.086  0.00  0.00    +0.000 A 
ATOM     27  N   UNL     1      -2.729  11.792  19.449  0.00  0.00    +0.000 NA
ATOM     28  C   UNL     1      -2.934  11.391  18.193  0.00  0.00    +0.000 A 
ATOM     29  C   UNL     1      -4.132  11.820  17.624  0.00  0.00    +0.000 A 
ATOM     30  C   UNL     1      -4.507  11.503  16.325  0.00  0.00    +0.000 A 
ATOM     31  C   UNL     1      -3.671  10.726  15.564  0.00  0.00    +0.000 A 
ATOM     32  C   UNL     1      -2.469  10.286  16.122  0.00  0.00    +0.000 A 
ATOM     33  C   UNL     1      -2.029  10.590  17.462  0.00  0.00    +0.000 A 
ATOM     34  C   UNL     1      -1.549  11.862  21.533  0.00  0.00    +0.000 C 
ATOM     35  C   UNL     1      -0.209  11.656  22.229  0.00  0.00    +0.000 C 
ATOM     36  C   UNL     1       0.430  10.350  21.786  0.00  0.00    +0.000 C 
ATOM     37  C   UNL     1       0.665  10.376  20.276  0.00  0.00    +0.000 C 
ENDBRANCH  22  24
ENDBRANCH  21  22
ENDBRANCH  20  21
ENDBRANCH   1  20
TORSDOF 11
ENDMDL
MODEL 3
REMARK VINA RESULT:      -8.4      0.890      3.274
REMARK  Name = 
REMARK  11 active torsions:
REMARK  status: ('A' for Active; 'I' for Inactive)
REMARK    1  A    between atoms: C_2  and  C_3
REMARK    2  A    between atoms: C_3  and  C_4
REMARK    3  A    between atoms: C_4  and  C_5
REMARK    4  A    between atoms: C_5  and  C_6
REMARK    5  A    between atoms: C_6  and  C_7
REMARK    6  A    between atoms: C_7  and  N_8
REMARK    7  A    between atoms: N_8  and  C_9
REMARK    8  A    between atoms: N_23  and  C_24
REMARK    9  A    between atoms: C_24  and  C_25
REMARK   10  A    between atoms: C_25  and  C_26
REMARK   11  A    between atoms: C_26  and  C_27
REMARK                            x       y       z     vdW  Elec       q    Type
REMARK                         _______ _______ _______ _____ _____    ______ ____
ROOT
ATOM      1  C   UNL     1       2.247   7.893  18.987  0.00  0.00    +0.000 C 
ENDROOT
BRANCH   1   2
ATOM      2  C   UNL     1       1.874   7.622  20.454  0.00  0.00    +0.000 C 
BRANCH   2   3
ATOM      3  C   UNL     1       0.896   6.459  20.616  0.00  0.00    +0.000 C 
BRANCH   3   5
ATOM      4  O   UNL     1       2.812   5.023  20.889  0.00  0.00    +0.000 OA
ATOM      5  C   UNL     1       1.622   5.123  20.616  0.00  0.00    +0.000 C 
ATOM      6  N   UNL     1       0.820   4.053  20.289  0.00  0.00    +0.000 N 
ATOM      7  H   UNL     1      -0.156   4.216  20.082  0.00  0.00    +0.000 HD
BRANCH   6   8
ATOM      8  C   UNL     1       1.303   2.685  20.277  0.00  0.00    +0.000 C 
BRANCH   8   9
ATOM      9  C   UNL     1       1.738   2.218  18.888  0.00  0.00    +0.000 C 
BRANCH   9  10
ATOM     10  C   UNL     1       3.226   1.866  18.839  0.00  0.00    +0.000 C 
BRANCH  10  11
ATOM     11  C   UNL     1       4.069   3.043  18.459  0.00  0.00    +0.000 A 
ATOM     12  N   UNL     1       5.180   3.377  19.076  0.00  0.00    +0.000 NA
ATOM     13  C   UNL     1       5.691   4.541  18.525  0.00  0.00    +0.000 A 
ATOM     14  C   UNL     1       6.863   5.206  18.943  0.00  0.00    +0.000 A 
ATOM     15  C   UNL     1       7.253   6.391  18.308  0.00  0.00    +0.000 A 
ATOM     16  C   UNL     1       6.499   6.912  17.263  0.00  0.00    +0.000 A 
ATOM     17  C   UNL     1       5.340   6.265  16.822  0.00  0.00    +0.000 A 
ATOM     18  C   UNL     1       4.953   5.081  17.472  0.00  0.00    +0.000 A 
ATOM     19  S   UNL     1       3.586   4.077  17.176  0.00  0.00    +0.000 S 
ENDBRANCH  10  11
ENDBRANCH   9  10
ENDBRANCH   8   9
ENDBRANCH   6   8
ENDBRANCH   3   5
ENDBRANCH   2   3
ENDBRANCH   1   2
BRANCH   1  20
ATOM     20  C   UNL     1       1.481   9.089  18.367  0.00  0.00    +0.000 C 
BRANCH  20  21
ATOM     21  C   UNL     1       0.702   9.803  19.460  0.00  0.00    +0.000 C 
BRANCH  21  22
ATOM     22  N   UNL     1       0.365  11.188  19.230  0.00  0.00    +0.000 N 
ATOM     23  H   UNL     1       0.819  11.578  18.407  0.00  0.00    +0.000 HD
BRANCH  22  24
ATOM     24  C   UNL     1      -1.018  11.571  19.257  0.00  0.00    +0.000 A 
ATOM     25  C   UNL     1      -1.465  12.184  20.462  0.00  0.00    +0.000 A 
ATOM     26  C   UNL     1      -2.818  12.506  20.581  0.00  0.00    +0.000 A 
ATOM     27  N   UNL     1      -3.720  12.268  19.608  0.00  0.00    +0.000 NA
ATOM     28  C   UNL     1      -3.327  11.691  18.471  0.00  0.00    +0.000 A 
ATOM     29  C   UNL     1      -4.335  11.497  17.528  0.00  0.00    +0.000 A 
ATOM     30  C   UNL     1      -4.107  10.917  16.287  0.00  0.00    +0.000 A 
ATOM     31  C   UNL     1      -2.837  10.505  15.971  0.00  0.00    +0.000 A 
ATOM     32  C   UNL     1      -1.817  10.691  16.907  0.00  0.00    +0.000 A 
ATOM     33  C   UNL     1      -1.999  11.292  18.206  0.00  0.00    +0.000 A 
ATOM     34  C   UNL     1      -3.420  13.059  21.850  0.00  0.00    +0.000 C 
ATOM     35  C   UNL     1      -2.417  13.527  22.897  0.00  0.00    +0.000 C 
ATOM     36  C   UNL     1      -1.221  12.590  22.951  0.00  0.00    +0.000 C 
ATOM     37  C   UNL     1      -0.527  12.559  21.590  0.00  0.00    +0.000 C 
ENDBRANCH  22  24
ENDBRANCH  21  22
ENDBRANCH  20  21
ENDBRANCH   1  20
TORSDOF 11
ENDMDL
MODEL 4
REMARK VINA RESULT:      -8.4      3.000      9.674
REMARK  Name = 
REMARK  11 active torsions:
REMARK  status: ('A' for Active; 'I' for Inactive)
REMARK    1  A    between atoms: C_2  and  C_3
REMARK    2  A    between atoms: C_3  and  C_4
REMARK    3  A    between atoms: C_4  and  C_5
REMARK    4  A    between atoms: C_5  and  C_6
REMARK    5  A    between atoms: C_6  and  C_7
REMARK    6  A    between atoms: C_7  and  N_8
REMARK    7  A    between atoms: N_8  and  C_9
REMARK    8  A    between atoms: N_23  and  C_24
REMARK    9  A    between atoms: C_24  and  C_25
REMARK   10  A    between atoms: C_25  and  C_26
REMARK   11  A    between atoms: C_26  and  C_27
REMARK                            x       y       z     vdW  Elec       q    Type
REMARK                         _______ _______ _______ _____ _____    ______ ____
ROOT
ATOM      1  C   UNL     1       1.194  10.405  18.602  0.00  0.00    +0.000 C 
ENDROOT
BRANCH   1   2
ATOM      2  C   UNL     1       0.397   9.675  19.696  0.00  0.00    +0.000 C 
BRANCH   2   3
ATOM      3  C   UNL     1       0.813  10.081  21.109  0.00  0.00    +0.000 C 
BRANCH   3   5
ATOM      4  O   UNL     1       1.855  12.254  21.078  0.00  0.00    +0.000 OA
ATOM      5  C   UNL     1       0.840  11.594  21.262  0.00  0.00    +0.000 C 
ATOM      6  N   UNL     1      -0.373  12.139  21.618  0.00  0.00    +0.000 N 
ATOM      7  H   UNL     1      -1.168  11.527  21.746  0.00  0.00    +0.000 HD
BRANCH   6   8
ATOM      8  C   UNL     1      -0.578  13.567  21.769  0.00  0.00    +0.000 C 
BRANCH   8   9
ATOM      9  C   UNL     1      -1.988  14.011  21.382  0.00  0.00    +0.000 C 
BRANCH   9  10
ATOM     10  C   UNL     1      -2.981  12.848  21.389  0.00  0.00    +0.000 C 
BRANCH  10  11
ATOM     11  C   UNL     1      -3.204  12.292  20.017  0.00  0.00    +0.000 A 
ATOM     12  N   UNL     1      -2.255  11.756  19.282  0.00  0.00    +0.000 NA
ATOM     13  C   UNL     1      -2.768  11.389  18.048  0.00  0.00    +0.000 A 
ATOM     14  C   UNL     1      -2.039  10.800  16.994  0.00  0.00    +0.000 A 
ATOM     15  C   UNL     1      -2.681  10.500  15.787  0.00  0.00    +0.000 A 
ATOM     16  C   UNL     1      -4.035  10.772  15.623  0.00  0.00    +0.000 A 
ATOM     17  C   UNL     1      -4.783  11.346  16.656  0.00  0.00    +0.000 A 
ATOM     18  C   UNL     1      -4.126  11.650  17.861  0.00  0.00    +0.000 A 
ATOM     19  S   UNL     1      -4.759  12.367  19.293  0.00  0.00    +0.000 S 
ENDBRANCH  10  11
ENDBRANCH   9  10
ENDBRANCH   8   9
ENDBRANCH   6   8
ENDBRANCH   3   5
ENDBRANCH   2   3
ENDBRANCH   1   2
BRANCH   1  20
ATOM     20  C   UNL     1       2.176   9.483  17.835  0.00  0.00    +0.000 C 
BRANCH  20  21
ATOM     21  C   UNL     1       1.875   8.034  18.182  0.00  0.00    +0.000 C 
BRANCH  21  22
ATOM     22  N   UNL     1       2.889   7.306  18.906  0.00  0.00    +0.000 N 
ATOM     23  H   UNL     1       2.798   7.392  19.916  0.00  0.00    +0.000 HD
BRANCH  22  24
ATOM     24  C   UNL     1       3.139   5.939  18.549  0.00  0.00    +0.000 A 
ATOM     25  C   UNL     1       4.057   5.738  17.479  0.00  0.00    +0.000 A 
ATOM     26  C   UNL     1       4.280   4.435  17.030  0.00  0.00    +0.000 A 
ATOM     27  N   UNL     1       3.672   3.358  17.566  0.00  0.00    +0.000 NA
ATOM     28  C   UNL     1       2.805   3.520  18.567  0.00  0.00    +0.000 A 
ATOM     29  C   UNL     1       2.239   2.343  19.053  0.00  0.00    +0.000 A 
ATOM     30  C   UNL     1       1.322   2.321  20.096  0.00  0.00    +0.000 A 
ATOM     31  C   UNL     1       0.946   3.507  20.673  0.00  0.00    +0.000 A 
ATOM     32  C   UNL     1       1.502   4.694  20.194  0.00  0.00    +0.000 A 
ATOM     33  C   UNL     1       2.461   4.773  19.119  0.00  0.00    +0.000 A 
ATOM     34  C   UNL     1       5.146   4.117  15.836  0.00  0.00    +0.000 C 
ATOM     35  C   UNL     1       6.004   5.269  15.328  0.00  0.00    +0.000 C 
ATOM     36  C   UNL     1       5.240   6.581  15.402  0.00  0.00    +0.000 C 
ATOM     37  C   UNL     1       4.845   6.869  16.850  0.00  0.00    +0.000 C 
ENDBRANCH  22  24
ENDBRANCH  21  22
ENDBRANCH  20  21
ENDBRANCH   1  20
TORSDOF 11
ENDMDL
MODEL 5
REMARK VINA RESULT:      -8.3      1.273      1.616
REMARK  Name = 
REMARK  11 active torsions:
REMARK  status: ('A' for Active; 'I' for Inactive)
REMARK    1  A    between atoms: C_2  and  C_3
REMARK    2  A    between atoms: C_3  and  C_4
REMARK    3  A    between atoms: C_4  and  C_5
REMARK    4  A    between atoms: C_5  and  C_6
REMARK    5  A    between atoms: C_6  and  C_7
REMARK    6  A    between atoms: C_7  and  N_8
REMARK    7  A    between atoms: N_8  and  C_9
REMARK    8  A    between atoms: N_23  and  C_24
REMARK    9  A    between atoms: C_24  and  C_25
REMARK   10  A    between atoms: C_25  and  C_26
REMARK   11  A    between atoms: C_26  and  C_27
REMARK                            x       y       z     vdW  Elec       q    Type
REMARK                         _______ _______ _______ _____ _____    ______ ____
ROOT
ATOM      1  C   UNL     1       2.989   7.052  18.279  0.00  0.00    +0.000 C 
ENDROOT
BRANCH   1   2
ATOM      2  C   UNL     1       1.720   6.409  18.863  0.00  0.00    +0.000 C 
BRANCH   2   3
ATOM      3  C   UNL     1       1.841   6.097  20.355  0.00  0.00    +0.000 C 
BRANCH   3   5
ATOM      4  O   UNL     1       2.332   4.141  21.674  0.00  0.00    +0.000 OA
ATOM      5  C   UNL     1       1.976   4.602  20.597  0.00  0.00    +0.000 C 
ATOM      6  N   UNL     1       1.658   3.830  19.502  0.00  0.00    +0.000 N 
ATOM      7  H   UNL     1       1.365   4.286  18.648  0.00  0.00    +0.000 HD
BRANCH   6   8
ATOM      8  C   UNL     1       1.673   2.380  19.533  0.00  0.00    +0.000 C 
BRANCH   8   9
ATOM      9  C   UNL     1       2.878   1.781  18.808  0.00  0.00    +0.000 C 
BRANCH   9  10
ATOM     10  C   UNL     1       3.143   2.466  17.467  0.00  0.00    +0.000 C 
BRANCH  10  11
ATOM     11  C   UNL     1       4.274   3.443  17.550  0.00  0.00    +0.000 A 
ATOM     12  N   UNL     1       4.898   3.747  18.666  0.00  0.00    +0.000 NA
ATOM     13  C   UNL     1       5.854   4.720  18.420  0.00  0.00    +0.000 A 
ATOM     14  C   UNL     1       6.705   5.303  19.382  0.00  0.00    +0.000 A 
ATOM     15  C   UNL     1       7.613   6.296  18.996  0.00  0.00    +0.000 A 
ATOM     16  C   UNL     1       7.688   6.705  17.669  0.00  0.00    +0.000 A 
ATOM     17  C   UNL     1       6.864   6.134  16.694  0.00  0.00    +0.000 A 
ATOM     18  C   UNL     1       5.950   5.144  17.094  0.00  0.00    +0.000 A 
ATOM     19  S   UNL     1       4.805   4.276  16.145  0.00  0.00    +0.000 S 
ENDBRANCH  10  11
ENDBRANCH   9  10
ENDBRANCH   8   9
ENDBRANCH   6   8
ENDBRANCH   3   5
ENDBRANCH   2   3
ENDBRANCH   1   2
BRANCH   1  20
ATOM     20  C   UNL     1       2.787   8.525  17.842  0.00  0.00    +0.000 C 
BRANCH  20  21
ATOM     21  C   UNL     1       1.444   9.019  18.354  0.00  0.00    +0.000 C 
BRANCH  21  22
ATOM     22  N   UNL     1       0.895  10.200  17.731  0.00  0.00    +0.000 N 
ATOM     23  H   UNL     1       0.509  10.021  16.806  0.00  0.00    +0.000 HD
BRANCH  22  24
ATOM     24  C   UNL     1      -0.004  11.021  18.490  0.00  0.00    +0.000 A 
ATOM     25  C   UNL     1      -1.386  10.870  18.183  0.00  0.00    +0.000 A 
ATOM     26  C   UNL     1      -2.305  11.699  18.829  0.00  0.00    +0.000 A 
ATOM     27  N   UNL     1      -1.946  12.631  19.733  0.00  0.00    +0.000 NA
ATOM     28  C   UNL     1      -0.657  12.795  20.036  0.00  0.00    +0.000 A 
ATOM     29  C   UNL     1      -0.394  13.779  20.987  0.00  0.00    +0.000 A 
ATOM     30  C   UNL     1       0.888  14.082  21.427  0.00  0.00    +0.000 A 
ATOM     31  C   UNL     1       1.949  13.391  20.900  0.00  0.00    +0.000 A 
ATOM     32  C   UNL     1       1.702  12.404  19.943  0.00  0.00    +0.000 A 
ATOM     33  C   UNL     1       0.392  12.048  19.456  0.00  0.00    +0.000 A 
ATOM     34  C   UNL     1      -3.778  11.700  18.502  0.00  0.00    +0.000 C 
ATOM     35  C   UNL     1      -4.256  10.537  17.641  0.00  0.00    +0.000 C 
ATOM     36  C   UNL     1      -3.226  10.202  16.574  0.00  0.00    +0.000 C 
ATOM     37  C   UNL     1      -1.905   9.809  17.235  0.00  0.00    +0.000 C 
ENDBRANCH  22  24
ENDBRANCH  21  22
ENDBRANCH  20  21
ENDBRANCH   1  20
TORSDOF 11
ENDMDL
MODEL 6
REMARK VINA RESULT:      -8.2      3.616     11.062
REMARK  Name = 
REMARK  11 active torsions:
REMARK  status: ('A' for Active; 'I' for Inactive)
REMARK    1  A    between atoms: C_2  and  C_3
REMARK    2  A    between atoms: C_3  and  C_4
REMARK    3  A    between atoms: C_4  and  C_5
REMARK    4  A    between atoms: C_5  and  C_6
REMARK    5  A    between atoms: C_6  and  C_7
REMARK    6  A    between atoms: C_7  and  N_8
REMARK    7  A    between atoms: N_8  and  C_9
REMARK    8  A    between atoms: N_23  and  C_24
REMARK    9  A    between atoms: C_24  and  C_25
REMARK   10  A    between atoms: C_25  and  C_26
REMARK   11  A    between atoms: C_26  and  C_27
REMARK                            x       y       z     vdW  Elec       q    Type
REMARK                         _______ _______ _______ _____ _____    ______ ____
ROOT
ATOM      1  C   UNL     1       0.604   9.233  20.820  0.00  0.00    +0.000 C 
ENDROOT
BRANCH   1   2
ATOM      2  C   UNL     1       0.593   9.915  19.441  0.00  0.00    +0.000 C 
BRANCH   2   3
ATOM      3  C   UNL     1      -0.548  10.918  19.280  0.00  0.00    +0.000 C 
BRANCH   3   5
ATOM      4  O   UNL     1      -1.250   9.721  17.309  0.00  0.00    +0.000 OA
ATOM      5  C   UNL     1      -1.561  10.439  18.251  0.00  0.00    +0.000 C 
ATOM      6  N   UNL     1      -2.843  10.883  18.483  0.00  0.00    +0.000 N 
ATOM      7  H   UNL     1      -3.021  11.469  19.288  0.00  0.00    +0.000 HD
BRANCH   6   8
ATOM      8  C   UNL     1      -3.968  10.504  17.650  0.00  0.00    +0.000 C 
BRANCH   8   9
ATOM      9  C   UNL     1      -5.211  11.357  17.903  0.00  0.00    +0.000 C 
BRANCH   9  10
ATOM     10  C   UNL     1      -6.152  10.718  18.926  0.00  0.00    +0.000 C 
BRANCH  10  11
ATOM     11  C   UNL     1      -6.312  11.567  20.148  0.00  0.00    +0.000 A 
ATOM     12  N   UNL     1      -7.167  11.308  21.112  0.00  0.00    +0.000 NA
ATOM     13  C   UNL     1      -7.113  12.309  22.069  0.00  0.00    +0.000 A 
ATOM     14  C   UNL     1      -7.900  12.376  23.238  0.00  0.00    +0.000 A 
ATOM     15  C   UNL     1      -7.756  13.461  24.111  0.00  0.00    +0.000 A 
ATOM     16  C   UNL     1      -6.837  14.468  23.838  0.00  0.00    +0.000 A 
ATOM     17  C   UNL     1      -6.037  14.418  22.692  0.00  0.00    +0.000 A 
ATOM     18  C   UNL     1      -6.195  13.329  21.819  0.00  0.00    +0.000 A 
ATOM     19  S   UNL     1      -5.381  12.997  20.338  0.00  0.00    +0.000 S 
ENDBRANCH  10  11
ENDBRANCH   9  10
ENDBRANCH   8   9
ENDBRANCH   6   8
ENDBRANCH   3   5
ENDBRANCH   2   3
ENDBRANCH   1   2
BRANCH   1  20
ATOM     20  C   UNL     1       1.281   7.839  20.813  0.00  0.00    +0.000 C 
BRANCH  20  21
ATOM     21  C   UNL     1       2.111   7.693  19.548  0.00  0.00    +0.000 C 
BRANCH  21  22
ATOM     22  N   UNL     1       3.287   6.860  19.625  0.00  0.00    +0.000 N 
ATOM     23  H   UNL     1       3.608   6.709  20.580  0.00  0.00    +0.000 HD
BRANCH  22  24
ATOM     24  C   UNL     1       3.299   5.621  18.900  0.00  0.00    +0.000 A 
ATOM     25  C   UNL     1       4.193   5.563  17.794  0.00  0.00    +0.000 A 
ATOM     26  C   UNL     1       4.193   4.415  17.000  0.00  0.00    +0.000 A 
ATOM     27  N   UNL     1       3.391   3.358  17.234  0.00  0.00    +0.000 NA
ATOM     28  C   UNL     1       2.541   3.390  18.263  0.00  0.00    +0.000 A 
ATOM     29  C   UNL     1       1.763   2.244  18.421  0.00  0.00    +0.000 A 
ATOM     30  C   UNL     1       0.831   2.099  19.440  0.00  0.00    +0.000 A 
ATOM     31  C   UNL     1       0.656   3.129  20.329  0.00  0.00    +0.000 A 
ATOM     32  C   UNL     1       1.427   4.284  20.181  0.00  0.00    +0.000 A 
ATOM     33  C   UNL     1       2.411   4.484  19.145  0.00  0.00    +0.000 A 
ATOM     34  C   UNL     1       5.019   4.288  15.743  0.00  0.00    +0.000 C 
ATOM     35  C   UNL     1       6.080   5.364  15.549  0.00  0.00    +0.000 C 
ATOM     36  C   UNL     1       5.559   6.719  15.999  0.00  0.00    +0.000 C 
ATOM     37  C   UNL     1       5.186   6.664  17.480  0.00  0.00    +0.000 C 
ENDBRANCH  22  24
ENDBRANCH  21  22
ENDBRANCH  20  21
ENDBRANCH   1  20
TORSDOF 11
ENDMDL
MODEL 7
REMARK VINA RESULT:      -8.1      3.474     10.605
REMARK  Name = 
REMARK  11 active torsions:
REMARK  status: ('A' for Active; 'I' for Inactive)
REMARK    1  A    between atoms: C_2  and  C_3
REMARK    2  A    between atoms: C_3  and  C_4
REMARK    3  A    between atoms: C_4  and  C_5
REMARK    4  A    between atoms: C_5  and  C_6
REMARK    5  A    between atoms: C_6  and  C_7
REMARK    6  A    between atoms: C_7  and  N_8
REMARK    7  A    between atoms: N_8  and  C_9
REMARK    8  A    between atoms: N_23  and  C_24
REMARK    9  A    between atoms: C_24  and  C_25
REMARK   10  A    between atoms: C_25  and  C_26
REMARK   11  A    between atoms: C_26  and  C_27
REMARK                            x       y       z     vdW  Elec       q    Type
REMARK                         _______ _______ _______ _____ _____    ______ ____
ROOT
ATOM      1  C   UNL     1       1.285   8.726  20.056  0.00  0.00    +0.000 C 
ENDROOT
BRANCH   1   2
ATOM      2  C   UNL     1       0.315   9.614  20.852  0.00  0.00    +0.000 C 
BRANCH   2   3
ATOM      3  C   UNL     1      -0.050  10.905  20.119  0.00  0.00    +0.000 C 
BRANCH   3   5
ATOM      4  O   UNL     1       0.718  13.031  20.956  0.00  0.00    +0.000 OA
ATOM      5  C   UNL     1      -0.063  12.093  21.069  0.00  0.00    +0.000 C 
ATOM      6  N   UNL     1      -1.027  12.013  22.049  0.00  0.00    +0.000 N 
ATOM      7  H   UNL     1      -1.638  11.208  22.070  0.00  0.00    +0.000 HD
BRANCH   6   8
ATOM      8  C   UNL     1      -1.241  13.063  23.026  0.00  0.00    +0.000 C 
BRANCH   8   9
ATOM      9  C   UNL     1      -2.161  14.172  22.517  0.00  0.00    +0.000 C 
BRANCH   9  10
ATOM     10  C   UNL     1      -3.626  13.917  22.876  0.00  0.00    +0.000 C 
BRANCH  10  11
ATOM     11  C   UNL     1      -4.356  13.203  21.782  0.00  0.00    +0.000 A 
ATOM     12  N   UNL     1      -3.810  12.872  20.633  0.00  0.00    +0.000 NA
ATOM     13  C   UNL     1      -4.758  12.276  19.817  0.00  0.00    +0.000 A 
ATOM     14  C   UNL     1      -4.540  11.807  18.504  0.00  0.00    +0.000 A 
ATOM     15  C   UNL     1      -5.598  11.244  17.782  0.00  0.00    +0.000 A 
ATOM     16  C   UNL     1      -6.861  11.135  18.353  0.00  0.00    +0.000 A 
ATOM     17  C   UNL     1      -7.101  11.582  19.657  0.00  0.00    +0.000 A 
ATOM     18  C   UNL     1      -6.033  12.153  20.370  0.00  0.00    +0.000 A 
ATOM     19  S   UNL     1      -6.015  12.802  21.964  0.00  0.00    +0.000 S 
ENDBRANCH  10  11
ENDBRANCH   9  10
ENDBRANCH   8   9
ENDBRANCH   6   8
ENDBRANCH   3   5
ENDBRANCH   2   3
ENDBRANCH   1   2
BRANCH   1  20
ATOM     20  C   UNL     1       1.415   9.135  18.567  0.00  0.00    +0.000 C 
BRANCH  20  21
ATOM     21  C   UNL     1       2.166   8.050  17.814  0.00  0.00    +0.000 C 
BRANCH  21  22
ATOM     22  N   UNL     1       3.209   7.353  18.529  0.00  0.00    +0.000 N 
ATOM     23  H   UNL     1       3.208   7.550  19.528  0.00  0.00    +0.000 HD
BRANCH  22  24
ATOM     24  C   UNL     1       3.372   5.945  18.305  0.00  0.00    +0.000 A 
ATOM     25  C   UNL     1       4.284   5.587  17.271  0.00  0.00    +0.000 A 
ATOM     26  C   UNL     1       4.425   4.235  16.950  0.00  0.00    +0.000 A 
ATOM     27  N   UNL     1       3.745   3.255  17.576  0.00  0.00    +0.000 NA
ATOM     28  C   UNL     1       2.882   3.566  18.546  0.00  0.00    +0.000 A 
ATOM     29  C   UNL     1       2.238   2.478  19.132  0.00  0.00    +0.000 A 
ATOM     30  C   UNL     1       1.313   2.613  20.160  0.00  0.00    +0.000 A 
ATOM     31  C   UNL     1       1.009   3.870  20.617  0.00  0.00    +0.000 A 
ATOM     32  C   UNL     1       1.646   4.969  20.037  0.00  0.00    +0.000 A 
ATOM     33  C   UNL     1       2.616   4.885  18.973  0.00  0.00    +0.000 A 
ATOM     34  C   UNL     1       5.279   3.751  15.804  0.00  0.00    +0.000 C 
ATOM     35  C   UNL     1       6.214   4.793  15.201  0.00  0.00    +0.000 C 
ATOM     36  C   UNL     1       5.535   6.152  15.141  0.00  0.00    +0.000 C 
ATOM     37  C   UNL     1       5.149   6.600  16.551  0.00  0.00    +0.000 C 
ENDBRANCH  22  24
ENDBRANCH  21  22
ENDBRANCH  20  21
ENDBRANCH   1  20
TORSDOF 11
ENDMDL
MODEL 8
REMARK VINA RESULT:      -8.1      3.174      9.788
REMARK  Name = 
REMARK  11 active torsions:
REMARK  status: ('A' for Active; 'I' for Inactive)
REMARK    1  A    between atoms: C_2  and  C_3
REMARK    2  A    between atoms: C_3  and  C_4
REMARK    3  A    between atoms: C_4  and  C_5
REMARK    4  A    between atoms: C_5  and  C_6
REMARK    5  A    between atoms: C_6  and  C_7
REMARK    6  A    between atoms: C_7  and  N_8
REMARK    7  A    between atoms: N_8  and  C_9
REMARK    8  A    between atoms: N_23  and  C_24
REMARK    9  A    between atoms: C_24  and  C_25
REMARK   10  A    between atoms: C_25  and  C_26
REMARK   11  A    between atoms: C_26  and  C_27
REMARK                            x       y       z     vdW  Elec       q    Type
REMARK                         _______ _______ _______ _____ _____    ______ ____
ROOT
ATOM      1  C   UNL     1       1.057  10.299  18.661  0.00  0.00    +0.000 C 
ENDROOT
BRANCH   1   2
ATOM      2  C   UNL     1       1.227  11.769  18.242  0.00  0.00    +0.000 C 
BRANCH   2   3
ATOM      3  C   UNL     1       2.024  12.589  19.255  0.00  0.00    +0.000 C 
BRANCH   3   5
ATOM      4  O   UNL     1       0.917  14.592  20.013  0.00  0.00    +0.000 OA
ATOM      5  C   UNL     1       1.103  13.391  20.163  0.00  0.00    +0.000 C 
ATOM      6  N   UNL     1       0.505  12.641  21.150  0.00  0.00    +0.000 N 
ATOM      7  H   UNL     1       0.704  11.651  21.203  0.00  0.00    +0.000 HD
BRANCH   6   8
ATOM      8  C   UNL     1      -0.447  13.199  22.092  0.00  0.00    +0.000 C 
BRANCH   8   9
ATOM      9  C   UNL     1      -1.679  12.316  22.289  0.00  0.00    +0.000 C 
BRANCH   9  10
ATOM     10  C   UNL     1      -2.926  12.912  21.633  0.00  0.00    +0.000 C 
BRANCH  10  11
ATOM     11  C   UNL     1      -3.153  12.364  20.259  0.00  0.00    +0.000 A 
ATOM     12  N   UNL     1      -2.217  11.792  19.535  0.00  0.00    +0.000 NA
ATOM     13  C   UNL     1      -2.729  11.445  18.295  0.00  0.00    +0.000 A 
ATOM     14  C   UNL     1      -2.012  10.827  17.249  0.00  0.00    +0.000 A 
ATOM     15  C   UNL     1      -2.651  10.552  16.035  0.00  0.00    +0.000 A 
ATOM     16  C   UNL     1      -3.992  10.875  15.856  0.00  0.00    +0.000 A 
ATOM     17  C   UNL     1      -4.729  11.478  16.881  0.00  0.00    +0.000 A 
ATOM     18  C   UNL     1      -4.074  11.757  18.093  0.00  0.00    +0.000 A 
ATOM     19  S   UNL     1      -4.696  12.498  19.517  0.00  0.00    +0.000 S 
ENDBRANCH  10  11
ENDBRANCH   9  10
ENDBRANCH   8   9
ENDBRANCH   6   8
ENDBRANCH   3   5
ENDBRANCH   2   3
ENDBRANCH   1   2
BRANCH   1  20
ATOM     20  C   UNL     1       2.046   9.338  17.955  0.00  0.00    +0.000 C 
BRANCH  20  21
ATOM     21  C   UNL     1       1.893   7.944  18.540  0.00  0.00    +0.000 C 
BRANCH  21  22
ATOM     22  N   UNL     1       3.101   7.257  18.931  0.00  0.00    +0.000 N 
ATOM     23  H   UNL     1       3.316   7.360  19.921  0.00  0.00    +0.000 HD
BRANCH  22  24
ATOM     24  C   UNL     1       3.274   5.891  18.528  0.00  0.00    +0.000 A 
ATOM     25  C   UNL     1       4.174   5.676  17.445  0.00  0.00    +0.000 A 
ATOM     26  C   UNL     1       4.323   4.378  16.954  0.00  0.00    +0.000 A 
ATOM     27  N   UNL     1       3.662   3.318  17.460  0.00  0.00    +0.000 NA
ATOM     28  C   UNL     1       2.811   3.494  18.472  0.00  0.00    +0.000 A 
ATOM     29  C   UNL     1       2.185   2.334  18.925  0.00  0.00    +0.000 A 
ATOM     30  C   UNL     1       1.274   2.327  19.974  0.00  0.00    +0.000 A 
ATOM     31  C   UNL     1       0.966   3.513  20.591  0.00  0.00    +0.000 A 
ATOM     32  C   UNL     1       1.583   4.684  20.146  0.00  0.00    +0.000 A 
ATOM     33  C   UNL     1       2.538   4.746  19.066  0.00  0.00    +0.000 A 
ATOM     34  C   UNL     1       5.165   4.052  15.744  0.00  0.00    +0.000 C 
ATOM     35  C   UNL     1       6.080   5.173  15.266  0.00  0.00    +0.000 C 
ATOM     36  C   UNL     1       5.388   6.520  15.388  0.00  0.00    +0.000 C 
ATOM     37  C   UNL     1       5.018   6.782  16.847  0.00  0.00    +0.000 C 
ENDBRANCH  22  24
ENDBRANCH  21  22
ENDBRANCH  20  21
ENDBRANCH   1  20
TORSDOF 11
ENDMDL
MODEL 9
REMARK VINA RESULT:      -8.1      4.529      9.084
REMARK  Name = 
REMARK  11 active torsions:
REMARK  status: ('A' for Active; 'I' for Inactive)
REMARK    1  A    between atoms: C_2  and  C_3
REMARK    2  A    between atoms: C_3  and  C_4
REMARK    3  A    between atoms: C_4  and  C_5
REMARK    4  A    between atoms: C_5  and  C_6
REMARK    5  A    between atoms: C_6  and  C_7
REMARK    6  A    between atoms: C_7  and  N_8
REMARK    7  A    between atoms: N_8  and  C_9
REMARK    8  A    between atoms: N_23  and  C_24
REMARK    9  A    between atoms: C_24  and  C_25
REMARK   10  A    between atoms: C_25  and  C_26
REMARK   11  A    between atoms: C_26  and  C_27
REMARK                            x       y       z     vdW  Elec       q    Type
REMARK                         _______ _______ _______ _____ _____    ______ ____
ROOT
ATOM      1  C   UNL     1       0.438   9.626  20.726  0.00  0.00    +0.000 C 
ENDROOT
BRANCH   1   2
ATOM      2  C   UNL     1       1.134  10.386  19.585  0.00  0.00    +0.000 C 
BRANCH   2   3
ATOM      3  C   UNL     1       0.694  11.846  19.485  0.00  0.00    +0.000 C 
BRANCH   3   5
ATOM      4  O   UNL     1       1.996  12.936  21.196  0.00  0.00    +0.000 OA
ATOM      5  C   UNL     1       1.775  12.784  20.001  0.00  0.00    +0.000 C 
ATOM      6  N   UNL     1       2.472  13.431  19.005  0.00  0.00    +0.000 N 
ATOM      7  H   UNL     1       2.233  13.247  18.040  0.00  0.00    +0.000 HD
BRANCH   6   8
ATOM      8  C   UNL     1       3.575  14.333  19.278  0.00  0.00    +0.000 C 
BRANCH   8   9
ATOM      9  C   UNL     1       4.461  14.577  18.057  0.00  0.00    +0.000 C 
BRANCH   9  10
ATOM     10  C   UNL     1       5.652  15.481  18.379  0.00  0.00    +0.000 C 
BRANCH  10  11
ATOM     11  C   UNL     1       6.896  14.694  18.649  0.00  0.00    +0.000 A 
ATOM     12  N   UNL     1       7.453  13.883  17.778  0.00  0.00    +0.000 NA
ATOM     13  C   UNL     1       8.554  13.265  18.348  0.00  0.00    +0.000 A 
ATOM     14  C   UNL     1       9.387  12.317  17.717  0.00  0.00    +0.000 A 
ATOM     15  C   UNL     1      10.457  11.754  18.422  0.00  0.00    +0.000 A 
ATOM     16  C   UNL     1      10.709  12.128  19.738  0.00  0.00    +0.000 A 
ATOM     17  C   UNL     1       9.904  13.073  20.382  0.00  0.00    +0.000 A 
ATOM     18  C   UNL     1       8.829  13.627  19.667  0.00  0.00    +0.000 A 
ATOM     19  S   UNL     1       7.664  14.786  20.182  0.00  0.00    +0.000 S 
ENDBRANCH  10  11
ENDBRANCH   9  10
ENDBRANCH   8   9
ENDBRANCH   6   8
ENDBRANCH   3   5
ENDBRANCH   2   3
ENDBRANCH   1   2
BRANCH   1  20
ATOM     20  C   UNL     1       1.071   8.242  21.020  0.00  0.00    +0.000 C 
BRANCH  20  21
ATOM     21  C   UNL     1       1.954   7.838  19.852  0.00  0.00    +0.000 C 
BRANCH  21  22
ATOM     22  N   UNL     1       2.897   6.769  20.078  0.00  0.00    +0.000 N 
ATOM     23  H   UNL     1       2.792   6.330  20.991  0.00  0.00    +0.000 HD
BRANCH  22  24
ATOM     24  C   UNL     1       3.054   5.765  19.065  0.00  0.00    +0.000 A 
ATOM     25  C   UNL     1       2.258   4.595  19.227  0.00  0.00    +0.000 A 
ATOM     26  C   UNL     1       2.425   3.548  18.319  0.00  0.00    +0.000 A 
ATOM     27  N   UNL     1       3.297   3.594  17.294  0.00  0.00    +0.000 NA
ATOM     28  C   UNL     1       4.057   4.678  17.122  0.00  0.00    +0.000 A 
ATOM     29  C   UNL     1       4.919   4.627  16.029  0.00  0.00    +0.000 A 
ATOM     30  C   UNL     1       5.778   5.666  15.695  0.00  0.00    +0.000 A 
ATOM     31  C   UNL     1       5.788   6.794  16.476  0.00  0.00    +0.000 A 
ATOM     32  C   UNL     1       4.931   6.858  17.577  0.00  0.00    +0.000 A 
ATOM     33  C   UNL     1       4.018   5.811  17.964  0.00  0.00    +0.000 A 
ATOM     34  C   UNL     1       1.715   2.223  18.458  0.00  0.00    +0.000 C 
ATOM     35  C   UNL     1       0.580   2.195  19.475  0.00  0.00    +0.000 C 
ATOM     36  C   UNL     1       0.941   3.013  20.704  0.00  0.00    +0.000 C 
ATOM     37  C   UNL     1       1.199   4.465  20.302  0.00  0.00    +0.000 C 
ENDBRANCH  22  24
ENDBRANCH  21  22
ENDBRANCH  20  21
ENDBRANCH   1  20
TORSDOF 11
ENDMDL
