MODEL 1
REMARK VINA RESULT:      -6.9      0.000      0.000
REMARK  Name = 
REMARK  6 active torsions:
REMARK  status: ('A' for Active; 'I' for Inactive)
REMARK    1  A    between atoms: C_1  and  C_2
REMARK    2  A    between atoms: C_2  and  O_4
REMARK    3  A    between atoms: O_4  and  C_5
REMARK    4  A    between atoms: C_8  and  C_9
REMARK    5  A    between atoms: N_19  and  C_20
REMARK    6  A    between atoms: C_28  and  C_29
REMARK                            x       y       z     vdW  Elec       q    Type
REMARK                         _______ _______ _______ _____ _____    ______ ____
ROOT
ATOM      1  C   UNL     1       1.794   8.127  18.591  0.00  0.00    +0.000 C 
ATOM      2  C   UNL     1       1.926   8.349  20.102  0.00  0.00    +0.000 C 
ATOM      3  C   UNL     1       0.603   8.920  20.678  0.00  0.00    +0.000 C 
ATOM      4  C   UNL     1       0.229  10.290  20.011  0.00  0.00    +0.000 C 
ATOM      5  C   UNL     1       1.460  11.190  20.403  0.00  0.00    +0.000 C 
ATOM      6  C   UNL     1       0.051   9.960  18.510  0.00  0.00    +0.000 C 
ATOM      7  C   UNL     1      -1.120  10.061  17.832  0.00  0.00    +0.000 C 
ATOM      8  C   UNL     1      -2.427  10.635  18.370  0.00  0.00    +0.000 C 
ATOM      9  C   UNL     1      -2.035  11.641  19.431  0.00  0.00    +0.000 C 
ATOM     10  C   UNL     1      -2.993  12.617  20.154  0.00  0.00    +0.000 C 
ATOM     11  C   UNL     1      -4.343  13.367  19.831  0.00  0.00    +0.000 C 
ATOM     12  C   UNL     1      -4.652  14.242  21.069  0.00  0.00    +0.000 A 
ATOM     13  C   UNL     1      -5.571  14.261  22.150  0.00  0.00    +0.000 A 
ATOM     14  N   UNL     1      -5.114  14.905  23.248  0.00  0.00    +0.000 NA
ATOM     15  N   UNL     1      -3.883  15.409  22.874  0.00  0.00    +0.000 N 
ATOM     16  C   UNL     1      -3.659  15.057  21.554  0.00  0.00    +0.000 A 
ATOM     17  N   UNL     1      -2.454  14.985  20.988  0.00  0.00    +0.000 N 
ATOM     18  C   UNL     1      -1.954  13.616  20.841  0.00  0.00    +0.000 C 
ATOM     19  C   UNL     1      -0.633  13.957  20.107  0.00  0.00    +0.000 C 
ATOM     20  C   UNL     1      -1.742  12.883  22.178  0.00  0.00    +0.000 C 
ATOM     21  C   UNL     1      -0.986  11.576  21.959  0.00  0.00    +0.000 C 
ATOM     22  C   UNL     1      -1.150  10.864  20.569  0.00  0.00    +0.000 C 
ATOM     23  C   UNL     1       1.257   9.348  17.826  0.00  0.00    +0.000 C 
ATOM     24  H   UNL     1      -1.709  15.579  21.351  0.00  0.00    +0.000 HD
ENDROOT
BRANCH  15  25
ATOM     25  C   UNL     1      -2.825  15.760  23.796  0.00  0.00    +0.000 A 
ATOM     26  C   UNL     1      -2.299  17.058  23.792  0.00  0.00    +0.000 A 
ATOM     27  C   UNL     1      -1.588  17.534  24.913  0.00  0.00    +0.000 A 
ATOM     28  C   UNL     1      -1.373  16.725  26.030  0.00  0.00    +0.000 A 
ATOM     29  C   UNL     1      -1.832  15.413  26.021  0.00  0.00    +0.000 A 
ATOM     30  C   UNL     1      -2.528  14.927  24.899  0.00  0.00    +0.000 A 
ENDBRANCH  15  25
BRANCH   1  31
ATOM     31  O   UNL     1       2.988   7.571  17.991  0.00  0.00    +0.000 OA
BRANCH  31  33
ATOM     32  C   UNL     1       2.259   5.353  17.910  0.00  0.00    +0.000 C 
ATOM     33  C   UNL     1       3.369   6.297  18.269  0.00  0.00    +0.000 C 
ATOM     34  O   UNL     1       4.442   5.948  18.737  0.00  0.00    +0.000 OA
ENDBRANCH  31  33
ENDBRANCH   1  31
TORSDOF 3
ENDMDL
MODEL 2
REMARK VINA RESULT:      -6.9      0.667      1.083
REMARK  Name = 
REMARK  6 active torsions:
REMARK  status: ('A' for Active; 'I' for Inactive)
REMARK    1  A    between atoms: C_1  and  C_2
REMARK    2  A    between atoms: C_2  and  O_4
REMARK    3  A    between atoms: O_4  and  C_5
REMARK    4  A    between atoms: C_8  and  C_9
REMARK    5  A    between atoms: N_19  and  C_20
REMARK    6  A    between atoms: C_28  and  C_29
REMARK                            x       y       z     vdW  Elec       q    Type
REMARK                         _______ _______ _______ _____ _____    ______ ____
ROOT
ATOM      1  C   UNL     1       1.835   8.312  18.631  0.00  0.00    +0.000 C 
ATOM      2  C   UNL     1       1.833   8.536  20.148  0.00  0.00    +0.000 C 
ATOM      3  C   UNL     1       0.428   8.995  20.620  0.00  0.00    +0.000 C 
ATOM      4  C   UNL     1      -0.004  10.334  19.924  0.00  0.00    +0.000 C 
ATOM      5  C   UNL     1       1.116  11.328  20.408  0.00  0.00    +0.000 C 
ATOM      6  C   UNL     1      -0.040   9.998  18.415  0.00  0.00    +0.000 C 
ATOM      7  C   UNL     1      -1.161  10.006  17.649  0.00  0.00    +0.000 C 
ATOM      8  C   UNL     1      -2.547  10.470  18.085  0.00  0.00    +0.000 C 
ATOM      9  C   UNL     1      -2.319  11.499  19.172  0.00  0.00    +0.000 C 
ATOM     10  C   UNL     1      -3.406  12.391  19.819  0.00  0.00    +0.000 C 
ATOM     11  C   UNL     1      -4.784  13.030  19.393  0.00  0.00    +0.000 C 
ATOM     12  C   UNL     1      -5.256  13.872  20.602  0.00  0.00    +0.000 A 
ATOM     13  C   UNL     1      -6.254  13.810  21.610  0.00  0.00    +0.000 A 
ATOM     14  N   UNL     1      -5.935  14.484  22.739  0.00  0.00    +0.000 NA
ATOM     15  N   UNL     1      -4.724  15.088  22.459  0.00  0.00    +0.000 N 
ATOM     16  C   UNL     1      -4.373  14.762  21.160  0.00  0.00    +0.000 A 
ATOM     17  N   UNL     1      -3.126  14.790  20.688  0.00  0.00    +0.000 N 
ATOM     18  C   UNL     1      -2.506  13.467  20.581  0.00  0.00    +0.000 C 
ATOM     19  C   UNL     1      -1.166  13.918  19.950  0.00  0.00    +0.000 C 
ATOM     20  C   UNL     1      -2.338  12.748  21.931  0.00  0.00    +0.000 C 
ATOM     21  C   UNL     1      -1.464  11.508  21.773  0.00  0.00    +0.000 C 
ATOM     22  C   UNL     1      -1.463  10.791  20.375  0.00  0.00    +0.000 C 
ATOM     23  C   UNL     1       1.260   9.488  17.825  0.00  0.00    +0.000 C 
ATOM     24  H   UNL     1      -2.462  15.441  21.106  0.00  0.00    +0.000 HD
ENDROOT
BRANCH  15  25
ATOM     25  C   UNL     1      -3.771  15.519  23.458  0.00  0.00    +0.000 A 
ATOM     26  C   UNL     1      -3.603  14.770  24.630  0.00  0.00    +0.000 A 
ATOM     27  C   UNL     1      -2.434  14.923  25.403  0.00  0.00    +0.000 A 
ATOM     28  C   UNL     1      -1.438  15.830  25.036  0.00  0.00    +0.000 A 
ATOM     29  C   UNL     1      -1.621  16.626  23.912  0.00  0.00    +0.000 A 
ATOM     30  C   UNL     1      -2.792  16.490  23.146  0.00  0.00    +0.000 A 
ENDBRANCH  15  25
BRANCH   1  31
ATOM     31  O   UNL     1       3.112   7.857  18.124  0.00  0.00    +0.000 OA
BRANCH  31  33
ATOM     32  C   UNL     1       2.209   5.704  18.199  0.00  0.00    +0.000 C 
ATOM     33  C   UNL     1       3.452   6.543  18.194  0.00  0.00    +0.000 C 
ATOM     34  O   UNL     1       4.586   6.090  18.243  0.00  0.00    +0.000 OA
ENDBRANCH  31  33
ENDBRANCH   1  31
TORSDOF 3
ENDMDL
MODEL 3
REMARK VINA RESULT:      -6.8      0.794      1.181
REMARK  Name = 
REMARK  6 active torsions:
REMARK  status: ('A' for Active; 'I' for Inactive)
REMARK    1  A    between atoms: C_1  and  C_2
REMARK    2  A    between atoms: C_2  and  O_4
REMARK    3  A    between atoms: O_4  and  C_5
REMARK    4  A    between atoms: C_8  and  C_9
REMARK    5  A    between atoms: N_19  and  C_20
REMARK    6  A    between atoms: C_28  and  C_29
REMARK                            x       y       z     vdW  Elec       q    Type
REMARK                         _______ _______ _______ _____ _____    ______ ____
ROOT
ATOM      1  C   UNL     1       1.481   8.611  18.924  0.00  0.00    +0.000 C 
ATOM      2  C   UNL     1       1.575   8.791  20.444  0.00  0.00    +0.000 C 
ATOM      3  C   UNL     1       0.232   9.332  21.003  0.00  0.00    +0.000 C 
ATOM      4  C   UNL     1      -0.141  10.717  20.365  0.00  0.00    +0.000 C 
ATOM      5  C   UNL     1       1.071  11.617  20.812  0.00  0.00    +0.000 C 
ATOM      6  C   UNL     1      -0.279  10.428  18.852  0.00  0.00    +0.000 C 
ATOM      7  C   UNL     1      -1.435  10.535  18.149  0.00  0.00    +0.000 C 
ATOM      8  C   UNL     1      -2.760  11.081  18.671  0.00  0.00    +0.000 C 
ATOM      9  C   UNL     1      -2.404  12.060  19.769  0.00  0.00    +0.000 C 
ATOM     10  C   UNL     1      -3.390  13.006  20.496  0.00  0.00    +0.000 C 
ATOM     11  C   UNL     1      -4.740  13.751  20.162  0.00  0.00    +0.000 C 
ATOM     12  C   UNL     1      -5.087  14.588  21.415  0.00  0.00    +0.000 A 
ATOM     13  C   UNL     1      -6.033  14.566  22.474  0.00  0.00    +0.000 A 
ATOM     14  N   UNL     1      -5.609  15.184  23.600  0.00  0.00    +0.000 NA
ATOM     15  N   UNL     1      -4.374  15.711  23.270  0.00  0.00    +0.000 N 
ATOM     16  C   UNL     1      -4.116  15.399  21.947  0.00  0.00    +0.000 A 
ATOM     17  N   UNL     1      -2.896  15.355  21.408  0.00  0.00    +0.000 N 
ATOM     18  C   UNL     1      -2.378  13.996  21.235  0.00  0.00    +0.000 C 
ATOM     19  C   UNL     1      -1.044  14.371  20.543  0.00  0.00    +0.000 C 
ATOM     20  C   UNL     1      -2.190  13.228  22.556  0.00  0.00    +0.000 C 
ATOM     21  C   UNL     1      -1.415  11.935  22.319  0.00  0.00    +0.000 C 
ATOM     22  C   UNL     1      -1.538  11.260  20.906  0.00  0.00    +0.000 C 
ATOM     23  C   UNL     1       0.949   9.847  18.180  0.00  0.00    +0.000 C 
ATOM     24  H   UNL     1      -2.167  15.946  21.805  0.00  0.00    +0.000 HD
ENDROOT
BRANCH  15  25
ATOM     25  C   UNL     1      -3.342  16.046  24.227  0.00  0.00    +0.000 A 
ATOM     26  C   UNL     1      -3.041  15.158  25.267  0.00  0.00    +0.000 A 
ATOM     27  C   UNL     1      -1.807  15.256  25.943  0.00  0.00    +0.000 A 
ATOM     28  C   UNL     1      -0.878  16.244  25.611  0.00  0.00    +0.000 A 
ATOM     29  C   UNL     1      -1.191  17.172  24.626  0.00  0.00    +0.000 A 
ATOM     30  C   UNL     1      -2.426  17.090  23.959  0.00  0.00    +0.000 A 
ENDBRANCH  15  25
BRANCH   1  31
ATOM     31  O   UNL     1       2.695   8.084  18.337  0.00  0.00    +0.000 OA
BRANCH  31  33
ATOM     32  C   UNL     1       4.127   6.465  17.449  0.00  0.00    +0.000 C 
ATOM     33  C   UNL     1       2.900   6.742  18.267  0.00  0.00    +0.000 C 
ATOM     34  O   UNL     1       2.208   5.877  18.781  0.00  0.00    +0.000 OA
ENDBRANCH  31  33
ENDBRANCH   1  31
TORSDOF 3
ENDMDL
MODEL 4
REMARK VINA RESULT:      -6.6      9.379     12.504
REMARK  Name = 
REMARK  6 active torsions:
REMARK  status: ('A' for Active; 'I' for Inactive)
REMARK    1  A    between atoms: C_1  and  C_2
REMARK    2  A    between atoms: C_2  and  O_4
REMARK    3  A    between atoms: O_4  and  C_5
REMARK    4  A    between atoms: C_8  and  C_9
REMARK    5  A    between atoms: N_19  and  C_20
REMARK    6  A    between atoms: C_28  and  C_29
REMARK                            x       y       z     vdW  Elec       q    Type
REMARK                         _______ _______ _______ _____ _____    ______ ____
ROOT
ATOM      1  C   UNL     1       5.663  12.116  26.912  0.00  0.00    +0.000 C 
ATOM      2  C   UNL     1       6.667  11.155  26.266  0.00  0.00    +0.000 C 
ATOM      3  C   UNL     1       7.840  11.950  25.634  0.00  0.00    +0.000 C 
ATOM      4  C   UNL     1       7.333  12.945  24.532  0.00  0.00    +0.000 C 
ATOM      5  C   UNL     1       6.676  11.967  23.488  0.00  0.00    +0.000 C 
ATOM      6  C   UNL     1       6.385  13.911  25.281  0.00  0.00    +0.000 C 
ATOM      7  C   UNL     1       6.609  15.240  25.444  0.00  0.00    +0.000 C 
ATOM      8  C   UNL     1       7.742  16.046  24.818  0.00  0.00    +0.000 C 
ATOM      9  C   UNL     1       8.102  15.332  23.533  0.00  0.00    +0.000 C 
ATOM     10  C   UNL     1       9.079  15.850  22.450  0.00  0.00    +0.000 C 
ATOM     11  C   UNL     1       9.565  17.247  21.902  0.00  0.00    +0.000 C 
ATOM     12  C   UNL     1      10.528  16.935  20.732  0.00  0.00    +0.000 A 
ATOM     13  C   UNL     1      11.921  16.993  20.463  0.00  0.00    +0.000 A 
ATOM     14  N   UNL     1      12.332  16.126  19.510  0.00  0.00    +0.000 NA
ATOM     15  N   UNL     1      11.174  15.520  19.062  0.00  0.00    +0.000 N 
ATOM     16  C   UNL     1      10.109  16.064  19.758  0.00  0.00    +0.000 A 
ATOM     17  N   UNL     1       8.928  15.464  19.916  0.00  0.00    +0.000 N 
ATOM     18  C   UNL     1       8.746  14.863  21.240  0.00  0.00    +0.000 C 
ATOM     19  C   UNL     1       7.292  14.369  21.043  0.00  0.00    +0.000 C 
ATOM     20  C   UNL     1       9.742  13.732  21.552  0.00  0.00    +0.000 C 
ATOM     21  C   UNL     1       9.333  12.992  22.821  0.00  0.00    +0.000 C 
ATOM     22  C   UNL     1       8.528  13.794  23.905  0.00  0.00    +0.000 C 
ATOM     23  C   UNL     1       5.214  13.261  25.990  0.00  0.00    +0.000 C 
ATOM     24  H   UNL     1       8.615  14.808  19.202  0.00  0.00    +0.000 HD
ENDROOT
BRANCH  15  25
ATOM     25  C   UNL     1      11.123  14.232  18.404  0.00  0.00    +0.000 A 
ATOM     26  C   UNL     1      12.107  13.272  18.674  0.00  0.00    +0.000 A 
ATOM     27  C   UNL     1      11.865  11.914  18.383  0.00  0.00    +0.000 A 
ATOM     28  C   UNL     1      10.663  11.501  17.804  0.00  0.00    +0.000 A 
ATOM     29  C   UNL     1       9.705  12.450  17.471  0.00  0.00    +0.000 A 
ATOM     30  C   UNL     1       9.946  13.809  17.744  0.00  0.00    +0.000 A 
ENDBRANCH  15  25
BRANCH   1  31
ATOM     31  O   UNL     1       4.551  11.437  27.544  0.00  0.00    +0.000 OA
BRANCH  31  33
ATOM     32  C   UNL     1       4.590   9.156  28.048  0.00  0.00    +0.000 C 
ATOM     33  C   UNL     1       4.140  10.223  27.094  0.00  0.00    +0.000 C 
ATOM     34  O   UNL     1       3.502  10.007  26.075  0.00  0.00    +0.000 OA
ENDBRANCH  31  33
ENDBRANCH   1  31
TORSDOF 3
ENDMDL
MODEL 5
REMARK VINA RESULT:      -6.4      1.854      3.611
REMARK  Name = 
REMARK  6 active torsions:
REMARK  status: ('A' for Active; 'I' for Inactive)
REMARK    1  A    between atoms: C_1  and  C_2
REMARK    2  A    between atoms: C_2  and  O_4
REMARK    3  A    between atoms: O_4  and  C_5
REMARK    4  A    between atoms: C_8  and  C_9
REMARK    5  A    between atoms: N_19  and  C_20
REMARK    6  A    between atoms: C_28  and  C_29
REMARK                            x       y       z     vdW  Elec       q    Type
REMARK                         _______ _______ _______ _____ _____    ______ ____
ROOT
ATOM      1  C   UNL     1       1.370   9.407  19.090  0.00  0.00    +0.000 C 
ATOM      2  C   UNL     1       1.448  10.830  18.526  0.00  0.00    +0.000 C 
ATOM      3  C   UNL     1       1.024  11.860  19.607  0.00  0.00    +0.000 C 
ATOM      4  C   UNL     1      -0.444  11.606  20.099  0.00  0.00    +0.000 C 
ATOM      5  C   UNL     1      -1.269  11.795  18.772  0.00  0.00    +0.000 C 
ATOM      6  C   UNL     1      -0.414  10.184  20.708  0.00  0.00    +0.000 C 
ATOM      7  C   UNL     1      -0.626   9.902  22.019  0.00  0.00    +0.000 C 
ATOM      8  C   UNL     1      -1.062  10.892  23.095  0.00  0.00    +0.000 C 
ATOM      9  C   UNL     1      -1.845  11.971  22.377  0.00  0.00    +0.000 C 
ATOM     10  C   UNL     1      -2.643  13.113  23.050  0.00  0.00    +0.000 C 
ATOM     11  C   UNL     1      -3.419  13.341  24.405  0.00  0.00    +0.000 C 
ATOM     12  C   UNL     1      -4.029  14.760  24.314  0.00  0.00    +0.000 A 
ATOM     13  C   UNL     1      -3.818  16.041  24.887  0.00  0.00    +0.000 A 
ATOM     14  N   UNL     1      -4.241  17.065  24.112  0.00  0.00    +0.000 NA
ATOM     15  N   UNL     1      -4.829  16.459  23.017  0.00  0.00    +0.000 N 
ATOM     16  C   UNL     1      -4.748  15.089  23.192  0.00  0.00    +0.000 A 
ATOM     17  N   UNL     1      -4.809  14.199  22.201  0.00  0.00    +0.000 N 
ATOM     18  C   UNL     1      -3.504  13.653  21.819  0.00  0.00    +0.000 C 
ATOM     19  C   UNL     1      -4.006  12.652  20.748  0.00  0.00    +0.000 C 
ATOM     20  C   UNL     1      -2.526  14.705  21.266  0.00  0.00    +0.000 C 
ATOM     21  C   UNL     1      -1.301  14.031  20.657  0.00  0.00    +0.000 C 
ATOM     22  C   UNL     1      -0.874  12.635  21.238  0.00  0.00    +0.000 C 
ATOM     23  C   UNL     1       0.032   9.079  19.773  0.00  0.00    +0.000 C 
ATOM     24  H   UNL     1      -5.332  14.441  21.360  0.00  0.00    +0.000 HD
ENDROOT
BRANCH  15  25
ATOM     25  C   UNL     1      -5.009  17.090  21.728  0.00  0.00    +0.000 A 
ATOM     26  C   UNL     1      -3.974  17.854  21.175  0.00  0.00    +0.000 A 
ATOM     27  C   UNL     1      -3.959  18.126  19.792  0.00  0.00    +0.000 A 
ATOM     28  C   UNL     1      -4.976  17.664  18.953  0.00  0.00    +0.000 A 
ATOM     29  C   UNL     1      -6.042  16.960  19.498  0.00  0.00    +0.000 A 
ATOM     30  C   UNL     1      -6.072  16.700  20.880  0.00  0.00    +0.000 A 
ENDBRANCH  15  25
BRANCH   1  31
ATOM     31  O   UNL     1       1.777   8.394  18.139  0.00  0.00    +0.000 OA
BRANCH  31  33
ATOM     32  C   UNL     1       3.775   7.319  17.581  0.00  0.00    +0.000 C 
ATOM     33  C   UNL     1       2.606   7.387  18.519  0.00  0.00    +0.000 C 
ATOM     34  O   UNL     1       2.448   6.640  19.473  0.00  0.00    +0.000 OA
ENDBRANCH  31  33
ENDBRANCH   1  31
TORSDOF 3
ENDMDL
MODEL 6
REMARK VINA RESULT:      -6.2      4.274      7.158
REMARK  Name = 
REMARK  6 active torsions:
REMARK  status: ('A' for Active; 'I' for Inactive)
REMARK    1  A    between atoms: C_1  and  C_2
REMARK    2  A    between atoms: C_2  and  O_4
REMARK    3  A    between atoms: O_4  and  C_5
REMARK    4  A    between atoms: C_8  and  C_9
REMARK    5  A    between atoms: N_19  and  C_20
REMARK    6  A    between atoms: C_28  and  C_29
REMARK                            x       y       z     vdW  Elec       q    Type
REMARK                         _______ _______ _______ _____ _____    ______ ____
ROOT
ATOM      1  C   UNL     1       5.127  15.971  19.655  0.00  0.00    +0.000 C 
ATOM      2  C   UNL     1       4.491  15.770  18.274  0.00  0.00    +0.000 C 
ATOM      3  C   UNL     1       2.943  15.819  18.385  0.00  0.00    +0.000 C 
ATOM      4  C   UNL     1       2.399  14.703  19.345  0.00  0.00    +0.000 C 
ATOM      5  C   UNL     1       2.880  13.390  18.623  0.00  0.00    +0.000 C 
ATOM      6  C   UNL     1       3.036  15.021  20.718  0.00  0.00    +0.000 C 
ATOM      7  C   UNL     1       2.341  15.390  21.825  0.00  0.00    +0.000 C 
ATOM      8  C   UNL     1       0.822  15.427  21.963  0.00  0.00    +0.000 C 
ATOM      9  C   UNL     1       0.289  14.390  20.999  0.00  0.00    +0.000 C 
ATOM     10  C   UNL     1      -1.182  13.925  20.888  0.00  0.00    +0.000 C 
ATOM     11  C   UNL     1      -2.429  13.789  21.845  0.00  0.00    +0.000 C 
ATOM     12  C   UNL     1      -3.558  13.166  20.991  0.00  0.00    +0.000 A 
ATOM     13  C   UNL     1      -4.783  13.570  20.398  0.00  0.00    +0.000 A 
ATOM     14  N   UNL     1      -5.139  12.835  19.320  0.00  0.00    +0.000 NA
ATOM     15  N   UNL     1      -4.171  11.853  19.227  0.00  0.00    +0.000 N 
ATOM     16  C   UNL     1      -3.278  12.033  20.270  0.00  0.00    +0.000 A 
ATOM     17  N   UNL     1      -2.024  11.578  20.273  0.00  0.00    +0.000 N 
ATOM     18  C   UNL     1      -1.024  12.611  19.994  0.00  0.00    +0.000 C 
ATOM     19  C   UNL     1       0.237  11.728  20.164  0.00  0.00    +0.000 C 
ATOM     20  C   UNL     1      -1.150  13.239  18.595  0.00  0.00    +0.000 C 
ATOM     21  C   UNL     1       0.066  14.107  18.285  0.00  0.00    +0.000 C 
ATOM     22  C   UNL     1       0.814  14.772  19.495  0.00  0.00    +0.000 C 
ATOM     23  C   UNL     1       4.551  15.055  20.747  0.00  0.00    +0.000 C 
ATOM     24  H   UNL     1      -1.807  10.743  19.730  0.00  0.00    +0.000 HD
ENDROOT
BRANCH  15  25
ATOM     25  C   UNL     1      -3.848  11.130  18.016  0.00  0.00    +0.000 A 
ATOM     26  C   UNL     1      -4.295  11.609  16.778  0.00  0.00    +0.000 A 
ATOM     27  C   UNL     1      -3.673  11.178  15.589  0.00  0.00    +0.000 A 
ATOM     28  C   UNL     1      -2.625  10.256  15.615  0.00  0.00    +0.000 A 
ATOM     29  C   UNL     1      -2.214   9.724  16.830  0.00  0.00    +0.000 A 
ATOM     30  C   UNL     1      -2.842  10.137  18.019  0.00  0.00    +0.000 A 
ENDBRANCH  15  25
BRANCH   1  31
ATOM     31  O   UNL     1       6.574  15.960  19.621  0.00  0.00    +0.000 OA
BRANCH  31  33
ATOM     32  C   UNL     1       7.927  15.488  17.775  0.00  0.00    +0.000 C 
ATOM     33  C   UNL     1       7.243  16.544  18.592  0.00  0.00    +0.000 C 
ATOM     34  O   UNL     1       7.293  17.740  18.347  0.00  0.00    +0.000 OA
ENDBRANCH  31  33
ENDBRANCH   1  31
TORSDOF 3
ENDMDL
MODEL 7
REMARK VINA RESULT:      -6.1      1.949      3.473
REMARK  Name = 
REMARK  6 active torsions:
REMARK  status: ('A' for Active; 'I' for Inactive)
REMARK    1  A    between atoms: C_1  and  C_2
REMARK    2  A    between atoms: C_2  and  O_4
REMARK    3  A    between atoms: O_4  and  C_5
REMARK    4  A    between atoms: C_8  and  C_9
REMARK    5  A    between atoms: N_19  and  C_20
REMARK    6  A    between atoms: C_28  and  C_29
REMARK                            x       y       z     vdW  Elec       q    Type
REMARK                         _______ _______ _______ _____ _____    ______ ____
ROOT
ATOM      1  C   UNL     1       1.944   9.249  17.832  0.00  0.00    +0.000 C 
ATOM      2  C   UNL     1       0.485   8.779  17.817  0.00  0.00    +0.000 C 
ATOM      3  C   UNL     1      -0.472  10.001  17.807  0.00  0.00    +0.000 C 
ATOM      4  C   UNL     1      -0.259  10.908  19.071  0.00  0.00    +0.000 C 
ATOM      5  C   UNL     1      -0.607   9.918  20.244  0.00  0.00    +0.000 C 
ATOM      6  C   UNL     1       1.208  11.387  18.968  0.00  0.00    +0.000 C 
ATOM      7  C   UNL     1       1.588  12.678  18.792  0.00  0.00    +0.000 C 
ATOM      8  C   UNL     1       0.670  13.896  18.798  0.00  0.00    +0.000 C 
ATOM      9  C   UNL     1      -0.508  13.527  19.675  0.00  0.00    +0.000 C 
ATOM     10  C   UNL     1      -1.631  14.486  20.136  0.00  0.00    +0.000 C 
ATOM     11  C   UNL     1      -1.787  16.026  20.440  0.00  0.00    +0.000 C 
ATOM     12  C   UNL     1      -3.240  16.219  20.934  0.00  0.00    +0.000 A 
ATOM     13  C   UNL     1      -4.455  16.778  20.457  0.00  0.00    +0.000 A 
ATOM     14  N   UNL     1      -5.563  16.239  21.014  0.00  0.00    +0.000 NA
ATOM     15  N   UNL     1      -5.086  15.346  21.955  0.00  0.00    +0.000 N 
ATOM     16  C   UNL     1      -3.703  15.399  21.933  0.00  0.00    +0.000 A 
ATOM     17  N   UNL     1      -2.905  14.422  22.364  0.00  0.00    +0.000 N 
ATOM     18  C   UNL     1      -2.321  13.620  21.286  0.00  0.00    +0.000 C 
ATOM     19  C   UNL     1      -1.444  12.697  22.168  0.00  0.00    +0.000 C 
ATOM     20  C   UNL     1      -3.360  12.858  20.444  0.00  0.00    +0.000 C 
ATOM     21  C   UNL     1      -2.672  11.858  19.520  0.00  0.00    +0.000 C 
ATOM     22  C   UNL     1      -1.211  12.187  19.048  0.00  0.00    +0.000 C 
ATOM     23  C   UNL     1       2.253  10.291  18.919  0.00  0.00    +0.000 C 
ATOM     24  H   UNL     1      -3.246  13.802  23.098  0.00  0.00    +0.000 HD
ENDROOT
BRANCH  15  25
ATOM     25  C   UNL     1      -5.832  14.218  22.470  0.00  0.00    +0.000 A 
ATOM     26  C   UNL     1      -6.297  14.235  23.791  0.00  0.00    +0.000 A 
ATOM     27  C   UNL     1      -7.342  13.374  24.182  0.00  0.00    +0.000 A 
ATOM     28  C   UNL     1      -7.917  12.478  23.278  0.00  0.00    +0.000 A 
ATOM     29  C   UNL     1      -7.422  12.404  21.982  0.00  0.00    +0.000 A 
ATOM     30  C   UNL     1      -6.368  13.250  21.590  0.00  0.00    +0.000 A 
ENDBRANCH  15  25
BRANCH   1  31
ATOM     31  O   UNL     1       2.893   8.156  17.817  0.00  0.00    +0.000 OA
BRANCH  31  33
ATOM     32  C   UNL     1       2.668   5.832  17.718  0.00  0.00    +0.000 C 
ATOM     33  C   UNL     1       2.688   7.055  18.587  0.00  0.00    +0.000 C 
ATOM     34  O   UNL     1       2.542   7.037  19.799  0.00  0.00    +0.000 OA
ENDBRANCH  31  33
ENDBRANCH   1  31
TORSDOF 3
ENDMDL
MODEL 8
REMARK VINA RESULT:      -6.1      4.590      7.530
REMARK  Name = 
REMARK  6 active torsions:
REMARK  status: ('A' for Active; 'I' for Inactive)
REMARK    1  A    between atoms: C_1  and  C_2
REMARK    2  A    between atoms: C_2  and  O_4
REMARK    3  A    between atoms: O_4  and  C_5
REMARK    4  A    between atoms: C_8  and  C_9
REMARK    5  A    between atoms: N_19  and  C_20
REMARK    6  A    between atoms: C_28  and  C_29
REMARK                            x       y       z     vdW  Elec       q    Type
REMARK                         _______ _______ _______ _____ _____    ______ ____
ROOT
ATOM      1  C   UNL     1       5.588  16.698  19.971  0.00  0.00    +0.000 C 
ATOM      2  C   UNL     1       4.885  16.651  18.609  0.00  0.00    +0.000 C 
ATOM      3  C   UNL     1       3.348  16.556  18.802  0.00  0.00    +0.000 C 
ATOM      4  C   UNL     1       2.947  15.270  19.606  0.00  0.00    +0.000 C 
ATOM      5  C   UNL     1       3.479  14.122  18.670  0.00  0.00    +0.000 C 
ATOM      6  C   UNL     1       3.641  15.433  20.979  0.00  0.00    +0.000 C 
ATOM      7  C   UNL     1       2.989  15.576  22.161  0.00  0.00    +0.000 C 
ATOM      8  C   UNL     1       1.483  15.468  22.378  0.00  0.00    +0.000 C 
ATOM      9  C   UNL     1       0.971  14.543  21.294  0.00  0.00    +0.000 C 
ATOM     10  C   UNL     1      -0.467  13.980  21.187  0.00  0.00    +0.000 C 
ATOM     11  C   UNL     1      -1.639  13.603  22.172  0.00  0.00    +0.000 C 
ATOM     12  C   UNL     1      -2.769  13.022  21.290  0.00  0.00    +0.000 A 
ATOM     13  C   UNL     1      -4.054  13.406  20.826  0.00  0.00    +0.000 A 
ATOM     14  N   UNL     1      -4.420  12.812  19.668  0.00  0.00    +0.000 NA
ATOM     15  N   UNL     1      -3.389  11.938  19.379  0.00  0.00    +0.000 N 
ATOM     16  C   UNL     1      -2.450  12.034  20.392  0.00  0.00    +0.000 A 
ATOM     17  N   UNL     1      -1.168  11.689  20.265  0.00  0.00    +0.000 N 
ATOM     18  C   UNL     1      -0.266  12.831  20.097  0.00  0.00    +0.000 C 
ATOM     19  C   UNL     1       1.064  12.038  20.069  0.00  0.00    +0.000 C 
ATOM     20  C   UNL     1      -0.523  13.646  18.817  0.00  0.00    +0.000 C 
ATOM     21  C   UNL     1       0.604  14.647  18.583  0.00  0.00    +0.000 C 
ATOM     22  C   UNL     1       1.373  15.185  19.842  0.00  0.00    +0.000 C 
ATOM     23  C   UNL     1       5.148  15.587  20.938  0.00  0.00    +0.000 C 
ATOM     24  H   UNL     1      -0.924  10.964  19.592  0.00  0.00    +0.000 HD
ENDROOT
BRANCH  15  25
ATOM     25  C   UNL     1      -3.088  11.430  18.058  0.00  0.00    +0.000 A 
ATOM     26  C   UNL     1      -2.058  10.496  17.889  0.00  0.00    +0.000 A 
ATOM     27  C   UNL     1      -2.014   9.698  16.727  0.00  0.00    +0.000 A 
ATOM     28  C   UNL     1      -2.971   9.835  15.720  0.00  0.00    +0.000 A 
ATOM     29  C   UNL     1      -3.960  10.802  15.845  0.00  0.00    +0.000 A 
ATOM     30  C   UNL     1      -4.000  11.613  16.994  0.00  0.00    +0.000 A 
ENDBRANCH  15  25
BRANCH   1  31
ATOM     31  O   UNL     1       7.027  16.812  19.865  0.00  0.00    +0.000 OA
BRANCH  31  33
ATOM     32  C   UNL     1       7.931  15.711  18.013  0.00  0.00    +0.000 C 
ATOM     33  C   UNL     1       7.613  17.028  18.658  0.00  0.00    +0.000 C 
ATOM     34  O   UNL     1       7.852  18.114  18.154  0.00  0.00    +0.000 OA
ENDBRANCH  31  33
ENDBRANCH   1  31
TORSDOF 3
ENDMDL
MODEL 9
REMARK VINA RESULT:      -6.1      1.906      3.651
REMARK  Name = 
REMARK  6 active torsions:
REMARK  status: ('A' for Active; 'I' for Inactive)
REMARK    1  A    between atoms: C_1  and  C_2
REMARK    2  A    between atoms: C_2  and  O_4
REMARK    3  A    between atoms: O_4  and  C_5
REMARK    4  A    between atoms: C_8  and  C_9
REMARK    5  A    between atoms: N_19  and  C_20
REMARK    6  A    between atoms: C_28  and  C_29
REMARK                            x       y       z     vdW  Elec       q    Type
REMARK                         _______ _______ _______ _____ _____    ______ ____
ROOT
ATOM      1  C   UNL     1       1.760   8.898  18.895  0.00  0.00    +0.000 C 
ATOM      2  C   UNL     1       1.832  10.259  18.195  0.00  0.00    +0.000 C 
ATOM      3  C   UNL     1       1.394  11.387  19.168  0.00  0.00    +0.000 C 
ATOM      4  C   UNL     1      -0.075  11.171  19.674  0.00  0.00    +0.000 C 
ATOM      5  C   UNL     1      -0.893  11.225  18.330  0.00  0.00    +0.000 C 
ATOM      6  C   UNL     1      -0.039   9.817  20.419  0.00  0.00    +0.000 C 
ATOM      7  C   UNL     1      -0.258   9.663  21.750  0.00  0.00    +0.000 C 
ATOM      8  C   UNL     1      -0.707  10.750  22.721  0.00  0.00    +0.000 C 
ATOM      9  C   UNL     1      -1.493  11.747  21.897  0.00  0.00    +0.000 C 
ATOM     10  C   UNL     1      -2.303  12.944  22.451  0.00  0.00    +0.000 C 
ATOM     11  C   UNL     1      -3.089  13.298  23.772  0.00  0.00    +0.000 C 
ATOM     12  C   UNL     1      -3.707  14.697  23.539  0.00  0.00    +0.000 A 
ATOM     13  C   UNL     1      -3.508  16.030  23.986  0.00  0.00    +0.000 A 
ATOM     14  N   UNL     1      -3.933  16.970  23.111  0.00  0.00    +0.000 NA
ATOM     15  N   UNL     1      -4.511  16.256  22.079  0.00  0.00    +0.000 N 
ATOM     16  C   UNL     1      -4.421  14.909  22.387  0.00  0.00    +0.000 A 
ATOM     17  N   UNL     1      -4.470  13.926  21.487  0.00  0.00    +0.000 N 
ATOM     18  C   UNL     1      -3.160  13.355  21.168  0.00  0.00    +0.000 C 
ATOM     19  C   UNL     1      -3.648  12.251  20.198  0.00  0.00    +0.000 C 
ATOM     20  C   UNL     1      -2.185  14.355  20.520  0.00  0.00    +0.000 C 
ATOM     21  C   UNL     1      -0.952  13.633  19.987  0.00  0.00    +0.000 C 
ATOM     22  C   UNL     1      -0.519  12.304  20.704  0.00  0.00    +0.000 C 
ATOM     23  C   UNL     1       0.419   8.628  19.599  0.00  0.00    +0.000 C 
ATOM     24  H   UNL     1      -4.990  14.082  20.624  0.00  0.00    +0.000 HD
ENDROOT
BRANCH  15  25
ATOM     25  C   UNL     1      -4.687  16.756  20.732  0.00  0.00    +0.000 A 
ATOM     26  C   UNL     1      -5.948  16.695  20.126  0.00  0.00    +0.000 A 
ATOM     27  C   UNL     1      -6.238  17.519  19.019  0.00  0.00    +0.000 A 
ATOM     28  C   UNL     1      -5.280  18.387  18.493  0.00  0.00    +0.000 A 
ATOM     29  C   UNL     1      -4.005  18.411  19.044  0.00  0.00    +0.000 A 
ATOM     30  C   UNL     1      -3.703  17.579  20.138  0.00  0.00    +0.000 A 
ENDBRANCH  15  25
BRANCH   1  31
ATOM     31  O   UNL     1       2.179   7.800  18.050  0.00  0.00    +0.000 OA
BRANCH  31  33
ATOM     32  C   UNL     1       4.138   6.635  17.535  0.00  0.00    +0.000 C 
ATOM     33  C   UNL     1       3.032   6.853  18.524  0.00  0.00    +0.000 C 
ATOM     34  O   UNL     1       2.935   6.260  19.587  0.00  0.00    +0.000 OA
ENDBRANCH  31  33
ENDBRANCH   1  31
TORSDOF 3
ENDMDL
