MODEL 1
REMARK VINA RESULT:      -7.4      0.000      0.000
REMARK  Name = 
REMARK  6 active torsions:
REMARK  status: ('A' for Active; 'I' for Inactive)
REMARK    1  A    between atoms: C_1  and  C_2
REMARK    2  A    between atoms: C_5  and  N_6
REMARK    3  A    between atoms: N_6  and  C_7
REMARK    4  A    between atoms: C_7  and  N_9
REMARK    5  A    between atoms: N_12  and  S_13
REMARK    6  A    between atoms: S_13  and  C_14
REMARK                            x       y       z     vdW  Elec       q    Type
REMARK                         _______ _______ _______ _____ _____    ______ ____
ROOT
ATOM      1  C   UNL     1       2.715   4.997  19.618  0.00  0.00    +0.000 C 
ATOM      2  S   UNL     1       1.403   3.969  19.860  0.00  0.00    +0.000 S 
ENDROOT
BRANCH   1   3
ATOM      3  N   UNL     1       3.844   4.658  18.810  0.00  0.00    +0.000 N 
ATOM      4  C   UNL     1       5.152   5.295  19.091  0.00  0.00    +0.000 C 
ATOM      5  C   UNL     1       6.348   4.619  18.405  0.00  0.00    +0.000 C 
ATOM      6  N   UNL     1       6.127   4.390  16.949  0.00  0.00    +0.000 NA
ATOM      7  C   UNL     1       4.858   3.641  16.731  0.00  0.00    +0.000 C 
ATOM      8  C   UNL     1       3.648   4.330  17.377  0.00  0.00    +0.000 C 
BRANCH   6   9
ATOM      9  S   UNL     1       6.422   5.686  15.897  0.00  0.00    +0.000 S 
ATOM     10  C   UNL     1       6.790   4.855  14.363  0.00  0.00    +0.000 C 
ATOM     11  O   UNL     1       5.172   6.395  15.714  0.00  0.00    +0.000 OA
ATOM     12  O   UNL     1       7.608   6.372  16.350  0.00  0.00    +0.000 OA
ENDBRANCH   6   9
ENDBRANCH   1   3
BRANCH   1  13
ATOM     13  N   UNL     1       2.804   6.293  20.114  0.00  0.00    +0.000 N 
ATOM     14  H   UNL     1       3.529   6.402  20.810  0.00  0.00    +0.000 HD
BRANCH  13  19
ATOM     15  C   UNL     1       0.063  11.154  18.704  0.00  0.00    +0.000 C 
ATOM     16  C   UNL     1       0.779   9.890  19.084  0.00  0.00    +0.000 A 
ATOM     17  C   UNL     1       1.514   9.202  18.117  0.00  0.00    +0.000 A 
ATOM     18  C   UNL     1       2.188   8.015  18.428  0.00  0.00    +0.000 A 
ATOM     19  C   UNL     1       2.179   7.503  19.722  0.00  0.00    +0.000 A 
ATOM     20  C   UNL     1       1.427   8.178  20.694  0.00  0.00    +0.000 A 
ATOM     21  C   UNL     1       0.732   9.355  20.379  0.00  0.00    +0.000 A 
ATOM     22 CL   UNL     1      -0.192  10.110  21.630  0.00  0.00    +0.000 Cl
ENDBRANCH  13  19
ENDBRANCH   1  13
TORSDOF 4
ENDMDL
MODEL 2
REMARK VINA RESULT:      -7.4      0.785      1.119
REMARK  Name = 
REMARK  6 active torsions:
REMARK  status: ('A' for Active; 'I' for Inactive)
REMARK    1  A    between atoms: C_1  and  C_2
REMARK    2  A    between atoms: C_5  and  N_6
REMARK    3  A    between atoms: N_6  and  C_7
REMARK    4  A    between atoms: C_7  and  N_9
REMARK    5  A    between atoms: N_12  and  S_13
REMARK    6  A    between atoms: S_13  and  C_14
REMARK                            x       y       z     vdW  Elec       q    Type
REMARK                         _______ _______ _______ _____ _____    ______ ____
ROOT
ATOM      1  C   UNL     1       2.647   4.984  19.676  0.00  0.00    +0.000 C 
ATOM      2  S   UNL     1       1.352   3.926  19.866  0.00  0.00    +0.000 S 
ENDROOT
BRANCH   1   3
ATOM      3  N   UNL     1       3.796   4.689  18.877  0.00  0.00    +0.000 N 
ATOM      4  C   UNL     1       5.115   5.230  19.281  0.00  0.00    +0.000 C 
ATOM      5  C   UNL     1       6.312   4.584  18.568  0.00  0.00    +0.000 C 
ATOM      6  N   UNL     1       6.146   4.533  17.088  0.00  0.00    +0.000 NA
ATOM      7  C   UNL     1       4.858   3.872  16.735  0.00  0.00    +0.000 C 
ATOM      8  C   UNL     1       3.650   4.537  17.410  0.00  0.00    +0.000 C 
BRANCH   6   9
ATOM      9  S   UNL     1       6.538   5.927  16.206  0.00  0.00    +0.000 S 
ATOM     10  C   UNL     1       7.415   6.905  17.410  0.00  0.00    +0.000 C 
ATOM     11  O   UNL     1       7.491   5.545  15.184  0.00  0.00    +0.000 OA
ATOM     12  O   UNL     1       5.310   6.602  15.863  0.00  0.00    +0.000 OA
ENDBRANCH   6   9
ENDBRANCH   1   3
BRANCH   1  13
ATOM     13  N   UNL     1       2.704   6.268  20.209  0.00  0.00    +0.000 N 
ATOM     14  H   UNL     1       3.364   6.352  20.969  0.00  0.00    +0.000 HD
BRANCH  13  19
ATOM     15  C   UNL     1       0.153  11.200  18.694  0.00  0.00    +0.000 C 
ATOM     16  C   UNL     1       0.819   9.917  19.101  0.00  0.00    +0.000 A 
ATOM     17  C   UNL     1       1.553   9.197  18.157  0.00  0.00    +0.000 A 
ATOM     18  C   UNL     1       2.181   7.992  18.493  0.00  0.00    +0.000 A 
ATOM     19  C   UNL     1       2.126   7.493  19.792  0.00  0.00    +0.000 A 
ATOM     20  C   UNL     1       1.375   8.201  20.740  0.00  0.00    +0.000 A 
ATOM     21  C   UNL     1       0.725   9.397  20.399  0.00  0.00    +0.000 A 
ATOM     22 CL   UNL     1      -0.202  10.193  21.622  0.00  0.00    +0.000 Cl
ENDBRANCH  13  19
ENDBRANCH   1  13
TORSDOF 4
ENDMDL
MODEL 3
REMARK VINA RESULT:      -7.1      1.614      1.911
REMARK  Name = 
REMARK  6 active torsions:
REMARK  status: ('A' for Active; 'I' for Inactive)
REMARK    1  A    between atoms: C_1  and  C_2
REMARK    2  A    between atoms: C_5  and  N_6
REMARK    3  A    between atoms: N_6  and  C_7
REMARK    4  A    between atoms: C_7  and  N_9
REMARK    5  A    between atoms: N_12  and  S_13
REMARK    6  A    between atoms: S_13  and  C_14
REMARK                            x       y       z     vdW  Elec       q    Type
REMARK                         _______ _______ _______ _____ _____    ______ ____
ROOT
ATOM      1  C   UNL     1       2.397   5.657  19.839  0.00  0.00    +0.000 C 
ATOM      2  S   UNL     1       1.256   4.545  20.385  0.00  0.00    +0.000 S 
ENDROOT
BRANCH   1   3
ATOM      3  N   UNL     1       3.284   5.404  18.748  0.00  0.00    +0.000 N 
ATOM      4  C   UNL     1       3.967   4.093  18.659  0.00  0.00    +0.000 C 
ATOM      5  C   UNL     1       4.613   3.802  17.297  0.00  0.00    +0.000 C 
ATOM      6  N   UNL     1       5.467   4.922  16.811  0.00  0.00    +0.000 NA
ATOM      7  C   UNL     1       4.695   6.197  16.807  0.00  0.00    +0.000 C 
ATOM      8  C   UNL     1       4.079   6.517  18.176  0.00  0.00    +0.000 C 
BRANCH   6   9
ATOM      9  S   UNL     1       7.055   5.012  17.399  0.00  0.00    +0.000 S 
ATOM     10  C   UNL     1       7.380   6.764  17.355  0.00  0.00    +0.000 C 
ATOM     11  O   UNL     1       7.029   4.613  18.791  0.00  0.00    +0.000 OA
ATOM     12  O   UNL     1       7.923   4.354  16.452  0.00  0.00    +0.000 OA
ENDBRANCH   6   9
ENDBRANCH   1   3
BRANCH   1  13
ATOM     13  N   UNL     1       2.544   6.947  20.338  0.00  0.00    +0.000 N 
ATOM     14  H   UNL     1       3.472   7.129  20.697  0.00  0.00    +0.000 HD
BRANCH  13  19
ATOM     15  C   UNL     1      -1.063  11.431  20.375  0.00  0.00    +0.000 C 
ATOM     16  C   UNL     1      -0.120  10.263  20.378  0.00  0.00    +0.000 A 
ATOM     17  C   UNL     1       0.536   9.910  19.198  0.00  0.00    +0.000 A 
ATOM     18  C   UNL     1       1.416   8.823  19.155  0.00  0.00    +0.000 A 
ATOM     19  C   UNL     1       1.695   8.080  20.300  0.00  0.00    +0.000 A 
ATOM     20  C   UNL     1       1.025   8.417  21.484  0.00  0.00    +0.000 A 
ATOM     21  C   UNL     1       0.124   9.492  21.523  0.00  0.00    +0.000 A 
ATOM     22 CL   UNL     1      -0.679   9.823  23.017  0.00  0.00    +0.000 Cl
ENDBRANCH  13  19
ENDBRANCH   1  13
TORSDOF 4
ENDMDL
MODEL 4
REMARK VINA RESULT:      -7.0      4.391      6.930
REMARK  Name = 
REMARK  6 active torsions:
REMARK  status: ('A' for Active; 'I' for Inactive)
REMARK    1  A    between atoms: C_1  and  C_2
REMARK    2  A    between atoms: C_5  and  N_6
REMARK    3  A    between atoms: N_6  and  C_7
REMARK    4  A    between atoms: C_7  and  N_9
REMARK    5  A    between atoms: N_12  and  S_13
REMARK    6  A    between atoms: S_13  and  C_14
REMARK                            x       y       z     vdW  Elec       q    Type
REMARK                         _______ _______ _______ _____ _____    ______ ____
ROOT
ATOM      1  C   UNL     1       6.177   5.458  18.669  0.00  0.00    +0.000 C 
ATOM      2  S   UNL     1       7.570   5.567  19.609  0.00  0.00    +0.000 S 
ENDROOT
BRANCH   1   3
ATOM      3  N   UNL     1       4.930   4.966  19.163  0.00  0.00    +0.000 N 
ATOM      4  C   UNL     1       4.735   3.504  19.309  0.00  0.00    +0.000 C 
ATOM      5  C   UNL     1       3.517   3.106  20.154  0.00  0.00    +0.000 C 
ATOM      6  N   UNL     1       2.269   3.808  19.739  0.00  0.00    +0.000 NA
ATOM      7  C   UNL     1       2.486   5.282  19.725  0.00  0.00    +0.000 C 
ATOM      8  C   UNL     1       3.677   5.694  18.849  0.00  0.00    +0.000 C 
BRANCH   6   9
ATOM      9  S   UNL     1       1.407   3.166  18.428  0.00  0.00    +0.000 S 
ATOM     10  C   UNL     1       2.572   2.009  17.736  0.00  0.00    +0.000 C 
ATOM     11  O   UNL     1       0.302   2.398  18.963  0.00  0.00    +0.000 OA
ATOM     12  O   UNL     1       1.183   4.227  17.475  0.00  0.00    +0.000 OA
ENDBRANCH   6   9
ENDBRANCH   1   3
BRANCH   1  13
ATOM     13  N   UNL     1       6.076   5.896  17.353  0.00  0.00    +0.000 N 
ATOM     14  H   UNL     1       6.097   6.903  17.269  0.00  0.00    +0.000 HD
BRANCH  13  19
ATOM     15  C   UNL     1       6.258   3.301  12.219  0.00  0.00    +0.000 C 
ATOM     16  C   UNL     1       6.223   3.981  13.557  0.00  0.00    +0.000 A 
ATOM     17  C   UNL     1       5.255   3.606  14.491  0.00  0.00    +0.000 A 
ATOM     18  C   UNL     1       5.182   4.221  15.746  0.00  0.00    +0.000 A 
ATOM     19  C   UNL     1       6.098   5.201  16.119  0.00  0.00    +0.000 A 
ATOM     20  C   UNL     1       7.061   5.596  15.180  0.00  0.00    +0.000 A 
ATOM     21  C   UNL     1       7.120   4.997  13.912  0.00  0.00    +0.000 A 
ATOM     22 CL   UNL     1       8.321   5.563  12.805  0.00  0.00    +0.000 Cl
ENDBRANCH  13  19
ENDBRANCH   1  13
TORSDOF 4
ENDMDL
MODEL 5
REMARK VINA RESULT:      -6.9      1.425      1.925
REMARK  Name = 
REMARK  6 active torsions:
REMARK  status: ('A' for Active; 'I' for Inactive)
REMARK    1  A    between atoms: C_1  and  C_2
REMARK    2  A    between atoms: C_5  and  N_6
REMARK    3  A    between atoms: N_6  and  C_7
REMARK    4  A    between atoms: C_7  and  N_9
REMARK    5  A    between atoms: N_12  and  S_13
REMARK    6  A    between atoms: S_13  and  C_14
REMARK                            x       y       z     vdW  Elec       q    Type
REMARK                         _______ _______ _______ _____ _____    ______ ____
ROOT
ATOM      1  C   UNL     1       2.749   5.658  19.586  0.00  0.00    +0.000 C 
ATOM      2  S   UNL     1       1.757   4.322  19.330  0.00  0.00    +0.000 S 
ENDROOT
BRANCH   1   3
ATOM      3  N   UNL     1       3.947   5.904  18.847  0.00  0.00    +0.000 N 
ATOM      4  C   UNL     1       3.868   6.075  17.378  0.00  0.00    +0.000 C 
ATOM      5  C   UNL     1       5.133   6.666  16.738  0.00  0.00    +0.000 C 
ATOM      6  N   UNL     1       6.378   5.966  17.163  0.00  0.00    +0.000 NA
ATOM      7  C   UNL     1       6.466   5.927  18.650  0.00  0.00    +0.000 C 
ATOM      8  C   UNL     1       5.224   5.301  19.298  0.00  0.00    +0.000 C 
BRANCH   6   9
ATOM      9  S   UNL     1       6.792   4.536  16.351  0.00  0.00    +0.000 S 
ATOM     10  C   UNL     1       6.997   5.097  14.672  0.00  0.00    +0.000 C 
ATOM     11  O   UNL     1       8.094   4.121  16.830  0.00  0.00    +0.000 OA
ATOM     12  O   UNL     1       5.659   3.644  16.408  0.00  0.00    +0.000 OA
ENDBRANCH   6   9
ENDBRANCH   1   3
BRANCH   1  13
ATOM     13  N   UNL     1       2.473   6.687  20.481  0.00  0.00    +0.000 N 
ATOM     14  H   UNL     1       2.983   6.603  21.350  0.00  0.00    +0.000 HD
BRANCH  13  19
ATOM     15  C   UNL     1      -0.698  11.476  20.110  0.00  0.00    +0.000 C 
ATOM     16  C   UNL     1       0.131  10.229  20.219  0.00  0.00    +0.000 A 
ATOM     17  C   UNL     1       0.823   9.766  19.099  0.00  0.00    +0.000 A 
ATOM     18  C   UNL     1       1.599   8.603  19.156  0.00  0.00    +0.000 A 
ATOM     19  C   UNL     1       1.736   7.890  20.344  0.00  0.00    +0.000 A 
ATOM     20  C   UNL     1       1.029   8.338  21.468  0.00  0.00    +0.000 A 
ATOM     21  C   UNL     1       0.232   9.491  21.406  0.00  0.00    +0.000 A 
ATOM     22 CL   UNL     1      -0.628   9.959  22.831  0.00  0.00    +0.000 Cl
ENDBRANCH  13  19
ENDBRANCH   1  13
TORSDOF 4
ENDMDL
MODEL 6
REMARK VINA RESULT:      -6.9      1.171      1.577
REMARK  Name = 
REMARK  6 active torsions:
REMARK  status: ('A' for Active; 'I' for Inactive)
REMARK    1  A    between atoms: C_1  and  C_2
REMARK    2  A    between atoms: C_5  and  N_6
REMARK    3  A    between atoms: N_6  and  C_7
REMARK    4  A    between atoms: C_7  and  N_9
REMARK    5  A    between atoms: N_12  and  S_13
REMARK    6  A    between atoms: S_13  and  C_14
REMARK                            x       y       z     vdW  Elec       q    Type
REMARK                         _______ _______ _______ _____ _____    ______ ____
ROOT
ATOM      1  C   UNL     1       2.430   4.772  19.940  0.00  0.00    +0.000 C 
ATOM      2  S   UNL     1       1.097   3.748  20.036  0.00  0.00    +0.000 S 
ENDROOT
BRANCH   1   3
ATOM      3  N   UNL     1       3.567   4.510  19.115  0.00  0.00    +0.000 N 
ATOM      4  C   UNL     1       4.836   5.226  19.384  0.00  0.00    +0.000 C 
ATOM      5  C   UNL     1       6.064   4.632  18.679  0.00  0.00    +0.000 C 
ATOM      6  N   UNL     1       5.840   4.398  17.225  0.00  0.00    +0.000 NA
ATOM      7  C   UNL     1       4.617   3.571  17.017  0.00  0.00    +0.000 C 
ATOM      8  C   UNL     1       3.375   4.179  17.683  0.00  0.00    +0.000 C 
BRANCH   6   9
ATOM      9  S   UNL     1       6.038   5.716  16.177  0.00  0.00    +0.000 S 
ATOM     10  C   UNL     1       5.987   4.940  14.574  0.00  0.00    +0.000 C 
ATOM     11  O   UNL     1       4.858   6.548  16.292  0.00  0.00    +0.000 OA
ATOM     12  O   UNL     1       7.357   6.262  16.388  0.00  0.00    +0.000 OA
ENDBRANCH   6   9
ENDBRANCH   1   3
BRANCH   1  13
ATOM     13  N   UNL     1       2.532   5.999  20.588  0.00  0.00    +0.000 N 
ATOM     14  H   UNL     1       3.337   6.059  21.196  0.00  0.00    +0.000 HD
BRANCH  13  19
ATOM     15  C   UNL     1      -0.177  11.023  19.853  0.00  0.00    +0.000 C 
ATOM     16  C   UNL     1       0.531   9.711  20.032  0.00  0.00    +0.000 A 
ATOM     17  C   UNL     1       0.293   8.957  21.182  0.00  0.00    +0.000 A 
ATOM     18  C   UNL     1       0.940   7.733  21.392  0.00  0.00    +0.000 A 
ATOM     19  C   UNL     1       1.812   7.210  20.441  0.00  0.00    +0.000 A 
ATOM     20  C   UNL     1       2.070   7.972  19.292  0.00  0.00    +0.000 A 
ATOM     21  C   UNL     1       1.441   9.210  19.092  0.00  0.00    +0.000 A 
ATOM     22 CL   UNL     1       1.836  10.097  17.661  0.00  0.00    +0.000 Cl
ENDBRANCH  13  19
ENDBRANCH   1  13
TORSDOF 4
ENDMDL
MODEL 7
REMARK VINA RESULT:      -6.8      1.465      1.887
REMARK  Name = 
REMARK  6 active torsions:
REMARK  status: ('A' for Active; 'I' for Inactive)
REMARK    1  A    between atoms: C_1  and  C_2
REMARK    2  A    between atoms: C_5  and  N_6
REMARK    3  A    between atoms: N_6  and  C_7
REMARK    4  A    between atoms: C_7  and  N_9
REMARK    5  A    between atoms: N_12  and  S_13
REMARK    6  A    between atoms: S_13  and  C_14
REMARK                            x       y       z     vdW  Elec       q    Type
REMARK                         _______ _______ _______ _____ _____    ______ ____
ROOT
ATOM      1  C   UNL     1       2.382   4.876  20.047  0.00  0.00    +0.000 C 
ATOM      2  S   UNL     1       1.107   3.806  20.306  0.00  0.00    +0.000 S 
ENDROOT
BRANCH   1   3
ATOM      3  N   UNL     1       3.445   4.627  19.124  0.00  0.00    +0.000 N 
ATOM      4  C   UNL     1       4.800   5.145  19.426  0.00  0.00    +0.000 C 
ATOM      5  C   UNL     1       5.917   4.541  18.563  0.00  0.00    +0.000 C 
ATOM      6  N   UNL     1       5.607   4.575  17.106  0.00  0.00    +0.000 NA
ATOM      7  C   UNL     1       4.287   3.934  16.845  0.00  0.00    +0.000 C 
ATOM      8  C   UNL     1       3.155   4.559  17.672  0.00  0.00    +0.000 C 
BRANCH   6   9
ATOM      9  S   UNL     1       5.917   6.017  16.270  0.00  0.00    +0.000 S 
ATOM     10  C   UNL     1       7.275   6.708  17.195  0.00  0.00    +0.000 C 
ATOM     11  O   UNL     1       6.423   5.664  14.960  0.00  0.00    +0.000 OA
ATOM     12  O   UNL     1       4.768   6.878  16.417  0.00  0.00    +0.000 OA
ENDBRANCH   6   9
ENDBRANCH   1   3
BRANCH   1  13
ATOM     13  N   UNL     1       2.495   6.128  20.642  0.00  0.00    +0.000 N 
ATOM     14  H   UNL     1       3.321   6.219  21.217  0.00  0.00    +0.000 HD
BRANCH  13  19
ATOM     15  C   UNL     1      -0.280  11.104  19.831  0.00  0.00    +0.000 C 
ATOM     16  C   UNL     1       0.446   9.805  20.030  0.00  0.00    +0.000 A 
ATOM     17  C   UNL     1       0.186   9.044  21.170  0.00  0.00    +0.000 A 
ATOM     18  C   UNL     1       0.847   7.831  21.398  0.00  0.00    +0.000 A 
ATOM     19  C   UNL     1       1.759   7.327  20.475  0.00  0.00    +0.000 A 
ATOM     20  C   UNL     1       2.039   8.095  19.336  0.00  0.00    +0.000 A 
ATOM     21  C   UNL     1       1.394   9.322  19.118  0.00  0.00    +0.000 A 
ATOM     22 CL   UNL     1       1.818  10.219  17.702  0.00  0.00    +0.000 Cl
ENDBRANCH  13  19
ENDBRANCH   1  13
TORSDOF 4
ENDMDL
MODEL 8
REMARK VINA RESULT:      -6.8      4.123      7.159
REMARK  Name = 
REMARK  6 active torsions:
REMARK  status: ('A' for Active; 'I' for Inactive)
REMARK    1  A    between atoms: C_1  and  C_2
REMARK    2  A    between atoms: C_5  and  N_6
REMARK    3  A    between atoms: N_6  and  C_7
REMARK    4  A    between atoms: C_7  and  N_9
REMARK    5  A    between atoms: N_12  and  S_13
REMARK    6  A    between atoms: S_13  and  C_14
REMARK                            x       y       z     vdW  Elec       q    Type
REMARK                         _______ _______ _______ _____ _____    ______ ____
ROOT
ATOM      1  C   UNL     1       6.842   6.397  17.586  0.00  0.00    +0.000 C 
ATOM      2  S   UNL     1       7.663   7.861  17.719  0.00  0.00    +0.000 S 
ENDROOT
BRANCH   1   3
ATOM      3  N   UNL     1       5.542   6.170  18.134  0.00  0.00    +0.000 N 
ATOM      4  C   UNL     1       5.337   5.035  19.063  0.00  0.00    +0.000 C 
ATOM      5  C   UNL     1       4.017   5.085  19.847  0.00  0.00    +0.000 C 
ATOM      6  N   UNL     1       2.834   5.327  18.974  0.00  0.00    +0.000 NA
ATOM      7  C   UNL     1       3.043   6.548  18.147  0.00  0.00    +0.000 C 
ATOM      8  C   UNL     1       4.340   6.490  17.327  0.00  0.00    +0.000 C 
BRANCH   6   9
ATOM      9  S   UNL     1       2.160   3.990  18.177  0.00  0.00    +0.000 S 
ATOM     10  C   UNL     1       1.235   3.198  19.478  0.00  0.00    +0.000 C 
ATOM     11  O   UNL     1       1.203   4.492  17.212  0.00  0.00    +0.000 OA
ATOM     12  O   UNL     1       3.236   3.118  17.774  0.00  0.00    +0.000 OA
ENDBRANCH   6   9
ENDBRANCH   1   3
BRANCH   1  13
ATOM     13  N   UNL     1       7.305   5.293  16.878  0.00  0.00    +0.000 N 
ATOM     14  H   UNL     1       8.009   4.769  17.378  0.00  0.00    +0.000 HD
BRANCH  13  19
ATOM     15  C   UNL     1       5.592   3.099  11.840  0.00  0.00    +0.000 C 
ATOM     16  C   UNL     1       6.050   3.674  13.149  0.00  0.00    +0.000 A 
ATOM     17  C   UNL     1       5.483   3.210  14.337  0.00  0.00    +0.000 A 
ATOM     18  C   UNL     1       5.876   3.726  15.578  0.00  0.00    +0.000 A 
ATOM     19  C   UNL     1       6.873   4.694  15.669  0.00  0.00    +0.000 A 
ATOM     20  C   UNL     1       7.433   5.179  14.479  0.00  0.00    +0.000 A 
ATOM     21  C   UNL     1       7.024   4.679  13.233  0.00  0.00    +0.000 A 
ATOM     22 CL   UNL     1       7.746   5.351  11.814  0.00  0.00    +0.000 Cl
ENDBRANCH  13  19
ENDBRANCH   1  13
TORSDOF 4
ENDMDL
MODEL 9
REMARK VINA RESULT:      -6.8      1.792      2.296
REMARK  Name = 
REMARK  6 active torsions:
REMARK  status: ('A' for Active; 'I' for Inactive)
REMARK    1  A    between atoms: C_1  and  C_2
REMARK    2  A    between atoms: C_5  and  N_6
REMARK    3  A    between atoms: N_6  and  C_7
REMARK    4  A    between atoms: C_7  and  N_9
REMARK    5  A    between atoms: N_12  and  S_13
REMARK    6  A    between atoms: S_13  and  C_14
REMARK                            x       y       z     vdW  Elec       q    Type
REMARK                         _______ _______ _______ _____ _____    ______ ____
ROOT
ATOM      1  C   UNL     1       2.324   5.317  19.780  0.00  0.00    +0.000 C 
ATOM      2  S   UNL     1       1.169   4.160  20.183  0.00  0.00    +0.000 S 
ENDROOT
BRANCH   1   3
ATOM      3  N   UNL     1       3.237   5.173  18.690  0.00  0.00    +0.000 N 
ATOM      4  C   UNL     1       3.957   3.890  18.514  0.00  0.00    +0.000 C 
ATOM      5  C   UNL     1       4.633   3.723  17.145  0.00  0.00    +0.000 C 
ATOM      6  N   UNL     1       5.465   4.900  16.764  0.00  0.00    +0.000 NA
ATOM      7  C   UNL     1       4.659   6.150  16.843  0.00  0.00    +0.000 C 
ATOM      8  C   UNL     1       4.011   6.347  18.221  0.00  0.00    +0.000 C 
BRANCH   6   9
ATOM      9  S   UNL     1       7.040   4.984  17.388  0.00  0.00    +0.000 S 
ATOM     10  C   UNL     1       7.355   6.738  17.389  0.00  0.00    +0.000 C 
ATOM     11  O   UNL     1       6.987   4.554  18.769  0.00  0.00    +0.000 OA
ATOM     12  O   UNL     1       7.931   4.352  16.445  0.00  0.00    +0.000 OA
ENDBRANCH   6   9
ENDBRANCH   1   3
BRANCH   1  13
ATOM     13  N   UNL     1       2.463   6.549  20.412  0.00  0.00    +0.000 N 
ATOM     14  H   UNL     1       3.397   6.710  20.763  0.00  0.00    +0.000 HD
BRANCH  13  19
ATOM     15  C   UNL     1      -0.883  11.221  20.729  0.00  0.00    +0.000 C 
ATOM     16  C   UNL     1      -0.010  10.003  20.633  0.00  0.00    +0.000 A 
ATOM     17  C   UNL     1      -0.083   9.028  21.630  0.00  0.00    +0.000 A 
ATOM     18  C   UNL     1       0.720   7.883  21.583  0.00  0.00    +0.000 A 
ATOM     19  C   UNL     1       1.592   7.661  20.520  0.00  0.00    +0.000 A 
ATOM     20  C   UNL     1       1.685   8.645  19.526  0.00  0.00    +0.000 A 
ATOM     21  C   UNL     1       0.897   9.805  19.583  0.00  0.00    +0.000 A 
ATOM     22 CL   UNL     1       1.093  10.980  18.331  0.00  0.00    +0.000 Cl
ENDBRANCH  13  19
ENDBRANCH   1  13
TORSDOF 4
ENDMDL
