MODEL 1
REMARK VINA RESULT:      -8.1      0.000      0.000
REMARK  Name = 
REMARK  6 active torsions:
REMARK  status: ('A' for Active; 'I' for Inactive)
REMARK    1  A    between atoms: C_1  and  C_2
REMARK    2  A    between atoms: C_2  and  C_3
REMARK    3  A    between atoms: C_7  and  C_8
REMARK    4  A    between atoms: C_8  and  S_9
REMARK    5  A    between atoms: S_9  and  N_12
REMARK    6  A    between atoms: C_26  and  N_27
REMARK                            x       y       z     vdW  Elec       q    Type
REMARK                         _______ _______ _______ _____ _____    ______ ____
ROOT
ATOM      1  C   UNL     1       4.561   5.993  19.367  0.00  0.00    +0.000 C 
ENDROOT
BRANCH   1   8
ATOM      2  C   UNL     1       7.851   5.799  18.557  0.00  0.00    +0.000 C 
ATOM      3  C   UNL     1       6.635   6.193  17.704  0.00  0.00    +0.000 C 
ATOM      4  C   UNL     1       6.670   7.737  17.599  0.00  0.00    +0.000 C 
ATOM      5  C   UNL     1       6.674   5.479  16.332  0.00  0.00    +0.000 C 
ATOM      6  C   UNL     1       5.373   5.930  15.641  0.00  0.00    +0.000 C 
ATOM      7  C   UNL     1       4.392   6.053  16.815  0.00  0.00    +0.000 C 
ATOM      8  C   UNL     1       5.231   5.559  18.056  0.00  0.00    +0.000 C 
ATOM      9  C   UNL     1       5.445   4.014  17.853  0.00  0.00    +0.000 C 
ATOM     10  C   UNL     1       6.508   3.990  16.714  0.00  0.00    +0.000 C 
BRANCH   9  11
ATOM     11  N   UNL     1       4.276   3.242  17.436  0.00  0.00    +0.000 N 
ATOM     12  C   UNL     1       3.601   2.345  18.186  0.00  0.00    +0.000 C 
ATOM     13  N   UNL     1       2.562   1.779  17.522  0.00  0.00    +0.000 N 
ATOM     14  O   UNL     1       3.808   2.069  19.369  0.00  0.00    +0.000 OA
ATOM     15  H   UNL     1       3.842   3.469  16.552  0.00  0.00    +0.000 HD
ATOM     16  H   UNL     1       2.743   1.527  16.560  0.00  0.00    +0.000 HD
ATOM     17  H   UNL     1       2.108   1.054  18.055  0.00  0.00    +0.000 HD
ENDBRANCH   9  11
ENDBRANCH   1   8
BRANCH   1  18
ATOM     18  S   UNL     1       2.778   5.667  19.592  0.00  0.00    +0.000 S 
ATOM     19  O   UNL     1       2.145   5.343  18.331  0.00  0.00    +0.000 OA
ATOM     20  O   UNL     1       2.577   4.827  20.744  0.00  0.00    +0.000 OA
BRANCH  18  21
ATOM     21  N   UNL     1       2.165   7.155  20.115  0.00  0.00    +0.000 NA
ATOM     22  C   UNL     1       2.162   8.305  19.123  0.00  0.00    +0.000 C 
ATOM     23  C   UNL     1       0.904   9.222  19.113  0.00  0.00    +0.000 C 
ATOM     24  C   UNL     1       0.293   9.322  20.517  0.00  0.00    +0.000 C 
ATOM     25  C   UNL     1       1.323   9.782  21.595  0.00  0.00    +0.000 C 
ATOM     26  C   UNL     1       0.525   9.656  22.901  0.00  0.00    +0.000 C 
ATOM     27  C   UNL     1      -0.693  10.402  22.419  0.00  0.00    +0.000 A 
ATOM     28  C   UNL     1      -1.234  11.394  23.222  0.00  0.00    +0.000 A 
ATOM     29  C   UNL     1      -1.547  12.578  22.588  0.00  0.00    +0.000 A 
ATOM     30  C   UNL     1      -1.466  12.668  21.188  0.00  0.00    +0.000 A 
ATOM     31  C   UNL     1      -1.119  11.558  20.374  0.00  0.00    +0.000 A 
ATOM     32  C   UNL     1      -0.722  10.379  20.991  0.00  0.00    +0.000 A 
ATOM     33  C   UNL     1      -0.141   7.852  20.769  0.00  0.00    +0.000 C 
ATOM     34  C   UNL     1       1.084   7.051  21.120  0.00  0.00    +0.000 C 
ENDBRANCH  18  21
ENDBRANCH   1  18
TORSDOF 4
ENDMDL
MODEL 2
REMARK VINA RESULT:      -7.8      2.406      3.724
REMARK  Name = 
REMARK  6 active torsions:
REMARK  status: ('A' for Active; 'I' for Inactive)
REMARK    1  A    between atoms: C_1  and  C_2
REMARK    2  A    between atoms: C_2  and  C_3
REMARK    3  A    between atoms: C_7  and  C_8
REMARK    4  A    between atoms: C_8  and  S_9
REMARK    5  A    between atoms: S_9  and  N_12
REMARK    6  A    between atoms: C_26  and  N_27
REMARK                            x       y       z     vdW  Elec       q    Type
REMARK                         _______ _______ _______ _____ _____    ______ ____
ROOT
ATOM      1  C   UNL     1       2.527   6.877  19.371  0.00  0.00    +0.000 C 
ENDROOT
BRANCH   1   8
ATOM      2  C   UNL     1       1.097   4.363  17.596  0.00  0.00    +0.000 C 
ATOM      3  C   UNL     1       2.170   4.323  18.695  0.00  0.00    +0.000 C 
ATOM      4  C   UNL     1       1.444   3.866  19.983  0.00  0.00    +0.000 C 
ATOM      5  C   UNL     1       3.341   3.399  18.285  0.00  0.00    +0.000 C 
ATOM      6  C   UNL     1       4.338   3.521  19.453  0.00  0.00    +0.000 C 
ATOM      7  C   UNL     1       4.162   4.981  19.896  0.00  0.00    +0.000 C 
ATOM      8  C   UNL     1       3.133   5.566  18.853  0.00  0.00    +0.000 C 
ATOM      9  C   UNL     1       3.896   5.637  17.479  0.00  0.00    +0.000 C 
ATOM     10  C   UNL     1       3.952   4.135  17.071  0.00  0.00    +0.000 C 
BRANCH   9  11
ATOM     11  N   UNL     1       5.255   6.177  17.513  0.00  0.00    +0.000 N 
ATOM     12  C   UNL     1       5.955   6.647  16.460  0.00  0.00    +0.000 C 
ATOM     13  N   UNL     1       7.196   7.074  16.801  0.00  0.00    +0.000 N 
ATOM     14  O   UNL     1       5.553   6.767  15.301  0.00  0.00    +0.000 OA
ATOM     15  H   UNL     1       5.685   6.334  18.414  0.00  0.00    +0.000 HD
ATOM     16  H   UNL     1       7.696   6.489  17.458  0.00  0.00    +0.000 HD
ATOM     17  H   UNL     1       7.746   7.351  16.003  0.00  0.00    +0.000 HD
ENDBRANCH   9  11
ENDBRANCH   1   8
BRANCH   1  18
ATOM     18  S   UNL     1       2.215   8.230  18.183  0.00  0.00    +0.000 S 
ATOM     19  O   UNL     1       3.453   8.733  17.630  0.00  0.00    +0.000 OA
ATOM     20  O   UNL     1       1.121   7.874  17.316  0.00  0.00    +0.000 OA
BRANCH  18  21
ATOM     21  N   UNL     1       1.538   9.450  19.141  0.00  0.00    +0.000 NA
ATOM     22  C   UNL     1       1.621  10.877  18.629  0.00  0.00    +0.000 C 
ATOM     23  C   UNL     1       0.360  11.769  18.826  0.00  0.00    +0.000 C 
ATOM     24  C   UNL     1      -0.387  11.379  20.108  0.00  0.00    +0.000 C 
ATOM     25  C   UNL     1       0.526  11.399  21.373  0.00  0.00    +0.000 C 
ATOM     26  C   UNL     1      -0.396  10.837  22.465  0.00  0.00    +0.000 C 
ATOM     27  C   UNL     1      -1.568  11.736  22.165  0.00  0.00    +0.000 A 
ATOM     28  C   UNL     1      -2.196  12.391  23.214  0.00  0.00    +0.000 A 
ATOM     29  C   UNL     1      -2.457  13.731  23.016  0.00  0.00    +0.000 A 
ATOM     30  C   UNL     1      -2.239  14.311  21.755  0.00  0.00    +0.000 A 
ATOM     31  C   UNL     1      -1.802  13.555  20.636  0.00  0.00    +0.000 A 
ATOM     32  C   UNL     1      -1.455  12.223  20.828  0.00  0.00    +0.000 A 
ATOM     33  C   UNL     1      -0.829   9.927  19.777  0.00  0.00    +0.000 C 
ATOM     34  C   UNL     1       0.364   9.023  19.935  0.00  0.00    +0.000 C 
ENDBRANCH  18  21
ENDBRANCH   1  18
TORSDOF 4
ENDMDL
MODEL 3
REMARK VINA RESULT:      -7.8      1.962      3.797
REMARK  Name = 
REMARK  6 active torsions:
REMARK  status: ('A' for Active; 'I' for Inactive)
REMARK    1  A    between atoms: C_1  and  C_2
REMARK    2  A    between atoms: C_2  and  C_3
REMARK    3  A    between atoms: C_7  and  C_8
REMARK    4  A    between atoms: C_8  and  S_9
REMARK    5  A    between atoms: S_9  and  N_12
REMARK    6  A    between atoms: C_26  and  N_27
REMARK                            x       y       z     vdW  Elec       q    Type
REMARK                         _______ _______ _______ _____ _____    ______ ____
ROOT
ATOM      1  C   UNL     1       3.254   5.571  19.638  0.00  0.00    +0.000 C 
ENDROOT
BRANCH   1   8
ATOM      2  C   UNL     1       1.043   3.232  18.565  0.00  0.00    +0.000 C 
ATOM      3  C   UNL     1       2.266   3.100  19.485  0.00  0.00    +0.000 C 
ATOM      4  C   UNL     1       1.708   3.009  20.926  0.00  0.00    +0.000 C 
ATOM      5  C   UNL     1       3.128   1.882  19.079  0.00  0.00    +0.000 C 
ATOM      6  C   UNL     1       4.325   1.933  20.049  0.00  0.00    +0.000 C 
ATOM      7  C   UNL     1       4.534   3.441  20.247  0.00  0.00    +0.000 C 
ATOM      8  C   UNL     1       3.475   4.096  19.278  0.00  0.00    +0.000 C 
ATOM      9  C   UNL     1       3.974   3.795  17.816  0.00  0.00    +0.000 C 
ATOM     10  C   UNL     1       3.646   2.278  17.677  0.00  0.00    +0.000 C 
BRANCH   9  11
ATOM     11  N   UNL     1       5.397   4.005  17.556  0.00  0.00    +0.000 N 
ATOM     12  C   UNL     1       5.928   4.722  16.542  0.00  0.00    +0.000 C 
ATOM     13  N   UNL     1       7.284   4.727  16.555  0.00  0.00    +0.000 N 
ATOM     14  O   UNL     1       5.310   5.377  15.701  0.00  0.00    +0.000 OA
ATOM     15  H   UNL     1       6.062   3.696  18.252  0.00  0.00    +0.000 HD
ATOM     16  H   UNL     1       7.724   3.843  16.769  0.00  0.00    +0.000 HD
ATOM     17  H   UNL     1       7.678   5.196  15.755  0.00  0.00    +0.000 HD
ENDBRANCH   9  11
ENDBRANCH   1   8
BRANCH   1  18
ATOM     18  S   UNL     1       2.877   6.755  18.299  0.00  0.00    +0.000 S 
ATOM     19  O   UNL     1       4.041   7.546  17.961  0.00  0.00    +0.000 OA
ATOM     20  O   UNL     1       2.119   6.098  17.266  0.00  0.00    +0.000 OA
BRANCH  18  21
ATOM     21  N   UNL     1       1.730   7.787  18.993  0.00  0.00    +0.000 NA
ATOM     22  C   UNL     1       1.580   7.761  20.505  0.00  0.00    +0.000 C 
ATOM     23  C   UNL     1       1.388   9.133  21.215  0.00  0.00    +0.000 C 
ATOM     24  C   UNL     1       0.625  10.111  20.313  0.00  0.00    +0.000 C 
ATOM     25  C   UNL     1      -0.735   9.537  19.808  0.00  0.00    +0.000 C 
ATOM     26  C   UNL     1      -1.215  10.618  18.827  0.00  0.00    +0.000 C 
ATOM     27  C   UNL     1      -1.000  11.785  19.755  0.00  0.00    +0.000 A 
ATOM     28  C   UNL     1      -2.012  12.723  19.900  0.00  0.00    +0.000 A 
ATOM     29  C   UNL     1      -2.309  13.092  21.194  0.00  0.00    +0.000 A 
ATOM     30  C   UNL     1      -1.499  12.652  22.255  0.00  0.00    +0.000 A 
ATOM     31  C   UNL     1      -0.333  11.869  22.046  0.00  0.00    +0.000 A 
ATOM     32  C   UNL     1      -0.057  11.417  20.762  0.00  0.00    +0.000 A 
ATOM     33  C   UNL     1       1.620  10.277  19.131  0.00  0.00    +0.000 C 
ATOM     34  C   UNL     1       1.524   9.055  18.258  0.00  0.00    +0.000 C 
ENDBRANCH  18  21
ENDBRANCH   1  18
TORSDOF 4
ENDMDL
MODEL 4
REMARK VINA RESULT:      -7.8      1.934      3.411
REMARK  Name = 
REMARK  6 active torsions:
REMARK  status: ('A' for Active; 'I' for Inactive)
REMARK    1  A    between atoms: C_1  and  C_2
REMARK    2  A    between atoms: C_2  and  C_3
REMARK    3  A    between atoms: C_7  and  C_8
REMARK    4  A    between atoms: C_8  and  S_9
REMARK    5  A    between atoms: S_9  and  N_12
REMARK    6  A    between atoms: C_26  and  N_27
REMARK                            x       y       z     vdW  Elec       q    Type
REMARK                         _______ _______ _______ _____ _____    ______ ____
ROOT
ATOM      1  C   UNL     1       3.183   5.548  19.658  0.00  0.00    +0.000 C 
ENDROOT
BRANCH   1   8
ATOM      2  C   UNL     1       1.066   3.133  18.560  0.00  0.00    +0.000 C 
ATOM      3  C   UNL     1       2.283   3.044  19.495  0.00  0.00    +0.000 C 
ATOM      4  C   UNL     1       1.712   2.933  20.929  0.00  0.00    +0.000 C 
ATOM      5  C   UNL     1       3.192   1.856  19.098  0.00  0.00    +0.000 C 
ATOM      6  C   UNL     1       4.375   1.950  20.081  0.00  0.00    +0.000 C 
ATOM      7  C   UNL     1       4.529   3.464  20.282  0.00  0.00    +0.000 C 
ATOM      8  C   UNL     1       3.459   4.081  19.301  0.00  0.00    +0.000 C 
ATOM      9  C   UNL     1       3.984   3.798  17.845  0.00  0.00    +0.000 C 
ATOM     10  C   UNL     1       3.711   2.271  17.703  0.00  0.00    +0.000 C 
BRANCH   9  11
ATOM     11  N   UNL     1       5.402   4.058  17.600  0.00  0.00    +0.000 N 
ATOM     12  C   UNL     1       5.956   4.434  16.428  0.00  0.00    +0.000 C 
ATOM     13  N   UNL     1       7.301   4.590  16.507  0.00  0.00    +0.000 N 
ATOM     14  O   UNL     1       5.360   4.688  15.380  0.00  0.00    +0.000 OA
ATOM     15  H   UNL     1       6.029   4.081  18.393  0.00  0.00    +0.000 HD
ATOM     16  H   UNL     1       7.793   3.886  17.041  0.00  0.00    +0.000 HD
ATOM     17  H   UNL     1       7.722   4.794  15.615  0.00  0.00    +0.000 HD
ENDBRANCH   9  11
ENDBRANCH   1   8
BRANCH   1  18
ATOM     18  S   UNL     1       2.942   6.751  18.304  0.00  0.00    +0.000 S 
ATOM     19  O   UNL     1       4.211   7.182  17.759  0.00  0.00    +0.000 OA
ATOM     20  O   UNL     1       1.891   6.298  17.431  0.00  0.00    +0.000 OA
BRANCH  18  21
ATOM     21  N   UNL     1       2.228   8.077  19.075  0.00  0.00    +0.000 NA
ATOM     22  C   UNL     1       1.878   9.285  18.223  0.00  0.00    +0.000 C 
ATOM     23  C   UNL     1       0.521   9.986  18.523  0.00  0.00    +0.000 C 
ATOM     24  C   UNL     1       0.170   9.880  20.012  0.00  0.00    +0.000 C 
ATOM     25  C   UNL     1       1.303  10.414  20.942  0.00  0.00    +0.000 C 
ATOM     26  C   UNL     1       0.784  10.062  22.345  0.00  0.00    +0.000 C 
ATOM     27  C   UNL     1      -0.596  10.638  22.156  0.00  0.00    +0.000 A 
ATOM     28  C   UNL     1      -1.118  11.467  23.138  0.00  0.00    +0.000 A 
ATOM     29  C   UNL     1      -1.708  12.630  22.692  0.00  0.00    +0.000 A 
ATOM     30  C   UNL     1      -1.899  12.840  21.316  0.00  0.00    +0.000 A 
ATOM     31  C   UNL     1      -1.552  11.865  20.344  0.00  0.00    +0.000 A 
ATOM     32  C   UNL     1      -0.882  10.720  20.759  0.00  0.00    +0.000 A 
ATOM     33  C   UNL     1       0.005   8.344  20.180  0.00  0.00    +0.000 C 
ATOM     34  C   UNL     1       1.376   7.725  20.234  0.00  0.00    +0.000 C 
ENDBRANCH  18  21
ENDBRANCH   1  18
TORSDOF 4
ENDMDL
MODEL 5
REMARK VINA RESULT:      -7.7      2.220      4.082
REMARK  Name = 
REMARK  6 active torsions:
REMARK  status: ('A' for Active; 'I' for Inactive)
REMARK    1  A    between atoms: C_1  and  C_2
REMARK    2  A    between atoms: C_2  and  C_3
REMARK    3  A    between atoms: C_7  and  C_8
REMARK    4  A    between atoms: C_8  and  S_9
REMARK    5  A    between atoms: S_9  and  N_12
REMARK    6  A    between atoms: C_26  and  N_27
REMARK                            x       y       z     vdW  Elec       q    Type
REMARK                         _______ _______ _______ _____ _____    ______ ____
ROOT
ATOM      1  C   UNL     1       2.592   5.221  17.946  0.00  0.00    +0.000 C 
ENDROOT
BRANCH   1   8
ATOM      2  C   UNL     1       2.029   1.881  17.729  0.00  0.00    +0.000 C 
ATOM      3  C   UNL     1       2.016   2.818  18.947  0.00  0.00    +0.000 C 
ATOM      4  C   UNL     1       0.524   3.078  19.269  0.00  0.00    +0.000 C 
ATOM      5  C   UNL     1       2.803   2.196  20.125  0.00  0.00    +0.000 C 
ATOM      6  C   UNL     1       2.743   3.276  21.223  0.00  0.00    +0.000 C 
ATOM      7  C   UNL     1       2.774   4.581  20.416  0.00  0.00    +0.000 C 
ATOM      8  C   UNL     1       2.947   4.094  18.926  0.00  0.00    +0.000 C 
ATOM      9  C   UNL     1       4.403   3.506  18.823  0.00  0.00    +0.000 C 
ATOM     10  C   UNL     1       4.252   2.157  19.589  0.00  0.00    +0.000 C 
BRANCH   9  11
ATOM     11  N   UNL     1       5.470   4.292  19.439  0.00  0.00    +0.000 N 
ATOM     12  C   UNL     1       6.523   4.849  18.804  0.00  0.00    +0.000 C 
ATOM     13  N   UNL     1       7.354   5.513  19.645  0.00  0.00    +0.000 N 
ATOM     14  O   UNL     1       6.734   4.850  17.589  0.00  0.00    +0.000 OA
ATOM     15  H   UNL     1       5.370   4.558  20.409  0.00  0.00    +0.000 HD
ATOM     16  H   UNL     1       7.543   5.055  20.527  0.00  0.00    +0.000 HD
ATOM     17  H   UNL     1       8.179   5.860  19.182  0.00  0.00    +0.000 HD
ENDBRANCH   9  11
ENDBRANCH   1   8
BRANCH   1  18
ATOM     18  S   UNL     1       3.312   6.878  18.214  0.00  0.00    +0.000 S 
ATOM     19  O   UNL     1       4.286   6.855  19.285  0.00  0.00    +0.000 OA
ATOM     20  O   UNL     1       3.638   7.478  16.946  0.00  0.00    +0.000 OA
BRANCH  18  21
ATOM     21  N   UNL     1       1.994   7.805  18.728  0.00  0.00    +0.000 NA
ATOM     22  C   UNL     1       1.695   7.844  20.217  0.00  0.00    +0.000 C 
ATOM     23  C   UNL     1       1.282   9.221  20.815  0.00  0.00    +0.000 C 
ATOM     24  C   UNL     1       0.511  10.053  19.783  0.00  0.00    +0.000 C 
ATOM     25  C   UNL     1      -0.719   9.298  19.190  0.00  0.00    +0.000 C 
ATOM     26  C   UNL     1      -1.214  10.260  18.100  0.00  0.00    +0.000 C 
ATOM     27  C   UNL     1      -1.225  11.494  18.966  0.00  0.00    +0.000 A 
ATOM     28  C   UNL     1      -2.343  12.313  18.953  0.00  0.00    +0.000 A 
ATOM     29  C   UNL     1      -2.809  12.715  20.187  0.00  0.00    +0.000 A 
ATOM     30  C   UNL     1      -2.066  12.431  21.346  0.00  0.00    +0.000 A 
ATOM     31  C   UNL     1      -0.806  11.779  21.300  0.00  0.00    +0.000 A 
ATOM     32  C   UNL     1      -0.353  11.293  20.079  0.00  0.00    +0.000 A 
ATOM     33  C   UNL     1       1.595  10.270  18.691  0.00  0.00    +0.000 C 
ATOM     34  C   UNL     1       1.724   8.999  17.895  0.00  0.00    +0.000 C 
ENDBRANCH  18  21
ENDBRANCH   1  18
TORSDOF 4
ENDMDL
MODEL 6
REMARK VINA RESULT:      -7.7      1.173      1.988
REMARK  Name = 
REMARK  6 active torsions:
REMARK  status: ('A' for Active; 'I' for Inactive)
REMARK    1  A    between atoms: C_1  and  C_2
REMARK    2  A    between atoms: C_2  and  C_3
REMARK    3  A    between atoms: C_7  and  C_8
REMARK    4  A    between atoms: C_8  and  S_9
REMARK    5  A    between atoms: S_9  and  N_12
REMARK    6  A    between atoms: C_26  and  N_27
REMARK                            x       y       z     vdW  Elec       q    Type
REMARK                         _______ _______ _______ _____ _____    ______ ____
ROOT
ATOM      1  C   UNL     1       4.330   6.612  18.720  0.00  0.00    +0.000 C 
ENDROOT
BRANCH   1   8
ATOM      2  C   UNL     1       7.700   6.289  18.962  0.00  0.00    +0.000 C 
ATOM      3  C   UNL     1       6.790   6.358  17.725  0.00  0.00    +0.000 C 
ATOM      4  C   UNL     1       6.938   7.793  17.166  0.00  0.00    +0.000 C 
ATOM      5  C   UNL     1       7.167   5.256  16.707  0.00  0.00    +0.000 C 
ATOM      6  C   UNL     1       6.134   5.427  15.576  0.00  0.00    +0.000 C 
ATOM      7  C   UNL     1       4.875   5.874  16.332  0.00  0.00    +0.000 C 
ATOM      8  C   UNL     1       5.311   5.817  17.847  0.00  0.00    +0.000 C 
ATOM      9  C   UNL     1       5.487   4.293  18.196  0.00  0.00    +0.000 C 
ATOM     10  C   UNL     1       6.819   3.954  17.463  0.00  0.00    +0.000 C 
BRANCH   9  11
ATOM     11  N   UNL     1       4.436   3.390  17.726  0.00  0.00    +0.000 N 
ATOM     12  C   UNL     1       3.845   2.410  18.442  0.00  0.00    +0.000 C 
ATOM     13  N   UNL     1       2.910   1.731  17.732  0.00  0.00    +0.000 N 
ATOM     14  O   UNL     1       4.037   2.147  19.631  0.00  0.00    +0.000 OA
ATOM     15  H   UNL     1       4.013   3.574  16.827  0.00  0.00    +0.000 HD
ATOM     16  H   UNL     1       3.158   1.513  16.777  0.00  0.00    +0.000 HD
ATOM     17  H   UNL     1       2.527   0.950  18.242  0.00  0.00    +0.000 HD
ENDBRANCH   9  11
ENDBRANCH   1   8
BRANCH   1  18
ATOM     18  S   UNL     1       2.681   5.902  19.059  0.00  0.00    +0.000 S 
ATOM     19  O   UNL     1       2.149   5.240  17.887  0.00  0.00    +0.000 OA
ATOM     20  O   UNL     1       2.692   5.230  20.333  0.00  0.00    +0.000 OA
BRANCH  18  21
ATOM     21  N   UNL     1       1.721   7.260  19.372  0.00  0.00    +0.000 NA
ATOM     22  C   UNL     1       1.497   7.647  20.823  0.00  0.00    +0.000 C 
ATOM     23  C   UNL     1       1.537   9.166  21.159  0.00  0.00    +0.000 C 
ATOM     24  C   UNL     1       1.021   9.999  19.979  0.00  0.00    +0.000 C 
ATOM     25  C   UNL     1      -0.399   9.560  19.501  0.00  0.00    +0.000 C 
ATOM     26  C   UNL     1      -0.616  10.420  18.248  0.00  0.00    +0.000 C 
ATOM     27  C   UNL     1      -0.225  11.731  18.882  0.00  0.00    +0.000 A 
ATOM     28  C   UNL     1      -1.044  12.835  18.699  0.00  0.00    +0.000 A 
ATOM     29  C   UNL     1      -1.327  13.568  19.832  0.00  0.00    +0.000 A 
ATOM     30  C   UNL     1      -0.668  13.280  21.039  0.00  0.00    +0.000 A 
ATOM     31  C   UNL     1       0.335  12.280  21.137  0.00  0.00    +0.000 A 
ATOM     32  C   UNL     1       0.580  11.473  20.032  0.00  0.00    +0.000 A 
ATOM     33  C   UNL     1       2.083   9.683  18.891  0.00  0.00    +0.000 C 
ATOM     34  C   UNL     1       1.798   8.313  18.335  0.00  0.00    +0.000 C 
ENDBRANCH  18  21
ENDBRANCH   1  18
TORSDOF 4
ENDMDL
MODEL 7
REMARK VINA RESULT:      -7.6      1.211      1.436
REMARK  Name = 
REMARK  6 active torsions:
REMARK  status: ('A' for Active; 'I' for Inactive)
REMARK    1  A    between atoms: C_1  and  C_2
REMARK    2  A    between atoms: C_2  and  C_3
REMARK    3  A    between atoms: C_7  and  C_8
REMARK    4  A    between atoms: C_8  and  S_9
REMARK    5  A    between atoms: S_9  and  N_12
REMARK    6  A    between atoms: C_26  and  N_27
REMARK                            x       y       z     vdW  Elec       q    Type
REMARK                         _______ _______ _______ _____ _____    ______ ____
ROOT
ATOM      1  C   UNL     1       4.483   6.182  19.283  0.00  0.00    +0.000 C 
ENDROOT
BRANCH   1   8
ATOM      2  C   UNL     1       7.823   6.020  18.709  0.00  0.00    +0.000 C 
ATOM      3  C   UNL     1       6.660   6.324  17.752  0.00  0.00    +0.000 C 
ATOM      4  C   UNL     1       6.669   7.857  17.542  0.00  0.00    +0.000 C 
ATOM      5  C   UNL     1       6.808   5.519  16.438  0.00  0.00    +0.000 C 
ATOM      6  C   UNL     1       5.548   5.889  15.632  0.00  0.00    +0.000 C 
ATOM      7  C   UNL     1       4.486   6.066  16.727  0.00  0.00    +0.000 C 
ATOM      8  C   UNL     1       5.250   5.679  18.053  0.00  0.00    +0.000 C 
ATOM      9  C   UNL     1       5.510   4.129  17.971  0.00  0.00    +0.000 C 
ATOM     10  C   UNL     1       6.648   4.056  16.909  0.00  0.00    +0.000 C 
BRANCH   9  11
ATOM     11  N   UNL     1       4.389   3.300  17.532  0.00  0.00    +0.000 N 
ATOM     12  C   UNL     1       3.584   2.559  18.323  0.00  0.00    +0.000 C 
ATOM     13  N   UNL     1       2.635   1.887  17.625  0.00  0.00    +0.000 N 
ATOM     14  O   UNL     1       3.610   2.502  19.554  0.00  0.00    +0.000 OA
ATOM     15  H   UNL     1       4.094   3.365  16.568  0.00  0.00    +0.000 HD
ATOM     16  H   UNL     1       2.944   1.463  16.761  0.00  0.00    +0.000 HD
ATOM     17  H   UNL     1       2.086   1.274  18.207  0.00  0.00    +0.000 HD
ENDBRANCH   9  11
ENDBRANCH   1   8
BRANCH   1  18
ATOM     18  S   UNL     1       2.657   6.131  19.261  0.00  0.00    +0.000 S 
ATOM     19  O   UNL     1       2.167   5.535  18.037  0.00  0.00    +0.000 OA
ATOM     20  O   UNL     1       2.166   5.680  20.537  0.00  0.00    +0.000 OA
BRANCH  18  21
ATOM     21  N   UNL     1       2.215   7.765  19.257  0.00  0.00    +0.000 NA
ATOM     22  C   UNL     1       1.962   8.425  17.913  0.00  0.00    +0.000 C 
ATOM     23  C   UNL     1       0.754   9.402  17.826  0.00  0.00    +0.000 C 
ATOM     24  C   UNL     1       0.531  10.115  19.166  0.00  0.00    +0.000 C 
ATOM     25  C   UNL     1       1.811  10.840  19.687  0.00  0.00    +0.000 C 
ATOM     26  C   UNL     1       1.380  11.329  21.078  0.00  0.00    +0.000 C 
ATOM     27  C   UNL     1       0.085  11.959  20.633  0.00  0.00    +0.000 A 
ATOM     28  C   UNL     1      -0.219  13.242  21.063  0.00  0.00    +0.000 A 
ATOM     29  C   UNL     1      -0.676  14.109  20.093  0.00  0.00    +0.000 A 
ATOM     30  C   UNL     1      -0.963  13.632  18.802  0.00  0.00    +0.000 A 
ATOM     31  C   UNL     1      -0.850  12.260  18.457  0.00  0.00    +0.000 A 
ATOM     32  C   UNL     1      -0.315  11.381  19.391  0.00  0.00    +0.000 A 
ATOM     33  C   UNL     1       0.166   8.922  20.091  0.00  0.00    +0.000 C 
ATOM     34  C   UNL     1       1.433   8.189  20.441  0.00  0.00    +0.000 C 
ENDBRANCH  18  21
ENDBRANCH   1  18
TORSDOF 4
ENDMDL
MODEL 8
REMARK VINA RESULT:      -7.6      2.301      3.687
REMARK  Name = 
REMARK  6 active torsions:
REMARK  status: ('A' for Active; 'I' for Inactive)
REMARK    1  A    between atoms: C_1  and  C_2
REMARK    2  A    between atoms: C_2  and  C_3
REMARK    3  A    between atoms: C_7  and  C_8
REMARK    4  A    between atoms: C_8  and  S_9
REMARK    5  A    between atoms: S_9  and  N_12
REMARK    6  A    between atoms: C_26  and  N_27
REMARK                            x       y       z     vdW  Elec       q    Type
REMARK                         _______ _______ _______ _____ _____    ______ ____
ROOT
ATOM      1  C   UNL     1       2.552   6.253  19.788  0.00  0.00    +0.000 C 
ENDROOT
BRANCH   1   8
ATOM      2  C   UNL     1       1.583   3.895  17.548  0.00  0.00    +0.000 C 
ATOM      3  C   UNL     1       1.966   3.765  19.030  0.00  0.00    +0.000 C 
ATOM      4  C   UNL     1       0.634   3.619  19.805  0.00  0.00    +0.000 C 
ATOM      5  C   UNL     1       2.938   2.580  19.243  0.00  0.00    +0.000 C 
ATOM      6  C   UNL     1       3.263   2.631  20.748  0.00  0.00    +0.000 C 
ATOM      7  C   UNL     1       3.247   4.137  21.046  0.00  0.00    +0.000 C 
ATOM      8  C   UNL     1       3.002   4.794  19.633  0.00  0.00    +0.000 C 
ATOM      9  C   UNL     1       4.316   4.548  18.802  0.00  0.00    +0.000 C 
ATOM     10  C   UNL     1       4.203   3.029  18.476  0.00  0.00    +0.000 C 
BRANCH   9  11
ATOM     11  N   UNL     1       5.581   4.800  19.491  0.00  0.00    +0.000 N 
ATOM     12  C   UNL     1       6.657   5.434  18.980  0.00  0.00    +0.000 C 
ATOM     13  N   UNL     1       7.690   5.507  19.856  0.00  0.00    +0.000 N 
ATOM     14  O   UNL     1       6.740   5.970  17.873  0.00  0.00    +0.000 OA
ATOM     15  H   UNL     1       5.637   4.595  20.479  0.00  0.00    +0.000 HD
ATOM     16  H   UNL     1       7.866   4.671  20.397  0.00  0.00    +0.000 HD
ATOM     17  H   UNL     1       8.518   5.910  19.448  0.00  0.00    +0.000 HD
ENDBRANCH   9  11
ENDBRANCH   1   8
BRANCH   1  18
ATOM     18  S   UNL     1       2.559   7.336  18.317  0.00  0.00    +0.000 S 
ATOM     19  O   UNL     1       3.911   7.671  17.925  0.00  0.00    +0.000 OA
ATOM     20  O   UNL     1       1.620   6.842  17.343  0.00  0.00    +0.000 OA
BRANCH  18  21
ATOM     21  N   UNL     1       1.808   8.751  18.862  0.00  0.00    +0.000 NA
ATOM     22  C   UNL     1       1.019   9.566  17.852  0.00  0.00    +0.000 C 
ATOM     23  C   UNL     1      -0.332  10.168  18.336  0.00  0.00    +0.000 C 
ATOM     24  C   UNL     1      -0.270  10.514  19.829  0.00  0.00    +0.000 C 
ATOM     25  C   UNL     1       0.928  11.448  20.186  0.00  0.00    +0.000 C 
ATOM     26  C   UNL     1       0.859  11.516  21.719  0.00  0.00    +0.000 C 
ATOM     27  C   UNL     1      -0.611  11.838  21.800  0.00  0.00    +0.000 A 
ATOM     28  C   UNL     1      -1.027  12.877  22.620  0.00  0.00    +0.000 A 
ATOM     29  C   UNL     1      -1.932  13.756  22.065  0.00  0.00    +0.000 A 
ATOM     30  C   UNL     1      -2.500  13.481  20.809  0.00  0.00    +0.000 A 
ATOM     31  C   UNL     1      -2.218  12.289  20.092  0.00  0.00    +0.000 A 
ATOM     32  C   UNL     1      -1.249  11.427  20.590  0.00  0.00    +0.000 A 
ATOM     33  C   UNL     1      -0.074   9.109  20.463  0.00  0.00    +0.000 C 
ATOM     34  C   UNL     1       1.363   8.702  20.273  0.00  0.00    +0.000 C 
ENDBRANCH  18  21
ENDBRANCH   1  18
TORSDOF 4
ENDMDL
MODEL 9
REMARK VINA RESULT:      -7.6      2.387      4.046
REMARK  Name = 
REMARK  6 active torsions:
REMARK  status: ('A' for Active; 'I' for Inactive)
REMARK    1  A    between atoms: C_1  and  C_2
REMARK    2  A    between atoms: C_2  and  C_3
REMARK    3  A    between atoms: C_7  and  C_8
REMARK    4  A    between atoms: C_8  and  S_9
REMARK    5  A    between atoms: S_9  and  N_12
REMARK    6  A    between atoms: C_26  and  N_27
REMARK                            x       y       z     vdW  Elec       q    Type
REMARK                         _______ _______ _______ _____ _____    ______ ____
ROOT
ATOM      1  C   UNL     1       2.480   6.869  19.432  0.00  0.00    +0.000 C 
ENDROOT
BRANCH   1   8
ATOM      2  C   UNL     1       1.163   4.334  17.601  0.00  0.00    +0.000 C 
ATOM      3  C   UNL     1       2.225   4.315  18.711  0.00  0.00    +0.000 C 
ATOM      4  C   UNL     1       1.503   3.810  19.984  0.00  0.00    +0.000 C 
ATOM      5  C   UNL     1       3.434   3.442  18.298  0.00  0.00    +0.000 C 
ATOM      6  C   UNL     1       4.414   3.582  19.479  0.00  0.00    +0.000 C 
ATOM      7  C   UNL     1       4.179   5.026  19.944  0.00  0.00    +0.000 C 
ATOM      8  C   UNL     1       3.140   5.590  18.900  0.00  0.00    +0.000 C 
ATOM      9  C   UNL     1       3.913   5.713  17.535  0.00  0.00    +0.000 C 
ATOM     10  C   UNL     1       4.029   4.220  17.103  0.00  0.00    +0.000 C 
BRANCH   9  11
ATOM     11  N   UNL     1       5.251   6.302  17.593  0.00  0.00    +0.000 N 
ATOM     12  C   UNL     1       6.010   6.666  16.539  0.00  0.00    +0.000 C 
ATOM     13  N   UNL     1       7.212   7.175  16.907  0.00  0.00    +0.000 N 
ATOM     14  O   UNL     1       5.688   6.629  15.350  0.00  0.00    +0.000 OA
ATOM     15  H   UNL     1       5.612   6.582  18.495  0.00  0.00    +0.000 HD
ATOM     16  H   UNL     1       7.680   6.693  17.663  0.00  0.00    +0.000 HD
ATOM     17  H   UNL     1       7.809   7.373  16.119  0.00  0.00    +0.000 HD
ENDBRANCH   9  11
ENDBRANCH   1   8
BRANCH   1  18
ATOM     18  S   UNL     1       2.114   8.222  18.260  0.00  0.00    +0.000 S 
ATOM     19  O   UNL     1       3.301   9.000  17.976  0.00  0.00    +0.000 OA
ATOM     20  O   UNL     1       1.293   7.727  17.186  0.00  0.00    +0.000 OA
BRANCH  18  21
ATOM     21  N   UNL     1       1.037   9.207  19.117  0.00  0.00    +0.000 NA
ATOM     22  C   UNL     1       0.811   8.897  20.586  0.00  0.00    +0.000 C 
ATOM     23  C   UNL     1       0.716  10.111  21.555  0.00  0.00    +0.000 C 
ATOM     24  C   UNL     1       0.095  11.323  20.848  0.00  0.00    +0.000 C 
ATOM     25  C   UNL     1      -1.287  11.005  20.198  0.00  0.00    +0.000 C 
ATOM     26  C   UNL     1      -1.614  12.302  19.444  0.00  0.00    +0.000 C 
ATOM     27  C   UNL     1      -1.334  13.233  20.595  0.00  0.00    +0.000 A 
ATOM     28  C   UNL     1      -2.258  14.222  20.898  0.00  0.00    +0.000 A 
ATOM     29  C   UNL     1      -2.582  14.355  22.232  0.00  0.00    +0.000 A 
ATOM     30  C   UNL     1      -1.870  13.631  23.204  0.00  0.00    +0.000 A 
ATOM     31  C   UNL     1      -0.776  12.790  22.874  0.00  0.00    +0.000 A 
ATOM     32  C   UNL     1      -0.481  12.576  21.533  0.00  0.00    +0.000 A 
ATOM     33  C   UNL     1       1.157  11.618  19.754  0.00  0.00    +0.000 C 
ATOM     34  C   UNL     1       0.989  10.611  18.648  0.00  0.00    +0.000 C 
ENDBRANCH  18  21
ENDBRANCH   1  18
TORSDOF 4
ENDMDL
