MODEL 1
REMARK VINA RESULT:      -6.2      0.000      0.000
REMARK  Name = 
REMARK  7 active torsions:
REMARK  status: ('A' for Active; 'I' for Inactive)
REMARK    1  A    between atoms: C_1  and  C_2
REMARK    2  A    between atoms: C_2  and  C_3
REMARK    3  A    between atoms: C_3  and  O_4
REMARK    4  A    between atoms: C_3  and  C_5
REMARK    5  A    between atoms: C_7  and  C_8
REMARK    6  A    between atoms: C_8  and  C_9
REMARK    7  A    between atoms: C_10  and  C_11
REMARK                            x       y       z     vdW  Elec       q    Type
REMARK                         _______ _______ _______ _____ _____    ______ ____
ROOT
ATOM      1  C   UNL     1       5.233   4.722  18.670  0.00  0.00    +0.000 C 
ATOM      2  C   UNL     1       4.740   3.878  17.508  0.00  0.00    +0.000 C 
ATOM      3  C   UNL     1       3.285   4.264  17.319  0.00  0.00    +0.000 C 
ATOM      4  C   UNL     1       3.172   5.548  18.092  0.00  0.00    +0.000 C 
ATOM      5  O   UNL     1       2.186   6.269  18.120  0.00  0.00    +0.000 OA
ATOM      6  O   UNL     1       4.311   5.810  18.787  0.00  0.00    +0.000 OA
ENDROOT
BRANCH   1   7
ATOM      7  C   UNL     1       6.656   5.273  18.454  0.00  0.00    +0.000 C 
BRANCH   7   9
ATOM      8  C   UNL     1       7.662   7.486  17.712  0.00  0.00    +0.000 C 
ATOM      9  C   UNL     1       6.709   6.349  17.361  0.00  0.00    +0.000 C 
ENDBRANCH   7   9
BRANCH   7  10
ATOM     10  O   UNL     1       7.534   4.199  18.103  0.00  0.00    +0.000 OA
ATOM     11  H   UNL     1       7.061   3.649  17.449  0.00  0.00    +0.000 HD
ENDBRANCH   7  10
ENDBRANCH   1   7
BRANCH   3  12
ATOM     12  C   UNL     1       2.257   3.252  17.831  0.00  0.00    +0.000 C 
BRANCH  12  13
ATOM     13  C   UNL     1       2.356   2.983  19.310  0.00  0.00    +0.000 C 
ATOM     14  C   UNL     1       1.302   2.991  20.138  0.00  0.00    +0.000 C 
BRANCH  14  15
ATOM     15  C   UNL     1       1.483   2.767  21.590  0.00  0.00    +0.000 C 
ATOM     16  O   UNL     1       2.595   2.592  22.072  0.00  0.00    +0.000 OA
ENDBRANCH  14  15
ENDBRANCH  12  13
ENDBRANCH   3  12
TORSDOF 6
ENDMDL
MODEL 2
REMARK VINA RESULT:      -6.1      2.414      5.816
REMARK  Name = 
REMARK  7 active torsions:
REMARK  status: ('A' for Active; 'I' for Inactive)
REMARK    1  A    between atoms: C_1  and  C_2
REMARK    2  A    between atoms: C_2  and  C_3
REMARK    3  A    between atoms: C_3  and  O_4
REMARK    4  A    between atoms: C_3  and  C_5
REMARK    5  A    between atoms: C_7  and  C_8
REMARK    6  A    between atoms: C_8  and  C_9
REMARK    7  A    between atoms: C_10  and  C_11
REMARK                            x       y       z     vdW  Elec       q    Type
REMARK                         _______ _______ _______ _____ _____    ______ ____
ROOT
ATOM      1  C   UNL     1       2.832   5.448  19.404  0.00  0.00    +0.000 C 
ATOM      2  C   UNL     1       2.736   5.168  17.915  0.00  0.00    +0.000 C 
ATOM      3  C   UNL     1       4.163   4.926  17.458  0.00  0.00    +0.000 C 
ATOM      4  C   UNL     1       4.897   4.690  18.749  0.00  0.00    +0.000 C 
ATOM      5  O   UNL     1       6.065   4.347  18.842  0.00  0.00    +0.000 OA
ATOM      6  O   UNL     1       4.098   4.927  19.824  0.00  0.00    +0.000 OA
ENDROOT
BRANCH   1   7
ATOM      7  C   UNL     1       1.705   4.781  20.217  0.00  0.00    +0.000 C 
BRANCH   7   9
ATOM      8  C   UNL     1       1.504   2.688  21.645  0.00  0.00    +0.000 C 
ATOM      9  C   UNL     1       2.236   4.008  21.432  0.00  0.00    +0.000 C 
ENDBRANCH   7   9
BRANCH   7  10
ATOM     10  O   UNL     1       0.974   3.887  19.372  0.00  0.00    +0.000 OA
ATOM     11  H   UNL     1       0.216   4.389  19.017  0.00  0.00    +0.000 HD
ENDBRANCH   7  10
ENDBRANCH   1   7
BRANCH   3  12
ATOM     12  C   UNL     1       4.817   6.073  16.686  0.00  0.00    +0.000 C 
BRANCH  12  13
ATOM     13  C   UNL     1       5.546   5.630  15.443  0.00  0.00    +0.000 C 
ATOM     14  C   UNL     1       5.531   4.371  14.984  0.00  0.00    +0.000 C 
BRANCH  14  15
ATOM     15  C   UNL     1       6.312   3.998  13.783  0.00  0.00    +0.000 C 
ATOM     16  O   UNL     1       5.769   3.526  12.792  0.00  0.00    +0.000 OA
ENDBRANCH  14  15
ENDBRANCH  12  13
ENDBRANCH   3  12
TORSDOF 6
ENDMDL
MODEL 3
REMARK VINA RESULT:      -6.0      1.609      2.121
REMARK  Name = 
REMARK  7 active torsions:
REMARK  status: ('A' for Active; 'I' for Inactive)
REMARK    1  A    between atoms: C_1  and  C_2
REMARK    2  A    between atoms: C_2  and  C_3
REMARK    3  A    between atoms: C_3  and  O_4
REMARK    4  A    between atoms: C_3  and  C_5
REMARK    5  A    between atoms: C_7  and  C_8
REMARK    6  A    between atoms: C_8  and  C_9
REMARK    7  A    between atoms: C_10  and  C_11
REMARK                            x       y       z     vdW  Elec       q    Type
REMARK                         _______ _______ _______ _____ _____    ______ ____
ROOT
ATOM      1  C   UNL     1       5.380   5.404  17.754  0.00  0.00    +0.000 C 
ATOM      2  C   UNL     1       4.072   4.634  17.790  0.00  0.00    +0.000 C 
ATOM      3  C   UNL     1       2.990   5.685  17.958  0.00  0.00    +0.000 C 
ATOM      4  C   UNL     1       3.701   6.962  17.608  0.00  0.00    +0.000 C 
ATOM      5  O   UNL     1       3.172   8.058  17.507  0.00  0.00    +0.000 OA
ATOM      6  O   UNL     1       5.034   6.756  17.434  0.00  0.00    +0.000 OA
ENDROOT
BRANCH   1   7
ATOM      7  C   UNL     1       6.370   4.862  16.705  0.00  0.00    +0.000 C 
BRANCH   7   9
ATOM      8  C   UNL     1       6.052   4.148  14.287  0.00  0.00    +0.000 C 
ATOM      9  C   UNL     1       5.718   3.858  15.745  0.00  0.00    +0.000 C 
ENDBRANCH   7   9
BRANCH   7  10
ATOM     10  O   UNL     1       7.471   4.234  17.369  0.00  0.00    +0.000 OA
ATOM     11  H   UNL     1       8.144   4.047  16.688  0.00  0.00    +0.000 HD
ENDBRANCH   7  10
ENDBRANCH   1   7
BRANCH   3  12
ATOM     12  C   UNL     1       2.380   5.791  19.357  0.00  0.00    +0.000 C 
BRANCH  12  13
ATOM     13  C   UNL     1       2.455   4.512  20.150  0.00  0.00    +0.000 C 
ATOM     14  C   UNL     1       1.392   3.930  20.723  0.00  0.00    +0.000 C 
BRANCH  14  15
ATOM     15  C   UNL     1       1.551   2.700  21.530  0.00  0.00    +0.000 C 
ATOM     16  O   UNL     1       2.564   2.498  22.189  0.00  0.00    +0.000 OA
ENDBRANCH  14  15
ENDBRANCH  12  13
ENDBRANCH   3  12
TORSDOF 6
ENDMDL
MODEL 4
REMARK VINA RESULT:      -6.0      2.494      4.153
REMARK  Name = 
REMARK  7 active torsions:
REMARK  status: ('A' for Active; 'I' for Inactive)
REMARK    1  A    between atoms: C_1  and  C_2
REMARK    2  A    between atoms: C_2  and  C_3
REMARK    3  A    between atoms: C_3  and  O_4
REMARK    4  A    between atoms: C_3  and  C_5
REMARK    5  A    between atoms: C_7  and  C_8
REMARK    6  A    between atoms: C_8  and  C_9
REMARK    7  A    between atoms: C_10  and  C_11
REMARK                            x       y       z     vdW  Elec       q    Type
REMARK                         _______ _______ _______ _____ _____    ______ ____
ROOT
ATOM      1  C   UNL     1       6.133   4.540  15.848  0.00  0.00    +0.000 C 
ATOM      2  C   UNL     1       5.358   5.632  16.562  0.00  0.00    +0.000 C 
ATOM      3  C   UNL     1       5.947   5.697  17.959  0.00  0.00    +0.000 C 
ATOM      4  C   UNL     1       7.241   4.947  17.816  0.00  0.00    +0.000 C 
ATOM      5  O   UNL     1       8.096   4.846  18.683  0.00  0.00    +0.000 OA
ATOM      6  O   UNL     1       7.344   4.365  16.592  0.00  0.00    +0.000 OA
ENDROOT
BRANCH   1   7
ATOM      7  C   UNL     1       6.473   4.898  14.388  0.00  0.00    +0.000 C 
BRANCH   7   9
ATOM      8  C   UNL     1       5.162   3.730  12.550  0.00  0.00    +0.000 C 
ATOM      9  C   UNL     1       6.390   3.684  13.452  0.00  0.00    +0.000 C 
ENDBRANCH   7   9
BRANCH   7  10
ATOM     10  O   UNL     1       7.790   5.452  14.327  0.00  0.00    +0.000 OA
ATOM     11  H   UNL     1       8.024   5.726  15.235  0.00  0.00    +0.000 HD
ENDBRANCH   7  10
ENDBRANCH   1   7
BRANCH   3  12
ATOM     12  C   UNL     1       5.098   5.071  19.068  0.00  0.00    +0.000 C 
BRANCH  12  13
ATOM     13  C   UNL     1       3.671   4.804  18.661  0.00  0.00    +0.000 C 
ATOM     14  C   UNL     1       3.139   3.576  18.582  0.00  0.00    +0.000 C 
BRANCH  14  15
ATOM     15  C   UNL     1       1.744   3.387  18.126  0.00  0.00    +0.000 C 
ATOM     16  O   UNL     1       1.213   4.182  17.361  0.00  0.00    +0.000 OA
ENDBRANCH  14  15
ENDBRANCH  12  13
ENDBRANCH   3  12
TORSDOF 6
ENDMDL
MODEL 5
REMARK VINA RESULT:      -6.0      2.664      3.853
REMARK  Name = 
REMARK  7 active torsions:
REMARK  status: ('A' for Active; 'I' for Inactive)
REMARK    1  A    between atoms: C_1  and  C_2
REMARK    2  A    between atoms: C_2  and  C_3
REMARK    3  A    between atoms: C_3  and  O_4
REMARK    4  A    between atoms: C_3  and  C_5
REMARK    5  A    between atoms: C_7  and  C_8
REMARK    6  A    between atoms: C_8  and  C_9
REMARK    7  A    between atoms: C_10  and  C_11
REMARK                            x       y       z     vdW  Elec       q    Type
REMARK                         _______ _______ _______ _____ _____    ______ ____
ROOT
ATOM      1  C   UNL     1       6.279   4.125  15.527  0.00  0.00    +0.000 C 
ATOM      2  C   UNL     1       5.088   4.720  16.257  0.00  0.00    +0.000 C 
ATOM      3  C   UNL     1       5.517   4.828  17.708  0.00  0.00    +0.000 C 
ATOM      4  C   UNL     1       7.010   4.672  17.633  0.00  0.00    +0.000 C 
ATOM      5  O   UNL     1       7.781   4.803  18.571  0.00  0.00    +0.000 OA
ATOM      6  O   UNL     1       7.411   4.343  16.375  0.00  0.00    +0.000 OA
ENDROOT
BRANCH   1   7
ATOM      7  C   UNL     1       6.531   4.775  14.153  0.00  0.00    +0.000 C 
BRANCH   7   9
ATOM      8  C   UNL     1       5.158   3.523  12.418  0.00  0.00    +0.000 C 
ATOM      9  C   UNL     1       6.544   3.749  13.012  0.00  0.00    +0.000 C 
ENDBRANCH   7   9
BRANCH   7  10
ATOM     10  O   UNL     1       7.781   5.470  14.177  0.00  0.00    +0.000 OA
ATOM     11  H   UNL     1       8.377   5.004  13.560  0.00  0.00    +0.000 HD
ENDBRANCH   7  10
ENDBRANCH   1   7
BRANCH   3  12
ATOM     12  C   UNL     1       4.929   3.779  18.654  0.00  0.00    +0.000 C 
BRANCH  12  13
ATOM     13  C   UNL     1       3.491   4.037  19.026  0.00  0.00    +0.000 C 
ATOM     14  C   UNL     1       2.653   3.083  19.457  0.00  0.00    +0.000 C 
BRANCH  14  15
ATOM     15  C   UNL     1       1.239   3.402  19.756  0.00  0.00    +0.000 C 
ATOM     16  O   UNL     1       0.939   4.346  20.478  0.00  0.00    +0.000 OA
ENDBRANCH  14  15
ENDBRANCH  12  13
ENDBRANCH   3  12
TORSDOF 6
ENDMDL
MODEL 6
REMARK VINA RESULT:      -6.0      2.175      2.909
REMARK  Name = 
REMARK  7 active torsions:
REMARK  status: ('A' for Active; 'I' for Inactive)
REMARK    1  A    between atoms: C_1  and  C_2
REMARK    2  A    between atoms: C_2  and  C_3
REMARK    3  A    between atoms: C_3  and  O_4
REMARK    4  A    between atoms: C_3  and  C_5
REMARK    5  A    between atoms: C_7  and  C_8
REMARK    6  A    between atoms: C_8  and  C_9
REMARK    7  A    between atoms: C_10  and  C_11
REMARK                            x       y       z     vdW  Elec       q    Type
REMARK                         _______ _______ _______ _____ _____    ______ ____
ROOT
ATOM      1  C   UNL     1       5.906   4.095  16.076  0.00  0.00    +0.000 C 
ATOM      2  C   UNL     1       4.399   4.087  16.258  0.00  0.00    +0.000 C 
ATOM      3  C   UNL     1       4.173   3.844  17.739  0.00  0.00    +0.000 C 
ATOM      4  C   UNL     1       5.522   4.128  18.338  0.00  0.00    +0.000 C 
ATOM      5  O   UNL     1       5.769   4.159  19.534  0.00  0.00    +0.000 OA
ATOM      6  O   UNL     1       6.460   4.332  17.375  0.00  0.00    +0.000 OA
ENDROOT
BRANCH   1   7
ATOM      7  C   UNL     1       6.390   5.187  15.102  0.00  0.00    +0.000 C 
BRANCH   7   9
ATOM      8  C   UNL     1       6.000   3.679  13.094  0.00  0.00    +0.000 C 
ATOM      9  C   UNL     1       6.978   4.603  13.810  0.00  0.00    +0.000 C 
ENDBRANCH   7   9
BRANCH   7  10
ATOM     10  O   UNL     1       7.378   5.996  15.747  0.00  0.00    +0.000 OA
ATOM     11  H   UNL     1       6.940   6.427  16.505  0.00  0.00    +0.000 HD
ENDBRANCH   7  10
ENDBRANCH   1   7
BRANCH   3  12
ATOM     12  C   UNL     1       3.718   2.433  18.118  0.00  0.00    +0.000 C 
BRANCH  12  13
ATOM     13  C   UNL     1       2.547   2.408  19.067  0.00  0.00    +0.000 C 
ATOM     14  C   UNL     1       2.517   3.081  20.226  0.00  0.00    +0.000 C 
BRANCH  14  15
ATOM     15  C   UNL     1       1.352   2.968  21.132  0.00  0.00    +0.000 C 
ATOM     16  O   UNL     1       1.457   2.465  22.244  0.00  0.00    +0.000 OA
ENDBRANCH  14  15
ENDBRANCH  12  13
ENDBRANCH   3  12
TORSDOF 6
ENDMDL
MODEL 7
REMARK VINA RESULT:      -5.9      3.574      5.973
REMARK  Name = 
REMARK  7 active torsions:
REMARK  status: ('A' for Active; 'I' for Inactive)
REMARK    1  A    between atoms: C_1  and  C_2
REMARK    2  A    between atoms: C_2  and  C_3
REMARK    3  A    between atoms: C_3  and  O_4
REMARK    4  A    between atoms: C_3  and  C_5
REMARK    5  A    between atoms: C_7  and  C_8
REMARK    6  A    between atoms: C_8  and  C_9
REMARK    7  A    between atoms: C_10  and  C_11
REMARK                            x       y       z     vdW  Elec       q    Type
REMARK                         _______ _______ _______ _____ _____    ______ ____
ROOT
ATOM      1  C   UNL     1       4.908   4.764  17.157  0.00  0.00    +0.000 C 
ATOM      2  C   UNL     1       5.837   3.766  16.488  0.00  0.00    +0.000 C 
ATOM      3  C   UNL     1       6.967   4.595  15.906  0.00  0.00    +0.000 C 
ATOM      4  C   UNL     1       6.818   5.914  16.611  0.00  0.00    +0.000 C 
ATOM      5  O   UNL     1       7.595   6.852  16.521  0.00  0.00    +0.000 OA
ATOM      6  O   UNL     1       5.684   5.950  17.361  0.00  0.00    +0.000 OA
ENDROOT
BRANCH   1   7
ATOM      7  C   UNL     1       4.363   4.267  18.510  0.00  0.00    +0.000 C 
BRANCH   7   9
ATOM      8  C   UNL     1       2.724   5.013  20.304  0.00  0.00    +0.000 C 
ATOM      9  C   UNL     1       3.893   5.416  19.412  0.00  0.00    +0.000 C 
ENDBRANCH   7   9
BRANCH   7  10
ATOM     10  O   UNL     1       5.378   3.521  19.188  0.00  0.00    +0.000 OA
ATOM     11  H   UNL     1       5.034   2.615  19.306  0.00  0.00    +0.000 HD
ENDBRANCH   7  10
ENDBRANCH   1   7
BRANCH   3  12
ATOM     12  C   UNL     1       6.924   4.803  14.390  0.00  0.00    +0.000 C 
BRANCH  12  13
ATOM     13  C   UNL     1       6.108   3.768  13.659  0.00  0.00    +0.000 C 
ATOM     14  C   UNL     1       5.985   3.727  12.325  0.00  0.00    +0.000 C 
BRANCH  14  15
ATOM     15  C   UNL     1       5.125   2.711  11.679  0.00  0.00    +0.000 C 
ATOM     16  O   UNL     1       4.089   3.026  11.106  0.00  0.00    +0.000 OA
ENDBRANCH  14  15
ENDBRANCH  12  13
ENDBRANCH   3  12
TORSDOF 6
ENDMDL
MODEL 8
REMARK VINA RESULT:      -5.9      2.756      6.663
REMARK  Name = 
REMARK  7 active torsions:
REMARK  status: ('A' for Active; 'I' for Inactive)
REMARK    1  A    between atoms: C_1  and  C_2
REMARK    2  A    between atoms: C_2  and  C_3
REMARK    3  A    between atoms: C_3  and  O_4
REMARK    4  A    between atoms: C_3  and  C_5
REMARK    5  A    between atoms: C_7  and  C_8
REMARK    6  A    between atoms: C_8  and  C_9
REMARK    7  A    between atoms: C_10  and  C_11
REMARK                            x       y       z     vdW  Elec       q    Type
REMARK                         _______ _______ _______ _____ _____    ______ ____
ROOT
ATOM      1  C   UNL     1       5.958   4.495  18.269  0.00  0.00    +0.000 C 
ATOM      2  C   UNL     1       5.722   5.977  18.498  0.00  0.00    +0.000 C 
ATOM      3  C   UNL     1       6.603   6.687  17.487  0.00  0.00    +0.000 C 
ATOM      4  C   UNL     1       6.954   5.594  16.517  0.00  0.00    +0.000 C 
ATOM      5  O   UNL     1       7.568   5.748  15.473  0.00  0.00    +0.000 OA
ATOM      6  O   UNL     1       6.516   4.383  16.955  0.00  0.00    +0.000 OA
ENDROOT
BRANCH   1   7
ATOM      7  C   UNL     1       4.666   3.658  18.353  0.00  0.00    +0.000 C 
BRANCH   7   9
ATOM      8  C   UNL     1       2.299   4.382  17.777  0.00  0.00    +0.000 C 
ATOM      9  C   UNL     1       3.450   4.497  18.769  0.00  0.00    +0.000 C 
ENDBRANCH   7   9
BRANCH   7  10
ATOM     10  O   UNL     1       4.849   2.594  19.291  0.00  0.00    +0.000 OA
ATOM     11  H   UNL     1       4.069   2.012  19.215  0.00  0.00    +0.000 HD
ENDBRANCH   7  10
ENDBRANCH   1   7
BRANCH   3  12
ATOM     12  C   UNL     1       7.879   7.320  18.046  0.00  0.00    +0.000 C 
BRANCH  12  13
ATOM     13  C   UNL     1       7.996   8.796  17.766  0.00  0.00    +0.000 C 
ATOM     14  C   UNL     1       8.812   9.618  18.442  0.00  0.00    +0.000 C 
BRANCH  14  15
ATOM     15  C   UNL     1       8.837  11.067  18.144  0.00  0.00    +0.000 C 
ATOM     16  O   UNL     1       9.894  11.665  17.986  0.00  0.00    +0.000 OA
ENDBRANCH  14  15
ENDBRANCH  12  13
ENDBRANCH   3  12
TORSDOF 6
ENDMDL
MODEL 9
REMARK VINA RESULT:      -5.9      2.423      6.234
REMARK  Name = 
REMARK  7 active torsions:
REMARK  status: ('A' for Active; 'I' for Inactive)
REMARK    1  A    between atoms: C_1  and  C_2
REMARK    2  A    between atoms: C_2  and  C_3
REMARK    3  A    between atoms: C_3  and  O_4
REMARK    4  A    between atoms: C_3  and  C_5
REMARK    5  A    between atoms: C_7  and  C_8
REMARK    6  A    between atoms: C_8  and  C_9
REMARK    7  A    between atoms: C_10  and  C_11
REMARK                            x       y       z     vdW  Elec       q    Type
REMARK                         _______ _______ _______ _____ _____    ______ ____
ROOT
ATOM      1  C   UNL     1       2.301   3.918  18.540  0.00  0.00    +0.000 C 
ATOM      2  C   UNL     1       2.795   3.396  17.202  0.00  0.00    +0.000 C 
ATOM      3  C   UNL     1       4.297   3.616  17.213  0.00  0.00    +0.000 C 
ATOM      4  C   UNL     1       4.592   3.862  18.666  0.00  0.00    +0.000 C 
ATOM      5  O   UNL     1       5.708   3.981  19.148  0.00  0.00    +0.000 OA
ATOM      6  O   UNL     1       3.448   3.959  19.395  0.00  0.00    +0.000 OA
ENDROOT
BRANCH   1   7
ATOM      7  C   UNL     1       1.217   3.024  19.173  0.00  0.00    +0.000 C 
BRANCH   7   9
ATOM      8  C   UNL     1       1.532   2.561  21.652  0.00  0.00    +0.000 C 
ATOM      9  C   UNL     1       0.869   3.450  20.606  0.00  0.00    +0.000 C 
ENDBRANCH   7   9
BRANCH   7  10
ATOM     10  O   UNL     1       1.665   1.666  19.179  0.00  0.00    +0.000 OA
ATOM     11  H   UNL     1       2.615   1.679  18.953  0.00  0.00    +0.000 HD
ENDBRANCH   7  10
ENDBRANCH   1   7
BRANCH   3  12
ATOM     12  C   UNL     1       4.803   4.788  16.370  0.00  0.00    +0.000 C 
BRANCH  12  13
ATOM     13  C   UNL     1       5.829   4.394  15.338  0.00  0.00    +0.000 C 
ATOM     14  C   UNL     1       6.490   5.275  14.574  0.00  0.00    +0.000 C 
BRANCH  14  15
ATOM     15  C   UNL     1       7.447   4.812  13.547  0.00  0.00    +0.000 C 
ATOM     16  O   UNL     1       8.111   5.606  12.891  0.00  0.00    +0.000 OA
ENDBRANCH  14  15
ENDBRANCH  12  13
ENDBRANCH   3  12
TORSDOF 6
ENDMDL
