MODEL 1
REMARK VINA RESULT:      -7.7      0.000      0.000
REMARK  Name = 
REMARK  5 active torsions:
REMARK  status: ('A' for Active; 'I' for Inactive)
REMARK    1  A    between atoms: C_1  and  N_2
REMARK    2  A    between atoms: N_2  and  C_3
REMARK    3  A    between atoms: C_4  and  C_6
REMARK    4  A    between atoms: C_6  and  N_7
REMARK    5  A    between atoms: C_16  and  C_18
REMARK                            x       y       z     vdW  Elec       q    Type
REMARK                         _______ _______ _______ _____ _____    ______ ____
ROOT
ATOM      1  N   UNL     1       4.447   5.246  18.078  0.00  0.00    +0.000 N 
ATOM      2  C   UNL     1       4.693   4.551  19.253  0.00  0.00    +0.000 C 
ATOM      3  O   UNL     1       5.784   4.523  19.815  0.00  0.00    +0.000 OA
ATOM      4  C   UNL     1       3.451   3.902  19.845  0.00  0.00    +0.000 C 
ATOM      5  C   UNL     1       2.693   3.056  18.820  0.00  0.00    +0.000 C 
ATOM      6  C   UNL     1       2.663   3.695  17.438  0.00  0.00    +0.000 C 
ATOM      7  C   UNL     1       3.124   5.159  17.476  0.00  0.00    +0.000 C 
ATOM      8  C   UNL     1       2.098   6.062  18.209  0.00  0.00    +0.000 C 
ATOM      9  N   UNL     1       2.218   6.172  19.669  0.00  0.00    +0.000 N 
ATOM     10  C   UNL     1       1.728   7.263  20.417  0.00  0.00    +0.000 C 
ATOM     11  O   UNL     1       1.578   7.207  21.639  0.00  0.00    +0.000 OA
ATOM     12  C   UNL     1       2.559   4.983  20.472  0.00  0.00    +0.000 C 
ENDROOT
BRANCH  10  13
ATOM     13  C   UNL     1       1.481   8.591  19.791  0.00  0.00    +0.000 A 
ATOM     14  C   UNL     1       1.893   8.937  18.504  0.00  0.00    +0.000 A 
ATOM     15  C   UNL     1       1.682  10.233  18.012  0.00  0.00    +0.000 A 
ATOM     16  C   UNL     1       0.990  11.183  18.794  0.00  0.00    +0.000 A 
ATOM     17  N   UNL     1       0.740  12.499  18.445  0.00  0.00    +0.000 NA
ATOM     18  C   UNL     1       0.059  13.085  19.402  0.00  0.00    +0.000 A 
ATOM     19  S   UNL     1      -0.338  12.117  20.757  0.00  0.00    +0.000 S 
ATOM     20  C   UNL     1       0.506  10.794  20.045  0.00  0.00    +0.000 A 
ATOM     21  C   UNL     1       0.728   9.503  20.554  0.00  0.00    +0.000 A 
ENDBRANCH  10  13
BRANCH   1  22
ATOM     22  C   UNL     1       5.431   6.196  17.563  0.00  0.00    +0.000 C 
BRANCH  22  26
ATOM     23  C   UNL     1       6.985   4.882  14.308  0.00  0.00    +0.000 C 
ATOM     24  N   UNL     1       6.777   5.174  15.715  0.00  0.00    +0.000 N 
ATOM     25  C   UNL     1       7.515   4.385  16.690  0.00  0.00    +0.000 C 
ATOM     26  C   UNL     1       5.751   6.063  16.059  0.00  0.00    +0.000 C 
ATOM     27  O   UNL     1       5.178   6.755  15.213  0.00  0.00    +0.000 OA
ENDBRANCH  22  26
ENDBRANCH   1  22
TORSDOF 3
ENDMDL
MODEL 2
REMARK VINA RESULT:      -7.5      1.445      1.674
REMARK  Name = 
REMARK  5 active torsions:
REMARK  status: ('A' for Active; 'I' for Inactive)
REMARK    1  A    between atoms: C_1  and  N_2
REMARK    2  A    between atoms: N_2  and  C_3
REMARK    3  A    between atoms: C_4  and  C_6
REMARK    4  A    between atoms: C_6  and  N_7
REMARK    5  A    between atoms: C_16  and  C_18
REMARK                            x       y       z     vdW  Elec       q    Type
REMARK                         _______ _______ _______ _____ _____    ______ ____
ROOT
ATOM      1  N   UNL     1       4.180   3.622  18.292  0.00  0.00    +0.000 N 
ATOM      2  C   UNL     1       4.181   2.976  19.518  0.00  0.00    +0.000 C 
ATOM      3  O   UNL     1       5.192   2.772  20.183  0.00  0.00    +0.000 OA
ATOM      4  C   UNL     1       2.787   2.630  20.022  0.00  0.00    +0.000 C 
ATOM      5  C   UNL     1       1.961   1.881  18.975  0.00  0.00    +0.000 C 
ATOM      6  C   UNL     1       2.176   2.417  17.565  0.00  0.00    +0.000 C 
ATOM      7  C   UNL     1       2.921   3.758  17.571  0.00  0.00    +0.000 C 
ATOM      8  C   UNL     1       2.044   4.896  18.156  0.00  0.00    +0.000 C 
ATOM      9  N   UNL     1       2.063   5.081  19.613  0.00  0.00    +0.000 N 
ATOM     10  C   UNL     1       1.745   6.298  20.254  0.00  0.00    +0.000 C 
ATOM     11  O   UNL     1       1.487   6.358  21.457  0.00  0.00    +0.000 OA
ATOM     12  C   UNL     1       2.086   3.908  20.505  0.00  0.00    +0.000 C 
ENDROOT
BRANCH  10  13
ATOM     13  C   UNL     1       1.827   7.601  19.539  0.00  0.00    +0.000 A 
ATOM     14  C   UNL     1       2.411   7.769  18.283  0.00  0.00    +0.000 A 
ATOM     15  C   UNL     1       2.510   9.044  17.708  0.00  0.00    +0.000 A 
ATOM     16  C   UNL     1       1.959  10.163  18.368  0.00  0.00    +0.000 A 
ATOM     17  N   UNL     1       2.011  11.475  17.928  0.00  0.00    +0.000 NA
ATOM     18  C   UNL     1       1.382  12.249  18.783  0.00  0.00    +0.000 A 
ATOM     19  S   UNL     1       0.681  11.475  20.139  0.00  0.00    +0.000 S 
ATOM     20  C   UNL     1       1.299   9.965  19.582  0.00  0.00    +0.000 A 
ATOM     21  C   UNL     1       1.210   8.695  20.177  0.00  0.00    +0.000 A 
ENDBRANCH  10  13
BRANCH   1  22
ATOM     22  C   UNL     1       5.376   4.321  17.824  0.00  0.00    +0.000 C 
BRANCH  22  26
ATOM     23  C   UNL     1       6.030   5.205  14.146  0.00  0.00    +0.000 C 
ATOM     24  N   UNL     1       5.563   5.282  15.519  0.00  0.00    +0.000 N 
ATOM     25  C   UNL     1       5.160   6.584  16.029  0.00  0.00    +0.000 C 
ATOM     26  C   UNL     1       5.699   4.144  16.325  0.00  0.00    +0.000 C 
ATOM     27  O   UNL     1       5.994   3.044  15.853  0.00  0.00    +0.000 OA
ENDBRANCH  22  26
ENDBRANCH   1  22
TORSDOF 3
ENDMDL
MODEL 3
REMARK VINA RESULT:      -7.4      2.388      4.335
REMARK  Name = 
REMARK  5 active torsions:
REMARK  status: ('A' for Active; 'I' for Inactive)
REMARK    1  A    between atoms: C_1  and  N_2
REMARK    2  A    between atoms: N_2  and  C_3
REMARK    3  A    between atoms: C_4  and  C_6
REMARK    4  A    between atoms: C_6  and  N_7
REMARK    5  A    between atoms: C_16  and  C_18
REMARK                            x       y       z     vdW  Elec       q    Type
REMARK                         _______ _______ _______ _____ _____    ______ ____
ROOT
ATOM      1  N   UNL     1       5.135   4.096  18.236  0.00  0.00    +0.000 N 
ATOM      2  C   UNL     1       5.182   4.128  16.851  0.00  0.00    +0.000 C 
ATOM      3  O   UNL     1       4.674   3.274  16.130  0.00  0.00    +0.000 OA
ATOM      4  C   UNL     1       5.838   5.383  16.294  0.00  0.00    +0.000 C 
ATOM      5  C   UNL     1       7.205   5.652  16.925  0.00  0.00    +0.000 C 
ATOM      6  C   UNL     1       7.234   5.346  18.417  0.00  0.00    +0.000 C 
ATOM      7  C   UNL     1       5.823   5.139  18.985  0.00  0.00    +0.000 C 
ATOM      8  C   UNL     1       5.014   6.462  19.001  0.00  0.00    +0.000 C 
ATOM      9  N   UNL     1       4.279   6.819  17.780  0.00  0.00    +0.000 N 
ATOM     10  C   UNL     1       3.155   7.672  17.763  0.00  0.00    +0.000 C 
ATOM     11  O   UNL     1       2.736   8.183  16.723  0.00  0.00    +0.000 OA
ATOM     12  C   UNL     1       4.882   6.574  16.458  0.00  0.00    +0.000 C 
ENDROOT
BRANCH  10  13
ATOM     13  C   UNL     1       2.331   7.905  18.981  0.00  0.00    +0.000 A 
ATOM     14  C   UNL     1       2.182   6.977  20.012  0.00  0.00    +0.000 A 
ATOM     15  C   UNL     1       1.332   7.245  21.094  0.00  0.00    +0.000 A 
ATOM     16  C   UNL     1       0.668   8.487  21.182  0.00  0.00    +0.000 A 
ATOM     17  N   UNL     1      -0.217   8.870  22.176  0.00  0.00    +0.000 NA
ATOM     18  C   UNL     1      -0.629  10.096  21.948  0.00  0.00    +0.000 A 
ATOM     19  S   UNL     1       0.015  10.871  20.565  0.00  0.00    +0.000 S 
ATOM     20  C   UNL     1       0.898   9.440  20.187  0.00  0.00    +0.000 A 
ATOM     21  C   UNL     1       1.733   9.174  19.089  0.00  0.00    +0.000 A 
ENDBRANCH  10  13
BRANCH   1  22
ATOM     22  C   UNL     1       4.257   3.151  18.923  0.00  0.00    +0.000 C 
BRANCH  22  26
ATOM     23  C   UNL     1       0.732   3.765  20.315  0.00  0.00    +0.000 C 
ATOM     24  N   UNL     1       2.077   3.242  20.153  0.00  0.00    +0.000 N 
ATOM     25  C   UNL     1       2.695   2.590  21.297  0.00  0.00    +0.000 C 
ATOM     26  C   UNL     1       2.767   3.555  18.975  0.00  0.00    +0.000 C 
ATOM     27  O   UNL     1       2.202   4.064  18.005  0.00  0.00    +0.000 OA
ENDBRANCH  22  26
ENDBRANCH   1  22
TORSDOF 3
ENDMDL
MODEL 4
REMARK VINA RESULT:      -7.4      1.086      1.254
REMARK  Name = 
REMARK  5 active torsions:
REMARK  status: ('A' for Active; 'I' for Inactive)
REMARK    1  A    between atoms: C_1  and  N_2
REMARK    2  A    between atoms: N_2  and  C_3
REMARK    3  A    between atoms: C_4  and  C_6
REMARK    4  A    between atoms: C_6  and  N_7
REMARK    5  A    between atoms: C_16  and  C_18
REMARK                            x       y       z     vdW  Elec       q    Type
REMARK                         _______ _______ _______ _____ _____    ______ ____
ROOT
ATOM      1  N   UNL     1       4.712   4.559  17.986  0.00  0.00    +0.000 N 
ATOM      2  C   UNL     1       4.819   3.790  19.134  0.00  0.00    +0.000 C 
ATOM      3  O   UNL     1       5.850   3.683  19.792  0.00  0.00    +0.000 OA
ATOM      4  C   UNL     1       3.502   3.164  19.570  0.00  0.00    +0.000 C 
ATOM      5  C   UNL     1       2.812   2.410  18.431  0.00  0.00    +0.000 C 
ATOM      6  C   UNL     1       2.937   3.127  17.093  0.00  0.00    +0.000 C 
ATOM      7  C   UNL     1       3.449   4.565  17.261  0.00  0.00    +0.000 C 
ATOM      8  C   UNL     1       2.394   5.470  17.949  0.00  0.00    +0.000 C 
ATOM      9  N   UNL     1       2.380   5.492  19.418  0.00  0.00    +0.000 N 
ATOM     10  C   UNL     1       1.864   6.560  20.182  0.00  0.00    +0.000 C 
ATOM     11  O   UNL     1       1.598   6.442  21.379  0.00  0.00    +0.000 OA
ATOM     12  C   UNL     1       2.598   4.246  20.176  0.00  0.00    +0.000 C 
ENDROOT
BRANCH  10  13
ATOM     13  C   UNL     1       1.728   7.931  19.616  0.00  0.00    +0.000 A 
ATOM     14  C   UNL     1       2.157   8.296  18.339  0.00  0.00    +0.000 A 
ATOM     15  C   UNL     1       2.056   9.625  17.907  0.00  0.00    +0.000 A 
ATOM     16  C   UNL     1       1.457  10.597  18.737  0.00  0.00    +0.000 A 
ATOM     17  N   UNL     1       1.320  11.943  18.447  0.00  0.00    +0.000 NA
ATOM     18  C   UNL     1       0.702  12.544  19.438  0.00  0.00    +0.000 A 
ATOM     19  S   UNL     1       0.234  11.556  20.755  0.00  0.00    +0.000 S 
ATOM     20  C   UNL     1       0.952  10.197  19.976  0.00  0.00    +0.000 A 
ATOM     21  C   UNL     1       1.065   8.871  20.427  0.00  0.00    +0.000 A 
ENDBRANCH  10  13
BRANCH   1  22
ATOM     22  C   UNL     1       5.776   5.493  17.621  0.00  0.00    +0.000 C 
BRANCH  22  26
ATOM     23  C   UNL     1       7.488   4.853  14.245  0.00  0.00    +0.000 C 
ATOM     24  N   UNL     1       6.477   5.170  15.239  0.00  0.00    +0.000 N 
ATOM     25  C   UNL     1       5.276   5.859  14.792  0.00  0.00    +0.000 C 
ATOM     26  C   UNL     1       6.793   4.963  16.588  0.00  0.00    +0.000 C 
ATOM     27  O   UNL     1       7.795   4.332  16.933  0.00  0.00    +0.000 OA
ENDBRANCH  22  26
ENDBRANCH   1  22
TORSDOF 3
ENDMDL
MODEL 5
REMARK VINA RESULT:      -7.3      2.383      4.518
REMARK  Name = 
REMARK  5 active torsions:
REMARK  status: ('A' for Active; 'I' for Inactive)
REMARK    1  A    between atoms: C_1  and  N_2
REMARK    2  A    between atoms: N_2  and  C_3
REMARK    3  A    between atoms: C_4  and  C_6
REMARK    4  A    between atoms: C_6  and  N_7
REMARK    5  A    between atoms: C_16  and  C_18
REMARK                            x       y       z     vdW  Elec       q    Type
REMARK                         _______ _______ _______ _____ _____    ______ ____
ROOT
ATOM      1  N   UNL     1       4.857   3.903  17.585  0.00  0.00    +0.000 N 
ATOM      2  C   UNL     1       4.978   4.176  16.231  0.00  0.00    +0.000 C 
ATOM      3  O   UNL     1       4.423   3.526  15.350  0.00  0.00    +0.000 OA
ATOM      4  C   UNL     1       5.787   5.431  15.935  0.00  0.00    +0.000 C 
ATOM      5  C   UNL     1       7.140   5.431  16.649  0.00  0.00    +0.000 C 
ATOM      6  C   UNL     1       7.060   4.862  18.059  0.00  0.00    +0.000 C 
ATOM      7  C   UNL     1       5.607   4.713  18.534  0.00  0.00    +0.000 C 
ATOM      8  C   UNL     1       4.939   6.094  18.766  0.00  0.00    +0.000 C 
ATOM      9  N   UNL     1       4.308   6.741  17.608  0.00  0.00    +0.000 N 
ATOM     10  C   UNL     1       3.280   7.702  17.711  0.00  0.00    +0.000 C 
ATOM     11  O   UNL     1       2.970   8.434  16.769  0.00  0.00    +0.000 OA
ATOM     12  C   UNL     1       4.951   6.671  16.283  0.00  0.00    +0.000 C 
ENDROOT
BRANCH  10  13
ATOM     13  C   UNL     1       2.423   7.803  18.924  0.00  0.00    +0.000 A 
ATOM     14  C   UNL     1       2.238   6.765  19.838  0.00  0.00    +0.000 A 
ATOM     15  C   UNL     1       1.358   6.917  20.919  0.00  0.00    +0.000 A 
ATOM     16  C   UNL     1       0.700   8.147  21.129  0.00  0.00    +0.000 A 
ATOM     17  N   UNL     1      -0.211   8.423  22.135  0.00  0.00    +0.000 NA
ATOM     18  C   UNL     1      -0.609   9.671  22.036  0.00  0.00    +0.000 A 
ATOM     19  S   UNL     1       0.079  10.592  20.769  0.00  0.00    +0.000 S 
ATOM     20  C   UNL     1       0.965   9.204  20.256  0.00  0.00    +0.000 A 
ATOM     21  C   UNL     1       1.830   9.058  19.159  0.00  0.00    +0.000 A 
ENDBRANCH  10  13
BRANCH   1  22
ATOM     22  C   UNL     1       3.851   2.954  18.059  0.00  0.00    +0.000 C 
BRANCH  22  26
ATOM     23  C   UNL     1       2.497   2.601  21.634  0.00  0.00    +0.000 C 
ATOM     24  N   UNL     1       2.614   2.977  20.236  0.00  0.00    +0.000 N 
ATOM     25  C   UNL     1       1.409   3.412  19.546  0.00  0.00    +0.000 C 
ATOM     26  C   UNL     1       3.829   2.726  19.586  0.00  0.00    +0.000 C 
ATOM     27  O   UNL     1       4.845   2.406  20.207  0.00  0.00    +0.000 OA
ENDBRANCH  22  26
ENDBRANCH   1  22
TORSDOF 3
ENDMDL
MODEL 6
REMARK VINA RESULT:      -7.3      1.645      1.924
REMARK  Name = 
REMARK  5 active torsions:
REMARK  status: ('A' for Active; 'I' for Inactive)
REMARK    1  A    between atoms: C_1  and  N_2
REMARK    2  A    between atoms: N_2  and  C_3
REMARK    3  A    between atoms: C_4  and  C_6
REMARK    4  A    between atoms: C_6  and  N_7
REMARK    5  A    between atoms: C_16  and  C_18
REMARK                            x       y       z     vdW  Elec       q    Type
REMARK                         _______ _______ _______ _____ _____    ______ ____
ROOT
ATOM      1  N   UNL     1       3.870   3.526  18.168  0.00  0.00    +0.000 N 
ATOM      2  C   UNL     1       4.022   2.909  19.400  0.00  0.00    +0.000 C 
ATOM      3  O   UNL     1       5.110   2.685  19.923  0.00  0.00    +0.000 OA
ATOM      4  C   UNL     1       2.703   2.623  20.102  0.00  0.00    +0.000 C 
ATOM      5  C   UNL     1       1.715   1.879  19.201  0.00  0.00    +0.000 C 
ATOM      6  C   UNL     1       1.748   2.374  17.761  0.00  0.00    +0.000 C 
ATOM      7  C   UNL     1       2.528   3.689  17.626  0.00  0.00    +0.000 C 
ATOM      8  C   UNL     1       1.777   4.869  18.295  0.00  0.00    +0.000 C 
ATOM      9  N   UNL     1       2.005   5.088  19.730  0.00  0.00    +0.000 N 
ATOM     10  C   UNL     1       1.817   6.329  20.374  0.00  0.00    +0.000 C 
ATOM     11  O   UNL     1       1.731   6.426  21.599  0.00  0.00    +0.000 OA
ATOM     12  C   UNL     1       2.116   3.935  20.642  0.00  0.00    +0.000 C 
ENDROOT
BRANCH  10  13
ATOM     13  C   UNL     1       1.838   7.612  19.619  0.00  0.00    +0.000 A 
ATOM     14  C   UNL     1       2.372   7.756  18.337  0.00  0.00    +0.000 A 
ATOM     15  C   UNL     1       2.417   9.015  17.722  0.00  0.00    +0.000 A 
ATOM     16  C   UNL     1       1.861  10.140  18.368  0.00  0.00    +0.000 A 
ATOM     17  N   UNL     1       1.862  11.438  17.889  0.00  0.00    +0.000 NA
ATOM     18  C   UNL     1       1.245  12.222  18.743  0.00  0.00    +0.000 A 
ATOM     19  S   UNL     1       0.614  11.472  20.146  0.00  0.00    +0.000 S 
ATOM     20  C   UNL     1       1.250   9.962  19.612  0.00  0.00    +0.000 A 
ATOM     21  C   UNL     1       1.217   8.708  20.246  0.00  0.00    +0.000 A 
ENDBRANCH  10  13
BRANCH   1  22
ATOM     22  C   UNL     1       5.010   4.172  17.520  0.00  0.00    +0.000 C 
BRANCH  22  26
ATOM     23  C   UNL     1       7.847   6.374  18.875  0.00  0.00    +0.000 C 
ATOM     24  N   UNL     1       7.139   5.283  18.229  0.00  0.00    +0.000 N 
ATOM     25  C   UNL     1       7.888   4.433  17.316  0.00  0.00    +0.000 C 
ATOM     26  C   UNL     1       5.748   5.223  18.377  0.00  0.00    +0.000 C 
ATOM     27  O   UNL     1       5.149   5.924  19.196  0.00  0.00    +0.000 OA
ENDBRANCH  22  26
ENDBRANCH   1  22
TORSDOF 3
ENDMDL
MODEL 7
REMARK VINA RESULT:      -7.2      6.624      9.111
REMARK  Name = 
REMARK  5 active torsions:
REMARK  status: ('A' for Active; 'I' for Inactive)
REMARK    1  A    between atoms: C_1  and  N_2
REMARK    2  A    between atoms: N_2  and  C_3
REMARK    3  A    between atoms: C_4  and  C_6
REMARK    4  A    between atoms: C_6  and  N_7
REMARK    5  A    between atoms: C_16  and  C_18
REMARK                            x       y       z     vdW  Elec       q    Type
REMARK                         _______ _______ _______ _____ _____    ______ ____
ROOT
ATOM      1  N   UNL     1      -1.100  11.746  19.287  0.00  0.00    +0.000 N 
ATOM      2  C   UNL     1      -0.341  12.859  18.959  0.00  0.00    +0.000 C 
ATOM      3  O   UNL     1      -0.513  13.529  17.945  0.00  0.00    +0.000 OA
ATOM      4  C   UNL     1       0.669  13.241  20.030  0.00  0.00    +0.000 C 
ATOM      5  C   UNL     1       1.536  12.056  20.460  0.00  0.00    +0.000 C 
ATOM      6  C   UNL     1       0.749  10.756  20.551  0.00  0.00    +0.000 C 
ATOM      7  C   UNL     1      -0.765  10.999  20.491  0.00  0.00    +0.000 C 
ATOM      8  C   UNL     1      -1.280  11.710  21.770  0.00  0.00    +0.000 C 
ATOM      9  N   UNL     1      -1.224  13.178  21.795  0.00  0.00    +0.000 N 
ATOM     10  C   UNL     1      -2.051  13.981  22.609  0.00  0.00    +0.000 C 
ATOM     11  O   UNL     1      -1.800  15.166  22.831  0.00  0.00    +0.000 OA
ATOM     12  C   UNL     1      -0.064  13.881  21.218  0.00  0.00    +0.000 C 
ENDROOT
BRANCH  10  13
ATOM     13  C   UNL     1      -3.345  13.477  23.145  0.00  0.00    +0.000 A 
ATOM     14  C   UNL     1      -3.517  12.987  24.440  0.00  0.00    +0.000 A 
ATOM     15  C   UNL     1      -4.753  12.466  24.846  0.00  0.00    +0.000 A 
ATOM     16  C   UNL     1      -5.857  12.494  23.967  0.00  0.00    +0.000 A 
ATOM     17  N   UNL     1      -7.120  11.991  24.229  0.00  0.00    +0.000 NA
ATOM     18  C   UNL     1      -7.900  12.203  23.193  0.00  0.00    +0.000 A 
ATOM     19  S   UNL     1      -7.196  13.021  21.865  0.00  0.00    +0.000 S 
ATOM     20  C   UNL     1      -5.692  13.070  22.706  0.00  0.00    +0.000 A 
ATOM     21  C   UNL     1      -4.452  13.578  22.282  0.00  0.00    +0.000 A 
ENDBRANCH  10  13
BRANCH   1  22
ATOM     22  C   UNL     1      -2.325  11.444  18.548  0.00  0.00    +0.000 C 
BRANCH  22  26
ATOM     23  C   UNL     1      -2.943   9.931  15.074  0.00  0.00    +0.000 C 
ATOM     24  N   UNL     1      -3.162  10.604  16.343  0.00  0.00    +0.000 N 
ATOM     25  C   UNL     1      -4.344  11.444  16.471  0.00  0.00    +0.000 C 
ATOM     26  C   UNL     1      -2.140  10.557  17.299  0.00  0.00    +0.000 C 
ATOM     27  O   UNL     1      -1.175   9.797  17.183  0.00  0.00    +0.000 OA
ENDBRANCH  22  26
ENDBRANCH   1  22
TORSDOF 3
ENDMDL
MODEL 8
REMARK VINA RESULT:      -7.0      1.466      1.703
REMARK  Name = 
REMARK  5 active torsions:
REMARK  status: ('A' for Active; 'I' for Inactive)
REMARK    1  A    between atoms: C_1  and  N_2
REMARK    2  A    between atoms: N_2  and  C_3
REMARK    3  A    between atoms: C_4  and  C_6
REMARK    4  A    between atoms: C_6  and  N_7
REMARK    5  A    between atoms: C_16  and  C_18
REMARK                            x       y       z     vdW  Elec       q    Type
REMARK                         _______ _______ _______ _____ _____    ______ ____
ROOT
ATOM      1  N   UNL     1       4.352   3.498  18.454  0.00  0.00    +0.000 N 
ATOM      2  C   UNL     1       4.229   2.847  19.672  0.00  0.00    +0.000 C 
ATOM      3  O   UNL     1       5.166   2.649  20.440  0.00  0.00    +0.000 OA
ATOM      4  C   UNL     1       2.793   2.487  20.025  0.00  0.00    +0.000 C 
ATOM      5  C   UNL     1       2.088   1.735  18.894  0.00  0.00    +0.000 C 
ATOM      6  C   UNL     1       2.447   2.278  17.516  0.00  0.00    +0.000 C 
ATOM      7  C   UNL     1       3.176   3.626  17.605  0.00  0.00    +0.000 C 
ATOM      8  C   UNL     1       2.232   4.754  18.096  0.00  0.00    +0.000 C 
ATOM      9  N   UNL     1       2.094   4.934  19.548  0.00  0.00    +0.000 N 
ATOM     10  C   UNL     1       1.699   6.145  20.155  0.00  0.00    +0.000 C 
ATOM     11  O   UNL     1       1.314   6.198  21.324  0.00  0.00    +0.000 OA
ATOM     12  C   UNL     1       2.033   3.757  20.434  0.00  0.00    +0.000 C 
ENDROOT
BRANCH  10  13
ATOM     13  C   UNL     1       1.845   7.452  19.457  0.00  0.00    +0.000 A 
ATOM     14  C   UNL     1       2.412   7.603  18.191  0.00  0.00    +0.000 A 
ATOM     15  C   UNL     1       2.576   8.878  17.631  0.00  0.00    +0.000 A 
ATOM     16  C   UNL     1       2.107  10.018  18.318  0.00  0.00    +0.000 A 
ATOM     17  N   UNL     1       2.229  11.331  17.895  0.00  0.00    +0.000 NA
ATOM     18  C   UNL     1       1.665  12.129  18.774  0.00  0.00    +0.000 A 
ATOM     19  S   UNL     1       0.946  11.377  20.133  0.00  0.00    +0.000 S 
ATOM     20  C   UNL     1       1.461   9.842  19.543  0.00  0.00    +0.000 A 
ATOM     21  C   UNL     1       1.308   8.571  20.122  0.00  0.00    +0.000 A 
ENDBRANCH  10  13
BRANCH   1  22
ATOM     22  C   UNL     1       5.585   4.208  18.118  0.00  0.00    +0.000 C 
BRANCH  22  26
ATOM     23  C   UNL     1       5.156   6.629  15.169  0.00  0.00    +0.000 C 
ATOM     24  N   UNL     1       5.509   5.454  15.947  0.00  0.00    +0.000 N 
ATOM     25  C   UNL     1       5.774   4.217  15.228  0.00  0.00    +0.000 C 
ATOM     26  C   UNL     1       5.394   5.528  17.341  0.00  0.00    +0.000 C 
ATOM     27  O   UNL     1       5.218   6.601  17.923  0.00  0.00    +0.000 OA
ENDBRANCH  22  26
ENDBRANCH   1  22
TORSDOF 3
ENDMDL
MODEL 9
REMARK VINA RESULT:      -6.8      6.259      8.510
REMARK  Name = 
REMARK  5 active torsions:
REMARK  status: ('A' for Active; 'I' for Inactive)
REMARK    1  A    between atoms: C_1  and  N_2
REMARK    2  A    between atoms: N_2  and  C_3
REMARK    3  A    between atoms: C_4  and  C_6
REMARK    4  A    between atoms: C_6  and  N_7
REMARK    5  A    between atoms: C_16  and  C_18
REMARK                            x       y       z     vdW  Elec       q    Type
REMARK                         _______ _______ _______ _____ _____    ______ ____
ROOT
ATOM      1  N   UNL     1      -0.174  12.855  18.698  0.00  0.00    +0.000 N 
ATOM      2  C   UNL     1       0.875  11.955  18.792  0.00  0.00    +0.000 C 
ATOM      3  O   UNL     1       2.059  12.275  18.730  0.00  0.00    +0.000 OA
ATOM      4  C   UNL     1       0.429  10.530  19.086  0.00  0.00    +0.000 C 
ATOM      5  C   UNL     1      -0.658  10.052  18.122  0.00  0.00    +0.000 C 
ATOM      6  C   UNL     1      -1.671  11.141  17.792  0.00  0.00    +0.000 C 
ATOM      7  C   UNL     1      -1.539  12.347  18.732  0.00  0.00    +0.000 C 
ATOM      8  C   UNL     1      -1.987  11.998  20.175  0.00  0.00    +0.000 C 
ATOM      9  N   UNL     1      -0.979  11.414  21.071  0.00  0.00    +0.000 N 
ATOM     10  C   UNL     1      -1.046  11.484  22.479  0.00  0.00    +0.000 C 
ATOM     11  O   UNL     1      -0.367  10.757  23.205  0.00  0.00    +0.000 OA
ATOM     12  C   UNL     1      -0.015  10.426  20.552  0.00  0.00    +0.000 C 
ENDROOT
BRANCH  10  13
ATOM     13  C   UNL     1      -1.850  12.529  23.172  0.00  0.00    +0.000 A 
ATOM     14  C   UNL     1      -3.183  12.367  23.549  0.00  0.00    +0.000 A 
ATOM     15  C   UNL     1      -3.891  13.426  24.136  0.00  0.00    +0.000 A 
ATOM     16  C   UNL     1      -3.239  14.647  24.411  0.00  0.00    +0.000 A 
ATOM     17  N   UNL     1      -3.822  15.776  24.959  0.00  0.00    +0.000 NA
ATOM     18  C   UNL     1      -2.916  16.718  25.089  0.00  0.00    +0.000 A 
ATOM     19  S   UNL     1      -1.327  16.321  24.593  0.00  0.00    +0.000 S 
ATOM     20  C   UNL     1      -1.880  14.762  24.109  0.00  0.00    +0.000 A 
ATOM     21  C   UNL     1      -1.166  13.714  23.504  0.00  0.00    +0.000 A 
ENDBRANCH  10  13
BRANCH   1  22
ATOM     22  C   UNL     1       0.079  14.294  18.759  0.00  0.00    +0.000 C 
BRANCH  22  26
ATOM     23  C   UNL     1       2.770  16.130  20.790  0.00  0.00    +0.000 C 
ATOM     24  N   UNL     1       2.061  15.515  19.682  0.00  0.00    +0.000 N 
ATOM     25  C   UNL     1       2.472  15.868  18.331  0.00  0.00    +0.000 C 
ATOM     26  C   UNL     1       0.913  14.765  19.969  0.00  0.00    +0.000 C 
ATOM     27  O   UNL     1       0.620  14.440  21.122  0.00  0.00    +0.000 OA
ENDBRANCH  22  26
ENDBRANCH   1  22
TORSDOF 3
ENDMDL
