MODEL 1
REMARK VINA RESULT:      -6.6      0.000      0.000
REMARK  Name = 
REMARK  10 active torsions:
REMARK  status: ('A' for Active; 'I' for Inactive)
REMARK    1  A    between atoms: C_1  and  O_2
REMARK    2  A    between atoms: O_2  and  C_3
REMARK    3  A    between atoms: C_3  and  C_5
REMARK    4  A    between atoms: N_7  and  C_8
REMARK    5  A    between atoms: C_10  and  C_11
REMARK    6  A    between atoms: C_13  and  C_14
REMARK    7  A    between atoms: C_17  and  C_18
REMARK    8  A    between atoms: C_18  and  O_20
REMARK    9  A    between atoms: O_20  and  C_21
REMARK   10  A    between atoms: C_22  and  C_23
REMARK                            x       y       z     vdW  Elec       q    Type
REMARK                         _______ _______ _______ _____ _____    ______ ____
ROOT
ATOM      1  C   UNL     1       3.931   6.647  17.869  0.00  0.00    +0.000 C 
ATOM      2  C   UNL     1       3.228   7.794  17.754  0.00  0.00    +0.000 C 
ATOM      3  N   UNL     1       2.217   8.194  18.624  0.00  0.00    +0.000 N 
ATOM      4  C   UNL     1       1.782   7.264  19.561  0.00  0.00    +0.000 C 
ATOM      5  C   UNL     1       2.374   6.074  19.786  0.00  0.00    +0.000 C 
ATOM      6  C   UNL     1       3.662   5.699  19.047  0.00  0.00    +0.000 C 
ENDROOT
BRANCH   3   7
ATOM      7  C   UNL     1       1.644   9.511  18.568  0.00  0.00    +0.000 A 
ATOM      8  C   UNL     1       2.436  10.653  18.368  0.00  0.00    +0.000 A 
ATOM      9  C   UNL     1       1.877  11.938  18.325  0.00  0.00    +0.000 A 
ATOM     10  C   UNL     1       2.748  13.140  18.105  0.00  0.00    +0.000 C 
ATOM     11  C   UNL     1       0.493  12.091  18.474  0.00  0.00    +0.000 A 
ATOM     12  C   UNL     1      -0.325  10.980  18.673  0.00  0.00    +0.000 A 
ATOM     13  C   UNL     1      -1.809  11.125  18.831  0.00  0.00    +0.000 C 
ATOM     14  C   UNL     1       0.258   9.703  18.725  0.00  0.00    +0.000 A 
ENDBRANCH   3   7
BRANCH   6  15
ATOM     15  C   UNL     1       3.758   4.218  18.699  0.00  0.00    +0.000 A 
ATOM     16  C   UNL     1       3.123   3.745  17.530  0.00  0.00    +0.000 A 
ATOM     17  C   UNL     1       3.161   2.389  17.188  0.00  0.00    +0.000 A 
ATOM     18  C   UNL     1       3.838   1.491  18.004  0.00  0.00    +0.000 A 
ATOM     19  C   UNL     1       4.472   1.954  19.153  0.00  0.00    +0.000 A 
ATOM     20  F   UNL     1       5.128   1.085  19.935  0.00  0.00    +0.000 F 
ATOM     21  C   UNL     1       4.438   3.301  19.510  0.00  0.00    +0.000 A 
ENDBRANCH   6  15
BRANCH   1  22
ATOM     22  C   UNL     1       4.995   6.368  16.864  0.00  0.00    +0.000 C 
ATOM     23  O   UNL     1       4.841   6.371  15.655  0.00  0.00    +0.000 OA
BRANCH  22  25
ATOM     24  C   UNL     1       6.923   5.016  16.921  0.00  0.00    +0.000 C 
ATOM     25  O   UNL     1       6.175   6.092  17.487  0.00  0.00    +0.000 OA
ENDBRANCH  22  25
ENDBRANCH   1  22
BRANCH   5  26
ATOM     26  C   UNL     1       1.784   5.178  20.812  0.00  0.00    +0.000 C 
ATOM     27  O   UNL     1       2.279   4.962  21.905  0.00  0.00    +0.000 OA
BRANCH  26  28
ATOM     28  O   UNL     1       0.630   4.634  20.341  0.00  0.00    +0.000 OA
ATOM     29  C   UNL     1       0.623   3.216  20.164  0.00  0.00    +0.000 C 
ENDBRANCH  26  28
ENDBRANCH   5  26
TORSDOF 6
ENDMDL
MODEL 2
REMARK VINA RESULT:      -6.5      0.057      1.599
REMARK  Name = 
REMARK  10 active torsions:
REMARK  status: ('A' for Active; 'I' for Inactive)
REMARK    1  A    between atoms: C_1  and  O_2
REMARK    2  A    between atoms: O_2  and  C_3
REMARK    3  A    between atoms: C_3  and  C_5
REMARK    4  A    between atoms: N_7  and  C_8
REMARK    5  A    between atoms: C_10  and  C_11
REMARK    6  A    between atoms: C_13  and  C_14
REMARK    7  A    between atoms: C_17  and  C_18
REMARK    8  A    between atoms: C_18  and  O_20
REMARK    9  A    between atoms: O_20  and  C_21
REMARK   10  A    between atoms: C_22  and  C_23
REMARK                            x       y       z     vdW  Elec       q    Type
REMARK                         _______ _______ _______ _____ _____    ______ ____
ROOT
ATOM      1  C   UNL     1       3.910   6.680  17.881  0.00  0.00    +0.000 C 
ATOM      2  C   UNL     1       3.202   7.825  17.779  0.00  0.00    +0.000 C 
ATOM      3  N   UNL     1       2.192   8.213  18.655  0.00  0.00    +0.000 N 
ATOM      4  C   UNL     1       1.764   7.274  19.586  0.00  0.00    +0.000 C 
ATOM      5  C   UNL     1       2.362   6.085  19.799  0.00  0.00    +0.000 C 
ATOM      6  C   UNL     1       3.649   5.721  19.053  0.00  0.00    +0.000 C 
ENDROOT
BRANCH   3   7
ATOM      7  C   UNL     1       1.614   9.528  18.612  0.00  0.00    +0.000 A 
ATOM      8  C   UNL     1       0.234   9.735  18.778  0.00  0.00    +0.000 A 
ATOM      9  C   UNL     1      -0.329  11.017  18.725  0.00  0.00    +0.000 A 
ATOM     10  C   UNL     1      -1.806  11.207  18.909  0.00  0.00    +0.000 C 
ATOM     11  C   UNL     1       0.501  12.125  18.513  0.00  0.00    +0.000 A 
ATOM     12  C   UNL     1       1.874  11.959  18.347  0.00  0.00    +0.000 A 
ATOM     13  C   UNL     1       2.779  13.134  18.123  0.00  0.00    +0.000 C 
ATOM     14  C   UNL     1       2.417  10.664  18.390  0.00  0.00    +0.000 A 
ENDBRANCH   3   7
BRANCH   6  15
ATOM     15  C   UNL     1       3.750   4.243  18.692  0.00  0.00    +0.000 A 
ATOM     16  C   UNL     1       3.124   3.780  17.515  0.00  0.00    +0.000 A 
ATOM     17  C   UNL     1       3.166   2.427  17.161  0.00  0.00    +0.000 A 
ATOM     18  C   UNL     1       3.841   1.523  17.973  0.00  0.00    +0.000 A 
ATOM     19  C   UNL     1       4.466   1.977  19.130  0.00  0.00    +0.000 A 
ATOM     20  F   UNL     1       5.119   1.102  19.909  0.00  0.00    +0.000 F 
ATOM     21  C   UNL     1       4.428   3.320  19.499  0.00  0.00    +0.000 A 
ENDBRANCH   6  15
BRANCH   1  22
ATOM     22  C   UNL     1       4.972   6.413  16.871  0.00  0.00    +0.000 C 
ATOM     23  O   UNL     1       4.805   6.384  15.664  0.00  0.00    +0.000 OA
BRANCH  22  25
ATOM     24  C   UNL     1       6.974   5.172  16.896  0.00  0.00    +0.000 C 
ATOM     25  O   UNL     1       6.167   6.191  17.486  0.00  0.00    +0.000 OA
ENDBRANCH  22  25
ENDBRANCH   1  22
BRANCH   5  26
ATOM     26  C   UNL     1       1.779   5.178  20.819  0.00  0.00    +0.000 C 
ATOM     27  O   UNL     1       2.289   4.938  21.900  0.00  0.00    +0.000 OA
BRANCH  26  28
ATOM     28  O   UNL     1       0.612   4.653  20.358  0.00  0.00    +0.000 OA
ATOM     29  C   UNL     1       0.603   3.246  20.111  0.00  0.00    +0.000 C 
ENDBRANCH  26  28
ENDBRANCH   5  26
TORSDOF 6
ENDMDL
MODEL 3
REMARK VINA RESULT:      -6.4      1.558      2.122
REMARK  Name = 
REMARK  10 active torsions:
REMARK  status: ('A' for Active; 'I' for Inactive)
REMARK    1  A    between atoms: C_1  and  O_2
REMARK    2  A    between atoms: O_2  and  C_3
REMARK    3  A    between atoms: C_3  and  C_5
REMARK    4  A    between atoms: N_7  and  C_8
REMARK    5  A    between atoms: C_10  and  C_11
REMARK    6  A    between atoms: C_13  and  C_14
REMARK    7  A    between atoms: C_17  and  C_18
REMARK    8  A    between atoms: C_18  and  O_20
REMARK    9  A    between atoms: O_20  and  C_21
REMARK   10  A    between atoms: C_22  and  C_23
REMARK                            x       y       z     vdW  Elec       q    Type
REMARK                         _______ _______ _______ _____ _____    ______ ____
ROOT
ATOM      1  C   UNL     1       3.661   6.243  18.875  0.00  0.00    +0.000 C 
ATOM      2  C   UNL     1       2.864   7.316  19.071  0.00  0.00    +0.000 C 
ATOM      3  N   UNL     1       1.871   7.398  20.043  0.00  0.00    +0.000 N 
ATOM      4  C   UNL     1       1.560   6.231  20.733  0.00  0.00    +0.000 C 
ATOM      5  C   UNL     1       2.255   5.080  20.636  0.00  0.00    +0.000 C 
ATOM      6  C   UNL     1       3.529   5.014  19.788  0.00  0.00    +0.000 C 
ENDROOT
BRANCH   3   7
ATOM      7  C   UNL     1       1.194   8.631  20.335  0.00  0.00    +0.000 A 
ATOM      8  C   UNL     1       0.531   8.840  21.555  0.00  0.00    +0.000 A 
ATOM      9  C   UNL     1      -0.137  10.041  21.833  0.00  0.00    +0.000 A 
ATOM     10  C   UNL     1      -0.834  10.236  23.148  0.00  0.00    +0.000 C 
ATOM     11  C   UNL     1      -0.138  11.064  20.878  0.00  0.00    +0.000 A 
ATOM     12  C   UNL     1       0.510  10.894  19.657  0.00  0.00    +0.000 A 
ATOM     13  C   UNL     1       0.522  11.981  18.623  0.00  0.00    +0.000 C 
ATOM     14  C   UNL     1       1.163   9.678  19.393  0.00  0.00    +0.000 A 
ENDBRANCH   3   7
BRANCH   6  15
ATOM     15  C   UNL     1       3.723   3.679  19.080  0.00  0.00    +0.000 A 
ATOM     16  C   UNL     1       3.188   3.504  17.786  0.00  0.00    +0.000 A 
ATOM     17  C   UNL     1       3.317   2.285  17.111  0.00  0.00    +0.000 A 
ATOM     18  C   UNL     1       3.989   1.230  17.716  0.00  0.00    +0.000 A 
ATOM     19  C   UNL     1       4.526   1.401  18.988  0.00  0.00    +0.000 A 
ATOM     20  F   UNL     1       5.178   0.382  19.567  0.00  0.00    +0.000 F 
ATOM     21  C   UNL     1       4.400   2.607  19.675  0.00  0.00    +0.000 A 
ENDBRANCH   6  15
BRANCH   1  22
ATOM     22  C   UNL     1       4.690   6.315  17.801  0.00  0.00    +0.000 C 
ATOM     23  O   UNL     1       4.471   6.575  16.631  0.00  0.00    +0.000 OA
BRANCH  22  25
ATOM     24  C   UNL     1       7.018   6.610  17.594  0.00  0.00    +0.000 C 
ATOM     25  O   UNL     1       5.924   6.034  18.306  0.00  0.00    +0.000 OA
ENDBRANCH  22  25
ENDBRANCH   1  22
BRANCH   5  26
ATOM     26  C   UNL     1       1.792   3.911  21.424  0.00  0.00    +0.000 C 
ATOM     27  O   UNL     1       2.389   3.441  22.377  0.00  0.00    +0.000 OA
BRANCH  26  28
ATOM     28  O   UNL     1       0.620   3.445  20.913  0.00  0.00    +0.000 OA
ATOM     29  C   UNL     1       0.724   2.483  19.862  0.00  0.00    +0.000 C 
ENDBRANCH  26  28
ENDBRANCH   5  26
TORSDOF 6
ENDMDL
MODEL 4
REMARK VINA RESULT:      -6.3      1.511      1.675
REMARK  Name = 
REMARK  10 active torsions:
REMARK  status: ('A' for Active; 'I' for Inactive)
REMARK    1  A    between atoms: C_1  and  O_2
REMARK    2  A    between atoms: O_2  and  C_3
REMARK    3  A    between atoms: C_3  and  C_5
REMARK    4  A    between atoms: N_7  and  C_8
REMARK    5  A    between atoms: C_10  and  C_11
REMARK    6  A    between atoms: C_13  and  C_14
REMARK    7  A    between atoms: C_17  and  C_18
REMARK    8  A    between atoms: C_18  and  O_20
REMARK    9  A    between atoms: O_20  and  C_21
REMARK   10  A    between atoms: C_22  and  C_23
REMARK                            x       y       z     vdW  Elec       q    Type
REMARK                         _______ _______ _______ _____ _____    ______ ____
ROOT
ATOM      1  C   UNL     1       3.600   6.402  18.763  0.00  0.00    +0.000 C 
ATOM      2  C   UNL     1       2.826   7.488  18.978  0.00  0.00    +0.000 C 
ATOM      3  N   UNL     1       1.836   7.576  19.952  0.00  0.00    +0.000 N 
ATOM      4  C   UNL     1       1.501   6.405  20.624  0.00  0.00    +0.000 C 
ATOM      5  C   UNL     1       2.171   5.241  20.508  0.00  0.00    +0.000 C 
ATOM      6  C   UNL     1       3.442   5.162  19.657  0.00  0.00    +0.000 C 
ENDROOT
BRANCH   3   7
ATOM      7  C   UNL     1       1.186   8.818  20.264  0.00  0.00    +0.000 A 
ATOM      8  C   UNL     1       1.197   9.903  19.372  0.00  0.00    +0.000 A 
ATOM      9  C   UNL     1       0.572  11.118  19.683  0.00  0.00    +0.000 A 
ATOM     10  C   UNL     1       0.598  12.259  18.708  0.00  0.00    +0.000 C 
ATOM     11  C   UNL     1      -0.092  11.256  20.908  0.00  0.00    +0.000 A 
ATOM     12  C   UNL     1      -0.127  10.201  21.817  0.00  0.00    +0.000 A 
ATOM     13  C   UNL     1      -0.837  10.329  23.132  0.00  0.00    +0.000 C 
ATOM     14  C   UNL     1       0.517   8.996  21.491  0.00  0.00    +0.000 A 
ENDBRANCH   3   7
BRANCH   6  15
ATOM     15  C   UNL     1       3.608   3.834  18.927  0.00  0.00    +0.000 A 
ATOM     16  C   UNL     1       3.067   3.691  17.631  0.00  0.00    +0.000 A 
ATOM     17  C   UNL     1       3.169   2.481  16.937  0.00  0.00    +0.000 A 
ATOM     18  C   UNL     1       3.820   1.402  17.525  0.00  0.00    +0.000 A 
ATOM     19  C   UNL     1       4.362   1.541  18.799  0.00  0.00    +0.000 A 
ATOM     20  F   UNL     1       4.992   0.500  19.360  0.00  0.00    +0.000 F 
ATOM     21  C   UNL     1       4.263   2.738  19.505  0.00  0.00    +0.000 A 
ENDBRANCH   6  15
BRANCH   1  22
ATOM     22  C   UNL     1       4.629   6.469  17.688  0.00  0.00    +0.000 C 
ATOM     23  O   UNL     1       4.423   6.805  16.535  0.00  0.00    +0.000 OA
BRANCH  22  25
ATOM     24  C   UNL     1       6.630   5.295  17.280  0.00  0.00    +0.000 C 
ATOM     25  O   UNL     1       5.845   6.086  18.171  0.00  0.00    +0.000 OA
ENDBRANCH  22  25
ENDBRANCH   1  22
BRANCH   5  26
ATOM     26  C   UNL     1       1.684   4.070  21.278  0.00  0.00    +0.000 C 
ATOM     27  O   UNL     1       2.250   3.601  22.251  0.00  0.00    +0.000 OA
BRANCH  26  28
ATOM     28  O   UNL     1       0.532   3.601  20.727  0.00  0.00    +0.000 OA
ATOM     29  C   UNL     1       0.658   2.477  19.855  0.00  0.00    +0.000 C 
ENDBRANCH  26  28
ENDBRANCH   5  26
TORSDOF 6
ENDMDL
MODEL 5
REMARK VINA RESULT:      -6.0      3.616      7.479
REMARK  Name = 
REMARK  10 active torsions:
REMARK  status: ('A' for Active; 'I' for Inactive)
REMARK    1  A    between atoms: C_1  and  O_2
REMARK    2  A    between atoms: O_2  and  C_3
REMARK    3  A    between atoms: C_3  and  C_5
REMARK    4  A    between atoms: N_7  and  C_8
REMARK    5  A    between atoms: C_10  and  C_11
REMARK    6  A    between atoms: C_13  and  C_14
REMARK    7  A    between atoms: C_17  and  C_18
REMARK    8  A    between atoms: C_18  and  O_20
REMARK    9  A    between atoms: O_20  and  C_21
REMARK   10  A    between atoms: C_22  and  C_23
REMARK                            x       y       z     vdW  Elec       q    Type
REMARK                         _______ _______ _______ _____ _____    ______ ____
ROOT
ATOM      1  C   UNL     1       3.522   3.913  16.990  0.00  0.00    +0.000 C 
ATOM      2  C   UNL     1       4.097   3.954  15.768  0.00  0.00    +0.000 C 
ATOM      3  N   UNL     1       5.382   4.424  15.512  0.00  0.00    +0.000 N 
ATOM      4  C   UNL     1       6.045   5.059  16.556  0.00  0.00    +0.000 C 
ATOM      5  C   UNL     1       5.596   5.110  17.826  0.00  0.00    +0.000 C 
ATOM      6  C   UNL     1       4.316   4.369  18.224  0.00  0.00    +0.000 C 
ENDROOT
BRANCH   3   7
ATOM      7  C   UNL     1       6.009   4.258  14.231  0.00  0.00    +0.000 A 
ATOM      8  C   UNL     1       5.681   3.190  13.379  0.00  0.00    +0.000 A 
ATOM      9  C   UNL     1       6.302   3.023  12.134  0.00  0.00    +0.000 A 
ATOM     10  C   UNL     1       5.928   1.874  11.244  0.00  0.00    +0.000 C 
ATOM     11  C   UNL     1       7.267   3.949  11.718  0.00  0.00    +0.000 A 
ATOM     12  C   UNL     1       7.617   5.022  12.534  0.00  0.00    +0.000 A 
ATOM     13  C   UNL     1       8.646   6.025  12.103  0.00  0.00    +0.000 C 
ATOM     14  C   UNL     1       6.991   5.163  13.784  0.00  0.00    +0.000 A 
ENDBRANCH   3   7
BRANCH   6  15
ATOM     15  C   UNL     1       3.486   5.102  19.272  0.00  0.00    +0.000 A 
ATOM     16  C   UNL     1       3.107   4.419  20.447  0.00  0.00    +0.000 A 
ATOM     17  C   UNL     1       2.320   5.043  21.421  0.00  0.00    +0.000 A 
ATOM     18  C   UNL     1       1.910   6.358  21.237  0.00  0.00    +0.000 A 
ATOM     19  C   UNL     1       2.288   7.038  20.083  0.00  0.00    +0.000 A 
ATOM     20  F   UNL     1       1.894   8.308  19.911  0.00  0.00    +0.000 F 
ATOM     21  C   UNL     1       3.066   6.427  19.102  0.00  0.00    +0.000 A 
ENDBRANCH   6  15
BRANCH   1  22
ATOM     22  C   UNL     1       2.140   3.368  17.103  0.00  0.00    +0.000 C 
ATOM     23  O   UNL     1       1.115   4.006  16.937  0.00  0.00    +0.000 OA
BRANCH  22  25
ATOM     24  C   UNL     1       1.553   1.713  18.672  0.00  0.00    +0.000 C 
ATOM     25  O   UNL     1       2.177   2.047  17.434  0.00  0.00    +0.000 OA
ENDBRANCH  22  25
ENDBRANCH   1  22
BRANCH   5  26
ATOM     26  C   UNL     1       6.408   5.840  18.830  0.00  0.00    +0.000 C 
ATOM     27  O   UNL     1       6.684   5.412  19.938  0.00  0.00    +0.000 OA
BRANCH  26  28
ATOM     28  O   UNL     1       6.779   7.051  18.333  0.00  0.00    +0.000 OA
ATOM     29  C   UNL     1       8.158   7.396  18.468  0.00  0.00    +0.000 C 
ENDBRANCH  26  28
ENDBRANCH   5  26
TORSDOF 6
ENDMDL
MODEL 6
REMARK VINA RESULT:      -6.0      3.622      7.325
REMARK  Name = 
REMARK  10 active torsions:
REMARK  status: ('A' for Active; 'I' for Inactive)
REMARK    1  A    between atoms: C_1  and  O_2
REMARK    2  A    between atoms: O_2  and  C_3
REMARK    3  A    between atoms: C_3  and  C_5
REMARK    4  A    between atoms: N_7  and  C_8
REMARK    5  A    between atoms: C_10  and  C_11
REMARK    6  A    between atoms: C_13  and  C_14
REMARK    7  A    between atoms: C_17  and  C_18
REMARK    8  A    between atoms: C_18  and  O_20
REMARK    9  A    between atoms: O_20  and  C_21
REMARK   10  A    between atoms: C_22  and  C_23
REMARK                            x       y       z     vdW  Elec       q    Type
REMARK                         _______ _______ _______ _____ _____    ______ ____
ROOT
ATOM      1  C   UNL     1       3.545   3.921  16.987  0.00  0.00    +0.000 C 
ATOM      2  C   UNL     1       4.128   3.975  15.771  0.00  0.00    +0.000 C 
ATOM      3  N   UNL     1       5.414   4.450  15.529  0.00  0.00    +0.000 N 
ATOM      4  C   UNL     1       6.068   5.076  16.584  0.00  0.00    +0.000 C 
ATOM      5  C   UNL     1       5.609   5.113  17.851  0.00  0.00    +0.000 C 
ATOM      6  C   UNL     1       4.328   4.366  18.232  0.00  0.00    +0.000 C 
ENDROOT
BRANCH   3   7
ATOM      7  C   UNL     1       6.052   4.298  14.251  0.00  0.00    +0.000 A 
ATOM      8  C   UNL     1       7.027   5.202  13.798  0.00  0.00    +0.000 A 
ATOM      9  C   UNL     1       7.640   5.058  12.546  0.00  0.00    +0.000 A 
ATOM     10  C   UNL     1       8.681   6.039  12.091  0.00  0.00    +0.000 C 
ATOM     11  C   UNL     1       7.283   3.981  11.726  0.00  0.00    +0.000 A 
ATOM     12  C   UNL     1       6.322   3.062  12.142  0.00  0.00    +0.000 A 
ATOM     13  C   UNL     1       5.930   1.900  11.278  0.00  0.00    +0.000 C 
ATOM     14  C   UNL     1       5.711   3.232  13.395  0.00  0.00    +0.000 A 
ENDBRANCH   3   7
BRANCH   6  15
ATOM     15  C   UNL     1       3.488   5.087  19.281  0.00  0.00    +0.000 A 
ATOM     16  C   UNL     1       3.092   4.388  20.442  0.00  0.00    +0.000 A 
ATOM     17  C   UNL     1       2.297   5.001  21.415  0.00  0.00    +0.000 A 
ATOM     18  C   UNL     1       1.894   6.321  21.245  0.00  0.00    +0.000 A 
ATOM     19  C   UNL     1       2.288   7.015  20.106  0.00  0.00    +0.000 A 
ATOM     20  F   UNL     1       1.901   8.289  19.948  0.00  0.00    +0.000 F 
ATOM     21  C   UNL     1       3.076   6.416  19.125  0.00  0.00    +0.000 A 
ENDBRANCH   6  15
BRANCH   1  22
ATOM     22  C   UNL     1       2.163   3.372  17.085  0.00  0.00    +0.000 C 
ATOM     23  O   UNL     1       1.137   4.020  16.970  0.00  0.00    +0.000 OA
BRANCH  22  25
ATOM     24  C   UNL     1       1.786   1.647  18.644  0.00  0.00    +0.000 C 
ATOM     25  O   UNL     1       2.201   2.033  17.334  0.00  0.00    +0.000 OA
ENDBRANCH  22  25
ENDBRANCH   1  22
BRANCH   5  26
ATOM     26  C   UNL     1       6.412   5.836  18.869  0.00  0.00    +0.000 C 
ATOM     27  O   UNL     1       6.677   5.398  19.976  0.00  0.00    +0.000 OA
BRANCH  26  28
ATOM     28  O   UNL     1       6.788   7.050  18.385  0.00  0.00    +0.000 OA
ATOM     29  C   UNL     1       8.174   7.376  18.496  0.00  0.00    +0.000 C 
ENDBRANCH  26  28
ENDBRANCH   5  26
TORSDOF 6
ENDMDL
MODEL 7
REMARK VINA RESULT:      -5.8      5.502      8.815
REMARK  Name = 
REMARK  10 active torsions:
REMARK  status: ('A' for Active; 'I' for Inactive)
REMARK    1  A    between atoms: C_1  and  O_2
REMARK    2  A    between atoms: O_2  and  C_3
REMARK    3  A    between atoms: C_3  and  C_5
REMARK    4  A    between atoms: N_7  and  C_8
REMARK    5  A    between atoms: C_10  and  C_11
REMARK    6  A    between atoms: C_13  and  C_14
REMARK    7  A    between atoms: C_17  and  C_18
REMARK    8  A    between atoms: C_18  and  O_20
REMARK    9  A    between atoms: O_20  and  C_21
REMARK   10  A    between atoms: C_22  and  C_23
REMARK                            x       y       z     vdW  Elec       q    Type
REMARK                         _______ _______ _______ _____ _____    ______ ____
ROOT
ATOM      1  C   UNL     1      -2.842  11.461  18.666  0.00  0.00    +0.000 C 
ATOM      2  C   UNL     1      -3.998  11.936  19.177  0.00  0.00    +0.000 C 
ATOM      3  N   UNL     1      -4.084  12.854  20.221  0.00  0.00    +0.000 N 
ATOM      4  C   UNL     1      -2.908  13.157  20.897  0.00  0.00    +0.000 C 
ATOM      5  C   UNL     1      -1.681  12.750  20.515  0.00  0.00    +0.000 C 
ATOM      6  C   UNL     1      -1.498  11.966  19.212  0.00  0.00    +0.000 C 
ENDROOT
BRANCH   3   7
ATOM      7  C   UNL     1      -5.328  13.472  20.587  0.00  0.00    +0.000 A 
ATOM      8  C   UNL     1      -5.935  14.447  19.780  0.00  0.00    +0.000 A 
ATOM      9  C   UNL     1      -7.144  15.057  20.144  0.00  0.00    +0.000 A 
ATOM     10  C   UNL     1      -7.770  16.094  19.258  0.00  0.00    +0.000 C 
ATOM     11  C   UNL     1      -7.772  14.679  21.337  0.00  0.00    +0.000 A 
ATOM     12  C   UNL     1      -7.201  13.713  22.163  0.00  0.00    +0.000 A 
ATOM     13  C   UNL     1      -7.861  13.294  23.443  0.00  0.00    +0.000 C 
ATOM     14  C   UNL     1      -5.983  13.124  21.785  0.00  0.00    +0.000 A 
ENDBRANCH   3   7
BRANCH   6  15
ATOM     15  C   UNL     1      -0.408  10.902  19.287  0.00  0.00    +0.000 A 
ATOM     16  C   UNL     1       0.600  10.883  18.300  0.00  0.00    +0.000 A 
ATOM     17  C   UNL     1       1.602   9.906  18.314  0.00  0.00    +0.000 A 
ATOM     18  C   UNL     1       1.613   8.944  19.316  0.00  0.00    +0.000 A 
ATOM     19  C   UNL     1       0.626   8.964  20.296  0.00  0.00    +0.000 A 
ATOM     20  F   UNL     1       0.642   8.037  21.264  0.00  0.00    +0.000 F 
ATOM     21  C   UNL     1      -0.382   9.927  20.292  0.00  0.00    +0.000 A 
ENDBRANCH   6  15
BRANCH   1  22
ATOM     22  C   UNL     1      -2.915  10.492  17.536  0.00  0.00    +0.000 C 
ATOM     23  O   UNL     1      -3.333   9.349  17.614  0.00  0.00    +0.000 OA
BRANCH  22  25
ATOM     24  C   UNL     1      -3.217  10.822  15.223  0.00  0.00    +0.000 C 
ATOM     25  O   UNL     1      -2.435  11.057  16.394  0.00  0.00    +0.000 OA
ENDBRANCH  22  25
ENDBRANCH   1  22
BRANCH   5  26
ATOM     26  C   UNL     1      -0.519  13.142  21.350  0.00  0.00    +0.000 C 
ATOM     27  O   UNL     1      -0.307  12.725  22.476  0.00  0.00    +0.000 OA
BRANCH  26  28
ATOM     28  O   UNL     1       0.254  14.036  20.676  0.00  0.00    +0.000 OA
ATOM     29  C   UNL     1       0.083  15.411  21.024  0.00  0.00    +0.000 C 
ENDBRANCH  26  28
ENDBRANCH   5  26
TORSDOF 6
ENDMDL
MODEL 8
REMARK VINA RESULT:      -5.8      5.569      8.943
REMARK  Name = 
REMARK  10 active torsions:
REMARK  status: ('A' for Active; 'I' for Inactive)
REMARK    1  A    between atoms: C_1  and  O_2
REMARK    2  A    between atoms: O_2  and  C_3
REMARK    3  A    between atoms: C_3  and  C_5
REMARK    4  A    between atoms: N_7  and  C_8
REMARK    5  A    between atoms: C_10  and  C_11
REMARK    6  A    between atoms: C_13  and  C_14
REMARK    7  A    between atoms: C_17  and  C_18
REMARK    8  A    between atoms: C_18  and  O_20
REMARK    9  A    between atoms: O_20  and  C_21
REMARK   10  A    between atoms: C_22  and  C_23
REMARK                            x       y       z     vdW  Elec       q    Type
REMARK                         _______ _______ _______ _____ _____    ______ ____
ROOT
ATOM      1  C   UNL     1      -2.968  11.640  18.854  0.00  0.00    +0.000 C 
ATOM      2  C   UNL     1      -4.095  12.116  19.425  0.00  0.00    +0.000 C 
ATOM      3  N   UNL     1      -4.127  13.014  20.489  0.00  0.00    +0.000 N 
ATOM      4  C   UNL     1      -2.920  13.293  21.119  0.00  0.00    +0.000 C 
ATOM      5  C   UNL     1      -1.715  12.882  20.675  0.00  0.00    +0.000 C 
ATOM      6  C   UNL     1      -1.596  12.122  19.351  0.00  0.00    +0.000 C 
ENDROOT
BRANCH   3   7
ATOM      7  C   UNL     1      -5.347  13.636  20.921  0.00  0.00    +0.000 A 
ATOM      8  C   UNL     1      -5.906  13.372  22.182  0.00  0.00    +0.000 A 
ATOM      9  C   UNL     1      -7.102  13.972  22.598  0.00  0.00    +0.000 A 
ATOM     10  C   UNL     1      -7.673  13.673  23.953  0.00  0.00    +0.000 C 
ATOM     11  C   UNL     1      -7.756  14.867  21.742  0.00  0.00    +0.000 A 
ATOM     12  C   UNL     1      -7.231  15.155  20.484  0.00  0.00    +0.000 A 
ATOM     13  C   UNL     1      -7.916  16.114  19.555  0.00  0.00    +0.000 C 
ATOM     14  C   UNL     1      -6.038  14.533  20.082  0.00  0.00    +0.000 A 
ENDBRANCH   3   7
BRANCH   6  15
ATOM     15  C   UNL     1      -0.515  11.047  19.357  0.00  0.00    +0.000 A 
ATOM     16  C   UNL     1       0.471  11.059  18.347  0.00  0.00    +0.000 A 
ATOM     17  C   UNL     1       1.463  10.074  18.298  0.00  0.00    +0.000 A 
ATOM     18  C   UNL     1       1.488   9.072  19.261  0.00  0.00    +0.000 A 
ATOM     19  C   UNL     1       0.523   9.061  20.263  0.00  0.00    +0.000 A 
ATOM     20  F   UNL     1       0.554   8.095  21.192  0.00  0.00    +0.000 F 
ATOM     21  C   UNL     1      -0.475  10.032  20.321  0.00  0.00    +0.000 A 
ENDBRANCH   6  15
BRANCH   1  22
ATOM     22  C   UNL     1      -3.100  10.695  17.710  0.00  0.00    +0.000 C 
ATOM     23  O   UNL     1      -3.076   9.479  17.795  0.00  0.00    +0.000 OA
BRANCH  22  25
ATOM     24  C   UNL     1      -2.873  10.659  15.366  0.00  0.00    +0.000 C 
ATOM     25  O   UNL     1      -3.240  11.380  16.541  0.00  0.00    +0.000 OA
ENDBRANCH  22  25
ENDBRANCH   1  22
BRANCH   5  26
ATOM     26  C   UNL     1      -0.513  13.246  21.466  0.00  0.00    +0.000 C 
ATOM     27  O   UNL     1      -0.250  12.796  22.568  0.00  0.00    +0.000 OA
BRANCH  26  28
ATOM     28  O   UNL     1       0.231  14.158  20.783  0.00  0.00    +0.000 OA
ATOM     29  C   UNL     1       1.637  13.914  20.725  0.00  0.00    +0.000 C 
ENDBRANCH  26  28
ENDBRANCH   5  26
TORSDOF 6
ENDMDL
MODEL 9
REMARK VINA RESULT:      -5.7      0.925      1.277
REMARK  Name = 
REMARK  10 active torsions:
REMARK  status: ('A' for Active; 'I' for Inactive)
REMARK    1  A    between atoms: C_1  and  O_2
REMARK    2  A    between atoms: O_2  and  C_3
REMARK    3  A    between atoms: C_3  and  C_5
REMARK    4  A    between atoms: N_7  and  C_8
REMARK    5  A    between atoms: C_10  and  C_11
REMARK    6  A    between atoms: C_13  and  C_14
REMARK    7  A    between atoms: C_17  and  C_18
REMARK    8  A    between atoms: C_18  and  O_20
REMARK    9  A    between atoms: O_20  and  C_21
REMARK   10  A    between atoms: C_22  and  C_23
REMARK                            x       y       z     vdW  Elec       q    Type
REMARK                         _______ _______ _______ _____ _____    ______ ____
ROOT
ATOM      1  C   UNL     1       3.860   6.867  17.840  0.00  0.00    +0.000 C 
ATOM      2  C   UNL     1       3.141   8.005  17.732  0.00  0.00    +0.000 C 
ATOM      3  N   UNL     1       2.135   8.393  18.612  0.00  0.00    +0.000 N 
ATOM      4  C   UNL     1       1.723   7.460  19.557  0.00  0.00    +0.000 C 
ATOM      5  C   UNL     1       2.333   6.278  19.777  0.00  0.00    +0.000 C 
ATOM      6  C   UNL     1       3.617   5.918  19.024  0.00  0.00    +0.000 C 
ENDROOT
BRANCH   3   7
ATOM      7  C   UNL     1       1.545   9.702  18.561  0.00  0.00    +0.000 A 
ATOM      8  C   UNL     1       2.321  10.856  18.365  0.00  0.00    +0.000 A 
ATOM      9  C   UNL     1       1.744  12.133  18.326  0.00  0.00    +0.000 A 
ATOM     10  C   UNL     1       2.599  13.348  18.112  0.00  0.00    +0.000 C 
ATOM     11  C   UNL     1       0.358  12.266  18.475  0.00  0.00    +0.000 A 
ATOM     12  C   UNL     1      -0.444  11.144  18.669  0.00  0.00    +0.000 A 
ATOM     13  C   UNL     1      -1.931  11.268  18.826  0.00  0.00    +0.000 C 
ATOM     14  C   UNL     1       0.155   9.875  18.717  0.00  0.00    +0.000 A 
ENDBRANCH   3   7
BRANCH   6  15
ATOM     15  C   UNL     1       3.729   4.437  18.677  0.00  0.00    +0.000 A 
ATOM     16  C   UNL     1       4.681   3.644  19.352  0.00  0.00    +0.000 A 
ATOM     17  C   UNL     1       4.837   2.288  19.045  0.00  0.00    +0.000 A 
ATOM     18  C   UNL     1       4.040   1.707  18.066  0.00  0.00    +0.000 A 
ATOM     19  C   UNL     1       3.094   2.484  17.404  0.00  0.00    +0.000 A 
ATOM     20  F   UNL     1       2.324   1.918  16.463  0.00  0.00    +0.000 F 
ATOM     21  C   UNL     1       2.931   3.837  17.695  0.00  0.00    +0.000 A 
ENDBRANCH   6  15
BRANCH   1  22
ATOM     22  C   UNL     1       4.916   6.599  16.824  0.00  0.00    +0.000 C 
ATOM     23  O   UNL     1       4.742   6.031  15.760  0.00  0.00    +0.000 OA
BRANCH  22  25
ATOM     24  C   UNL     1       7.155   6.093  17.350  0.00  0.00    +0.000 C 
ATOM     25  O   UNL     1       6.120   7.070  17.254  0.00  0.00    +0.000 OA
ENDBRANCH  22  25
ENDBRANCH   1  22
BRANCH   5  26
ATOM     26  C   UNL     1       1.767   5.376  20.811  0.00  0.00    +0.000 C 
ATOM     27  O   UNL     1       2.253   5.204  21.916  0.00  0.00    +0.000 OA
BRANCH  26  28
ATOM     28  O   UNL     1       0.647   4.771  20.333  0.00  0.00    +0.000 OA
ATOM     29  C   UNL     1       0.659   3.343  20.308  0.00  0.00    +0.000 C 
ENDBRANCH  26  28
ENDBRANCH   5  26
TORSDOF 6
ENDMDL
