MODEL 1
REMARK VINA RESULT:      -7.5      0.000      0.000
REMARK  Name = 
REMARK  10 active torsions:
REMARK  status: ('A' for Active; 'I' for Inactive)
REMARK    1  A    between atoms: C_1  and  C_2
REMARK    2  A    between atoms: C_2  and  C_3
REMARK    3  A    between atoms: C_2  and  C_4
REMARK    4  A    between atoms: C_2  and  C_8
REMARK    5  A    between atoms: C_4  and  C_5
REMARK    6  A    between atoms: C_5  and  O_7
REMARK    7  A    between atoms: C_8  and  C_9
REMARK    8  A    between atoms: N_11  and  C_12
REMARK    9  A    between atoms: C_14  and  C_15
REMARK   10  A    between atoms: C_20  and  C_21
REMARK                            x       y       z     vdW  Elec       q    Type
REMARK                         _______ _______ _______ _____ _____    ______ ____
ROOT
ATOM      1  C   UNL     1       4.818   4.287  17.225  0.00  0.00    +0.000 A 
ATOM      2  C   UNL     1       5.609   5.315  17.739  0.00  0.00    +0.000 A 
ATOM      3  C   UNL     1       6.568   5.968  16.955  0.00  0.00    +0.000 A 
ATOM      4  C   UNL     1       6.758   5.553  15.632  0.00  0.00    +0.000 A 
ATOM      5  C   UNL     1       5.989   4.509  15.091  0.00  0.00    +0.000 A 
ATOM      6  C   UNL     1       5.023   3.876  15.903  0.00  0.00    +0.000 A 
ENDROOT
BRANCH   1   9
ATOM      7  C   UNL     1       4.053   2.933  19.168  0.00  0.00    +0.000 C 
ATOM      8  O   UNL     1       5.131   2.823  19.749  0.00  0.00    +0.000 OA
ATOM      9  N   UNL     1       3.822   3.652  18.002  0.00  0.00    +0.000 N 
ATOM     10  H   UNL     1       2.857   3.831  17.747  0.00  0.00    +0.000 HD
BRANCH   7  11
ATOM     11  C   UNL     1       2.818   2.299  19.779  0.00  0.00    +0.000 C 
BRANCH  11  13
ATOM     12  C   UNL     1       1.504   2.595  21.864  0.00  0.00    +0.000 C 
ATOM     13  C   UNL     1       1.894   3.291  20.544  0.00  0.00    +0.000 C 
ATOM     14  C   UNL     1       0.626   3.546  19.710  0.00  0.00    +0.000 C 
BRANCH  13  15
ATOM     15  C   UNL     1       2.658   4.614  20.838  0.00  0.00    +0.000 C 
BRANCH  15  16
ATOM     16  C   UNL     1       2.051   5.897  20.296  0.00  0.00    +0.000 C 
ATOM     17  O   UNL     1       1.323   6.663  20.903  0.00  0.00    +0.000 OA
BRANCH  16  18
ATOM     18  O   UNL     1       2.400   6.116  19.005  0.00  0.00    +0.000 OA
ATOM     19  H   UNL     1       3.278   6.529  18.898  0.00  0.00    +0.000 HD
ENDBRANCH  16  18
ENDBRANCH  15  16
ENDBRANCH  13  15
ENDBRANCH  11  13
ENDBRANCH   7  11
ENDBRANCH   1   9
BRANCH   3  20
ATOM     20  C   UNL     1       7.359   7.120  17.531  0.00  0.00    +0.000 C 
ATOM     21  F   UNL     1       8.055   6.799  18.655  0.00  0.00    +0.000 F 
ATOM     22  F   UNL     1       8.274   7.609  16.651  0.00  0.00    +0.000 F 
ATOM     23  F   UNL     1       6.562   8.169  17.870  0.00  0.00    +0.000 F 
ENDBRANCH   3  20
BRANCH   5  24
ATOM     24  C   UNL     1       6.171   4.096  13.648  0.00  0.00    +0.000 C 
ATOM     25  F   UNL     1       7.120   4.816  12.990  0.00  0.00    +0.000 F 
ATOM     26  F   UNL     1       6.538   2.790  13.521  0.00  0.00    +0.000 F 
ATOM     27  F   UNL     1       5.027   4.235  12.920  0.00  0.00    +0.000 F 
ENDBRANCH   5  24
TORSDOF 8
ENDMDL
MODEL 2
REMARK VINA RESULT:      -7.5      0.112      3.574
REMARK  Name = 
REMARK  10 active torsions:
REMARK  status: ('A' for Active; 'I' for Inactive)
REMARK    1  A    between atoms: C_1  and  C_2
REMARK    2  A    between atoms: C_2  and  C_3
REMARK    3  A    between atoms: C_2  and  C_4
REMARK    4  A    between atoms: C_2  and  C_8
REMARK    5  A    between atoms: C_4  and  C_5
REMARK    6  A    between atoms: C_5  and  O_7
REMARK    7  A    between atoms: C_8  and  C_9
REMARK    8  A    between atoms: N_11  and  C_12
REMARK    9  A    between atoms: C_14  and  C_15
REMARK   10  A    between atoms: C_20  and  C_21
REMARK                            x       y       z     vdW  Elec       q    Type
REMARK                         _______ _______ _______ _____ _____    ______ ____
ROOT
ATOM      1  C   UNL     1       4.768   4.368  17.218  0.00  0.00    +0.000 A 
ATOM      2  C   UNL     1       4.966   3.994  15.888  0.00  0.00    +0.000 A 
ATOM      3  C   UNL     1       5.936   4.609  15.088  0.00  0.00    +0.000 A 
ATOM      4  C   UNL     1       6.703   5.648  15.629  0.00  0.00    +0.000 A 
ATOM      5  C   UNL     1       6.514   6.059  16.959  0.00  0.00    +0.000 A 
ATOM      6  C   UNL     1       5.535   5.414  17.745  0.00  0.00    +0.000 A 
ENDROOT
BRANCH   1   9
ATOM      7  C   UNL     1       4.110   3.016  19.200  0.00  0.00    +0.000 C 
ATOM      8  O   UNL     1       5.213   2.928  19.735  0.00  0.00    +0.000 OA
ATOM      9  N   UNL     1       3.817   3.722  18.041  0.00  0.00    +0.000 N 
ATOM     10  H   UNL     1       2.839   3.883  17.826  0.00  0.00    +0.000 HD
BRANCH   7  11
ATOM     11  C   UNL     1       2.913   2.366  19.867  0.00  0.00    +0.000 C 
BRANCH  11  13
ATOM     12  C   UNL     1       1.500   2.689  21.882  0.00  0.00    +0.000 C 
ATOM     13  C   UNL     1       1.943   3.362  20.567  0.00  0.00    +0.000 C 
ATOM     14  C   UNL     1       0.713   3.583  19.670  0.00  0.00    +0.000 C 
BRANCH  13  15
ATOM     15  C   UNL     1       2.677   4.700  20.867  0.00  0.00    +0.000 C 
BRANCH  15  16
ATOM     16  C   UNL     1       2.162   5.944  20.164  0.00  0.00    +0.000 C 
ATOM     17  O   UNL     1       2.315   6.224  18.988  0.00  0.00    +0.000 OA
BRANCH  16  18
ATOM     18  O   UNL     1       1.493   6.763  21.011  0.00  0.00    +0.000 OA
ATOM     19  H   UNL     1       1.951   6.913  21.860  0.00  0.00    +0.000 HD
ENDBRANCH  16  18
ENDBRANCH  15  16
ENDBRANCH  13  15
ENDBRANCH  11  13
ENDBRANCH   7  11
ENDBRANCH   1   9
BRANCH   3  20
ATOM     20  C   UNL     1       6.163   4.131  13.671  0.00  0.00    +0.000 C 
ATOM     21  F   UNL     1       5.060   4.216  12.881  0.00  0.00    +0.000 F 
ATOM     22  F   UNL     1       7.135   4.840  13.037  0.00  0.00    +0.000 F 
ATOM     23  F   UNL     1       6.555   2.829  13.628  0.00  0.00    +0.000 F 
ENDBRANCH   3  20
BRANCH   5  24
ATOM     24  C   UNL     1       7.375   7.153  17.548  0.00  0.00    +0.000 C 
ATOM     25  F   UNL     1       8.062   6.768  18.658  0.00  0.00    +0.000 F 
ATOM     26  F   UNL     1       8.311   7.611  16.671  0.00  0.00    +0.000 F 
ATOM     27  F   UNL     1       6.647   8.244  17.919  0.00  0.00    +0.000 F 
ENDBRANCH   5  24
TORSDOF 8
ENDMDL
MODEL 3
REMARK VINA RESULT:      -7.5      4.222      6.010
REMARK  Name = 
REMARK  10 active torsions:
REMARK  status: ('A' for Active; 'I' for Inactive)
REMARK    1  A    between atoms: C_1  and  C_2
REMARK    2  A    between atoms: C_2  and  C_3
REMARK    3  A    between atoms: C_2  and  C_4
REMARK    4  A    between atoms: C_2  and  C_8
REMARK    5  A    between atoms: C_4  and  C_5
REMARK    6  A    between atoms: C_5  and  O_7
REMARK    7  A    between atoms: C_8  and  C_9
REMARK    8  A    between atoms: N_11  and  C_12
REMARK    9  A    between atoms: C_14  and  C_15
REMARK   10  A    between atoms: C_20  and  C_21
REMARK                            x       y       z     vdW  Elec       q    Type
REMARK                         _______ _______ _______ _____ _____    ______ ____
ROOT
ATOM      1  C   UNL     1       2.531   6.747  18.917  0.00  0.00    +0.000 A 
ATOM      2  C   UNL     1       3.546   6.598  17.970  0.00  0.00    +0.000 A 
ATOM      3  C   UNL     1       3.885   5.346  17.445  0.00  0.00    +0.000 A 
ATOM      4  C   UNL     1       3.209   4.211  17.908  0.00  0.00    +0.000 A 
ATOM      5  C   UNL     1       2.195   4.325  18.874  0.00  0.00    +0.000 A 
ATOM      6  C   UNL     1       1.869   5.603  19.378  0.00  0.00    +0.000 A 
ENDROOT
BRANCH   1   9
ATOM      7  C   UNL     1       1.547   9.019  18.683  0.00  0.00    +0.000 C 
ATOM      8  O   UNL     1       1.148   8.927  17.524  0.00  0.00    +0.000 OA
ATOM      9  N   UNL     1       2.160   8.014  19.420  0.00  0.00    +0.000 N 
ATOM     10  H   UNL     1       2.249   8.156  20.420  0.00  0.00    +0.000 HD
BRANCH   7  11
ATOM     11  C   UNL     1       1.307  10.309  19.444  0.00  0.00    +0.000 C 
BRANCH  11  13
ATOM     12  C   UNL     1      -1.150  10.256  19.093  0.00  0.00    +0.000 C 
ATOM     13  C   UNL     1      -0.062  10.381  20.180  0.00  0.00    +0.000 C 
ATOM     14  C   UNL     1      -0.192  11.748  20.874  0.00  0.00    +0.000 C 
BRANCH  13  15
ATOM     15  C   UNL     1      -0.182   9.211  21.199  0.00  0.00    +0.000 C 
BRANCH  15  16
ATOM     16  C   UNL     1       0.632   9.321  22.476  0.00  0.00    +0.000 C 
ATOM     17  O   UNL     1       0.260   9.810  23.529  0.00  0.00    +0.000 OA
BRANCH  16  18
ATOM     18  O   UNL     1       1.879   8.813  22.327  0.00  0.00    +0.000 OA
ATOM     19  H   UNL     1       2.063   8.473  21.430  0.00  0.00    +0.000 HD
ENDBRANCH  16  18
ENDBRANCH  15  16
ENDBRANCH  13  15
ENDBRANCH  11  13
ENDBRANCH   7  11
ENDBRANCH   1   9
BRANCH   3  20
ATOM     20  C   UNL     1       4.946   5.236  16.374  0.00  0.00    +0.000 C 
ATOM     21  F   UNL     1       4.763   4.189  15.526  0.00  0.00    +0.000 F 
ATOM     22  F   UNL     1       5.004   6.347  15.590  0.00  0.00    +0.000 F 
ATOM     23  F   UNL     1       6.190   5.080  16.900  0.00  0.00    +0.000 F 
ENDBRANCH   3  20
BRANCH   5  24
ATOM     24  C   UNL     1       1.441   3.100  19.337  0.00  0.00    +0.000 C 
ATOM     25  F   UNL     1       2.244   2.039  19.619  0.00  0.00    +0.000 F 
ATOM     26  F   UNL     1       0.715   3.330  20.467  0.00  0.00    +0.000 F 
ATOM     27  F   UNL     1       0.550   2.656  18.405  0.00  0.00    +0.000 F 
ENDBRANCH   5  24
TORSDOF 8
ENDMDL
MODEL 4
REMARK VINA RESULT:      -7.4      4.228      6.008
REMARK  Name = 
REMARK  10 active torsions:
REMARK  status: ('A' for Active; 'I' for Inactive)
REMARK    1  A    between atoms: C_1  and  C_2
REMARK    2  A    between atoms: C_2  and  C_3
REMARK    3  A    between atoms: C_2  and  C_4
REMARK    4  A    between atoms: C_2  and  C_8
REMARK    5  A    between atoms: C_4  and  C_5
REMARK    6  A    between atoms: C_5  and  O_7
REMARK    7  A    between atoms: C_8  and  C_9
REMARK    8  A    between atoms: N_11  and  C_12
REMARK    9  A    between atoms: C_14  and  C_15
REMARK   10  A    between atoms: C_20  and  C_21
REMARK                            x       y       z     vdW  Elec       q    Type
REMARK                         _______ _______ _______ _____ _____    ______ ____
ROOT
ATOM      1  C   UNL     1       2.547   6.810  18.885  0.00  0.00    +0.000 A 
ATOM      2  C   UNL     1       3.563   6.664  17.939  0.00  0.00    +0.000 A 
ATOM      3  C   UNL     1       3.906   5.411  17.416  0.00  0.00    +0.000 A 
ATOM      4  C   UNL     1       3.234   4.275  17.881  0.00  0.00    +0.000 A 
ATOM      5  C   UNL     1       2.219   4.387  18.846  0.00  0.00    +0.000 A 
ATOM      6  C   UNL     1       1.888   5.665  19.347  0.00  0.00    +0.000 A 
ENDROOT
BRANCH   1   9
ATOM      7  C   UNL     1       1.522   9.065  18.656  0.00  0.00    +0.000 C 
ATOM      8  O   UNL     1       1.093   8.956  17.509  0.00  0.00    +0.000 OA
ATOM      9  N   UNL     1       2.170   8.077  19.386  0.00  0.00    +0.000 N 
ATOM     10  H   UNL     1       2.284   8.229  20.381  0.00  0.00    +0.000 HD
BRANCH   7  11
ATOM     11  C   UNL     1       1.285  10.359  19.411  0.00  0.00    +0.000 C 
BRANCH  11  13
ATOM     12  C   UNL     1      -1.180  10.322  19.115  0.00  0.00    +0.000 C 
ATOM     13  C   UNL     1      -0.067  10.420  20.180  0.00  0.00    +0.000 C 
ATOM     14  C   UNL     1      -0.176  11.772  20.905  0.00  0.00    +0.000 C 
BRANCH  13  15
ATOM     15  C   UNL     1      -0.169   9.229  21.176  0.00  0.00    +0.000 C 
BRANCH  15  16
ATOM     16  C   UNL     1       0.647   9.326  22.454  0.00  0.00    +0.000 C 
ATOM     17  O   UNL     1       0.281   9.817  23.508  0.00  0.00    +0.000 OA
BRANCH  16  18
ATOM     18  O   UNL     1       1.887   8.801  22.303  0.00  0.00    +0.000 OA
ATOM     19  H   UNL     1       2.534   9.122  22.960  0.00  0.00    +0.000 HD
ENDBRANCH  16  18
ENDBRANCH  15  16
ENDBRANCH  13  15
ENDBRANCH  11  13
ENDBRANCH   7  11
ENDBRANCH   1   9
BRANCH   3  20
ATOM     20  C   UNL     1       4.968   5.304  16.345  0.00  0.00    +0.000 C 
ATOM     21  F   UNL     1       6.233   5.204  16.836  0.00  0.00    +0.000 F 
ATOM     22  F   UNL     1       4.789   4.217  15.547  0.00  0.00    +0.000 F 
ATOM     23  F   UNL     1       4.971   6.384  15.518  0.00  0.00    +0.000 F 
ENDBRANCH   3  20
BRANCH   5  24
ATOM     24  C   UNL     1       1.470   3.160  19.311  0.00  0.00    +0.000 C 
ATOM     25  F   UNL     1       0.691   3.378  20.405  0.00  0.00    +0.000 F 
ATOM     26  F   UNL     1       0.638   2.662  18.354  0.00  0.00    +0.000 F 
ATOM     27  F   UNL     1       2.306   2.137  19.647  0.00  0.00    +0.000 F 
ENDBRANCH   5  24
TORSDOF 8
ENDMDL
MODEL 5
REMARK VINA RESULT:      -7.4      4.232      5.993
REMARK  Name = 
REMARK  10 active torsions:
REMARK  status: ('A' for Active; 'I' for Inactive)
REMARK    1  A    between atoms: C_1  and  C_2
REMARK    2  A    between atoms: C_2  and  C_3
REMARK    3  A    between atoms: C_2  and  C_4
REMARK    4  A    between atoms: C_2  and  C_8
REMARK    5  A    between atoms: C_4  and  C_5
REMARK    6  A    between atoms: C_5  and  O_7
REMARK    7  A    between atoms: C_8  and  C_9
REMARK    8  A    between atoms: N_11  and  C_12
REMARK    9  A    between atoms: C_14  and  C_15
REMARK   10  A    between atoms: C_20  and  C_21
REMARK                            x       y       z     vdW  Elec       q    Type
REMARK                         _______ _______ _______ _____ _____    ______ ____
ROOT
ATOM      1  C   UNL     1       2.444   6.659  18.925  0.00  0.00    +0.000 A 
ATOM      2  C   UNL     1       1.782   5.509  19.356  0.00  0.00    +0.000 A 
ATOM      3  C   UNL     1       2.128   4.238  18.882  0.00  0.00    +0.000 A 
ATOM      4  C   UNL     1       3.144   4.126  17.925  0.00  0.00    +0.000 A 
ATOM      5  C   UNL     1       3.817   5.267  17.457  0.00  0.00    +0.000 A 
ATOM      6  C   UNL     1       3.452   6.534  17.962  0.00  0.00    +0.000 A 
ENDROOT
BRANCH   1   9
ATOM      7  C   UNL     1       1.547   8.968  18.698  0.00  0.00    +0.000 C 
ATOM      8  O   UNL     1       1.142   8.894  17.541  0.00  0.00    +0.000 OA
ATOM      9  N   UNL     1       2.124   7.939  19.432  0.00  0.00    +0.000 N 
ATOM     10  H   UNL     1       2.221   8.075  20.431  0.00  0.00    +0.000 HD
BRANCH   7  11
ATOM     11  C   UNL     1       1.361  10.265  19.463  0.00  0.00    +0.000 C 
BRANCH  11  13
ATOM     12  C   UNL     1      -1.096  10.310  19.112  0.00  0.00    +0.000 C 
ATOM     13  C   UNL     1      -0.005  10.391  20.199  0.00  0.00    +0.000 C 
ATOM     14  C   UNL     1      -0.080  11.761  20.894  0.00  0.00    +0.000 C 
BRANCH  13  15
ATOM     15  C   UNL     1      -0.171   9.226  21.217  0.00  0.00    +0.000 C 
BRANCH  15  16
ATOM     16  C   UNL     1       0.626   9.316  22.506  0.00  0.00    +0.000 C 
ATOM     17  O   UNL     1       0.242   9.790  23.561  0.00  0.00    +0.000 OA
BRANCH  16  18
ATOM     18  O   UNL     1       1.874   8.807  22.366  0.00  0.00    +0.000 OA
ATOM     19  H   UNL     1       2.405   9.246  21.674  0.00  0.00    +0.000 HD
ENDBRANCH  16  18
ENDBRANCH  15  16
ENDBRANCH  13  15
ENDBRANCH  11  13
ENDBRANCH   7  11
ENDBRANCH   1   9
BRANCH   3  20
ATOM     20  C   UNL     1       1.429   3.012  19.423  0.00  0.00    +0.000 C 
ATOM     21  F   UNL     1       0.786   3.223  20.602  0.00  0.00    +0.000 F 
ATOM     22  F   UNL     1       0.489   2.532  18.564  0.00  0.00    +0.000 F 
ATOM     23  F   UNL     1       2.295   1.987  19.647  0.00  0.00    +0.000 F 
ENDBRANCH   3  20
BRANCH   5  24
ATOM     24  C   UNL     1       4.941   5.132  16.456  0.00  0.00    +0.000 C 
ATOM     25  F   UNL     1       6.155   4.902  17.025  0.00  0.00    +0.000 F 
ATOM     26  F   UNL     1       4.739   4.109  15.579  0.00  0.00    +0.000 F 
ATOM     27  F   UNL     1       5.093   6.252  15.693  0.00  0.00    +0.000 F 
ENDBRANCH   5  24
TORSDOF 8
ENDMDL
MODEL 6
REMARK VINA RESULT:      -7.4      1.209      3.926
REMARK  Name = 
REMARK  10 active torsions:
REMARK  status: ('A' for Active; 'I' for Inactive)
REMARK    1  A    between atoms: C_1  and  C_2
REMARK    2  A    between atoms: C_2  and  C_3
REMARK    3  A    between atoms: C_2  and  C_4
REMARK    4  A    between atoms: C_2  and  C_8
REMARK    5  A    between atoms: C_4  and  C_5
REMARK    6  A    between atoms: C_5  and  O_7
REMARK    7  A    between atoms: C_8  and  C_9
REMARK    8  A    between atoms: N_11  and  C_12
REMARK    9  A    between atoms: C_14  and  C_15
REMARK   10  A    between atoms: C_20  and  C_21
REMARK                            x       y       z     vdW  Elec       q    Type
REMARK                         _______ _______ _______ _____ _____    ______ ____
ROOT
ATOM      1  C   UNL     1       4.830   4.396  17.253  0.00  0.00    +0.000 A 
ATOM      2  C   UNL     1       5.014   4.020  15.922  0.00  0.00    +0.000 A 
ATOM      3  C   UNL     1       5.962   4.646  15.105  0.00  0.00    +0.000 A 
ATOM      4  C   UNL     1       6.720   5.700  15.630  0.00  0.00    +0.000 A 
ATOM      5  C   UNL     1       6.544   6.115  16.961  0.00  0.00    +0.000 A 
ATOM      6  C   UNL     1       5.587   5.457  17.764  0.00  0.00    +0.000 A 
ENDROOT
BRANCH   1   9
ATOM      7  C   UNL     1       4.216   3.091  19.280  0.00  0.00    +0.000 C 
ATOM      8  O   UNL     1       5.317   3.073  19.826  0.00  0.00    +0.000 OA
ATOM      9  N   UNL     1       3.901   3.740  18.093  0.00  0.00    +0.000 N 
ATOM     10  H   UNL     1       2.919   3.848  17.865  0.00  0.00    +0.000 HD
BRANCH   7  11
ATOM     11  C   UNL     1       3.044   2.412  19.963  0.00  0.00    +0.000 C 
BRANCH  11  13
ATOM     12  C   UNL     1       2.732   4.775  20.657  0.00  0.00    +0.000 C 
ATOM     13  C   UNL     1       2.065   3.384  20.684  0.00  0.00    +0.000 C 
ATOM     14  C   UNL     1       1.889   2.933  22.144  0.00  0.00    +0.000 C 
BRANCH  13  15
ATOM     15  C   UNL     1       0.703   3.426  19.932  0.00  0.00    +0.000 C 
BRANCH  15  16
ATOM     16  C   UNL     1       0.711   3.029  18.466  0.00  0.00    +0.000 C 
ATOM     17  O   UNL     1       1.060   3.729  17.531  0.00  0.00    +0.000 OA
BRANCH  16  18
ATOM     18  O   UNL     1       0.258   1.766  18.281  0.00  0.00    +0.000 OA
ATOM     19  H   UNL     1       0.691   1.294  17.544  0.00  0.00    +0.000 HD
ENDBRANCH  16  18
ENDBRANCH  15  16
ENDBRANCH  13  15
ENDBRANCH  11  13
ENDBRANCH   7  11
ENDBRANCH   1   9
BRANCH   3  20
ATOM     20  C   UNL     1       6.176   4.164  13.688  0.00  0.00    +0.000 C 
ATOM     21  F   UNL     1       6.568   2.865  13.604  0.00  0.00    +0.000 F 
ATOM     22  F   UNL     1       5.049   4.265  12.933  0.00  0.00    +0.000 F 
ATOM     23  F   UNL     1       7.130   4.886  13.041  0.00  0.00    +0.000 F 
ENDBRANCH   3  20
BRANCH   5  24
ATOM     24  C   UNL     1       7.396   7.225  17.532  0.00  0.00    +0.000 C 
ATOM     25  F   UNL     1       8.082   6.865  18.651  0.00  0.00    +0.000 F 
ATOM     26  F   UNL     1       8.331   7.673  16.649  0.00  0.00    +0.000 F 
ATOM     27  F   UNL     1       6.659   8.317  17.882  0.00  0.00    +0.000 F 
ENDBRANCH   5  24
TORSDOF 8
ENDMDL
MODEL 7
REMARK VINA RESULT:      -7.4      1.217      3.949
REMARK  Name = 
REMARK  10 active torsions:
REMARK  status: ('A' for Active; 'I' for Inactive)
REMARK    1  A    between atoms: C_1  and  C_2
REMARK    2  A    between atoms: C_2  and  C_3
REMARK    3  A    between atoms: C_2  and  C_4
REMARK    4  A    between atoms: C_2  and  C_8
REMARK    5  A    between atoms: C_4  and  C_5
REMARK    6  A    between atoms: C_5  and  O_7
REMARK    7  A    between atoms: C_8  and  C_9
REMARK    8  A    between atoms: N_11  and  C_12
REMARK    9  A    between atoms: C_14  and  C_15
REMARK   10  A    between atoms: C_20  and  C_21
REMARK                            x       y       z     vdW  Elec       q    Type
REMARK                         _______ _______ _______ _____ _____    ______ ____
ROOT
ATOM      1  C   UNL     1       4.846   4.380  17.207  0.00  0.00    +0.000 A 
ATOM      2  C   UNL     1       5.029   4.004  15.876  0.00  0.00    +0.000 A 
ATOM      3  C   UNL     1       5.971   4.638  15.056  0.00  0.00    +0.000 A 
ATOM      4  C   UNL     1       6.723   5.696  15.579  0.00  0.00    +0.000 A 
ATOM      5  C   UNL     1       6.549   6.109  16.910  0.00  0.00    +0.000 A 
ATOM      6  C   UNL     1       5.598   5.445  17.716  0.00  0.00    +0.000 A 
ENDROOT
BRANCH   1   9
ATOM      7  C   UNL     1       4.238   3.110  19.259  0.00  0.00    +0.000 C 
ATOM      8  O   UNL     1       5.329   3.142  19.823  0.00  0.00    +0.000 OA
ATOM      9  N   UNL     1       3.924   3.717  18.049  0.00  0.00    +0.000 N 
ATOM     10  H   UNL     1       2.944   3.787  17.802  0.00  0.00    +0.000 HD
BRANCH   7  11
ATOM     11  C   UNL     1       3.076   2.413  19.940  0.00  0.00    +0.000 C 
BRANCH  11  13
ATOM     12  C   UNL     1       2.712   4.779  20.600  0.00  0.00    +0.000 C 
ATOM     13  C   UNL     1       2.089   3.369  20.672  0.00  0.00    +0.000 C 
ATOM     14  C   UNL     1       1.969   2.941  22.145  0.00  0.00    +0.000 C 
BRANCH  13  15
ATOM     15  C   UNL     1       0.706   3.355  19.959  0.00  0.00    +0.000 C 
BRANCH  15  16
ATOM     16  C   UNL     1       0.693   3.001  18.482  0.00  0.00    +0.000 C 
ATOM     17  O   UNL     1       1.027   3.728  17.563  0.00  0.00    +0.000 OA
BRANCH  16  18
ATOM     18  O   UNL     1       0.239   1.742  18.268  0.00  0.00    +0.000 OA
ATOM     19  H   UNL     1      -0.187   1.337  19.048  0.00  0.00    +0.000 HD
ENDBRANCH  16  18
ENDBRANCH  15  16
ENDBRANCH  13  15
ENDBRANCH  11  13
ENDBRANCH   7  11
ENDBRANCH   1   9
BRANCH   3  20
ATOM     20  C   UNL     1       6.184   4.158  13.638  0.00  0.00    +0.000 C 
ATOM     21  F   UNL     1       7.137   4.854  12.961  0.00  0.00    +0.000 F 
ATOM     22  F   UNL     1       6.567   2.853  13.587  0.00  0.00    +0.000 F 
ATOM     23  F   UNL     1       5.051   4.249  12.891  0.00  0.00    +0.000 F 
ENDBRANCH   3  20
BRANCH   5  24
ATOM     24  C   UNL     1       7.395   7.224  17.480  0.00  0.00    +0.000 C 
ATOM     25  F   UNL     1       8.336   7.691  16.616  0.00  0.00    +0.000 F 
ATOM     26  F   UNL     1       6.654   8.307  17.845  0.00  0.00    +0.000 F 
ATOM     27  F   UNL     1       8.073   6.841  18.599  0.00  0.00    +0.000 F 
ENDBRANCH   5  24
TORSDOF 8
ENDMDL
MODEL 8
REMARK VINA RESULT:      -7.4      4.261      7.280
REMARK  Name = 
REMARK  10 active torsions:
REMARK  status: ('A' for Active; 'I' for Inactive)
REMARK    1  A    between atoms: C_1  and  C_2
REMARK    2  A    between atoms: C_2  and  C_3
REMARK    3  A    between atoms: C_2  and  C_4
REMARK    4  A    between atoms: C_2  and  C_8
REMARK    5  A    between atoms: C_4  and  C_5
REMARK    6  A    between atoms: C_5  and  O_7
REMARK    7  A    between atoms: C_8  and  C_9
REMARK    8  A    between atoms: N_11  and  C_12
REMARK    9  A    between atoms: C_14  and  C_15
REMARK   10  A    between atoms: C_20  and  C_21
REMARK                            x       y       z     vdW  Elec       q    Type
REMARK                         _______ _______ _______ _____ _____    ______ ____
ROOT
ATOM      1  C   UNL     1       3.115   5.277  18.545  0.00  0.00    +0.000 A 
ATOM      2  C   UNL     1       2.897   4.115  19.287  0.00  0.00    +0.000 A 
ATOM      3  C   UNL     1       2.164   4.130  20.480  0.00  0.00    +0.000 A 
ATOM      4  C   UNL     1       1.666   5.350  20.954  0.00  0.00    +0.000 A 
ATOM      5  C   UNL     1       1.884   6.539  20.239  0.00  0.00    +0.000 A 
ATOM      6  C   UNL     1       2.618   6.491  19.034  0.00  0.00    +0.000 A 
ENDROOT
BRANCH   1   9
ATOM      7  C   UNL     1       4.573   6.311  16.815  0.00  0.00    +0.000 C 
ATOM      8  O   UNL     1       4.819   7.368  17.392  0.00  0.00    +0.000 OA
ATOM      9  N   UNL     1       3.820   5.258  17.320  0.00  0.00    +0.000 N 
ATOM     10  H   UNL     1       3.869   4.372  16.832  0.00  0.00    +0.000 HD
BRANCH   7  11
ATOM     11  C   UNL     1       5.182   6.058  15.449  0.00  0.00    +0.000 C 
BRANCH  11  13
ATOM     12  C   UNL     1       7.126   5.313  14.097  0.00  0.00    +0.000 C 
ATOM     13  C   UNL     1       6.429   5.126  15.461  0.00  0.00    +0.000 C 
ATOM     14  C   UNL     1       5.968   3.665  15.599  0.00  0.00    +0.000 C 
BRANCH  13  15
ATOM     15  C   UNL     1       7.388   5.533  16.616  0.00  0.00    +0.000 C 
BRANCH  15  16
ATOM     16  C   UNL     1       7.448   4.611  17.822  0.00  0.00    +0.000 C 
ATOM     17  O   UNL     1       6.600   4.503  18.690  0.00  0.00    +0.000 OA
BRANCH  16  18
ATOM     18  O   UNL     1       8.596   3.892  17.853  0.00  0.00    +0.000 OA
ATOM     19  H   UNL     1       8.487   2.989  18.207  0.00  0.00    +0.000 HD
ENDBRANCH  16  18
ENDBRANCH  15  16
ENDBRANCH  13  15
ENDBRANCH  11  13
ENDBRANCH   7  11
ENDBRANCH   1   9
BRANCH   3  20
ATOM     20  C   UNL     1       1.896   2.839  21.220  0.00  0.00    +0.000 C 
ATOM     21  F   UNL     1       0.881   2.925  22.121  0.00  0.00    +0.000 F 
ATOM     22  F   UNL     1       1.566   1.822  20.380  0.00  0.00    +0.000 F 
ATOM     23  F   UNL     1       2.983   2.415  21.919  0.00  0.00    +0.000 F 
ENDBRANCH   3  20
BRANCH   5  24
ATOM     24  C   UNL     1       1.307   7.844  20.736  0.00  0.00    +0.000 C 
ATOM     25  F   UNL     1       1.257   8.816  19.785  0.00  0.00    +0.000 F 
ATOM     26  F   UNL     1       0.032   7.709  21.198  0.00  0.00    +0.000 F 
ATOM     27  F   UNL     1       2.025   8.370  21.769  0.00  0.00    +0.000 F 
ENDBRANCH   5  24
TORSDOF 8
ENDMDL
MODEL 9
REMARK VINA RESULT:      -7.4      0.102      3.499
REMARK  Name = 
REMARK  10 active torsions:
REMARK  status: ('A' for Active; 'I' for Inactive)
REMARK    1  A    between atoms: C_1  and  C_2
REMARK    2  A    between atoms: C_2  and  C_3
REMARK    3  A    between atoms: C_2  and  C_4
REMARK    4  A    between atoms: C_2  and  C_8
REMARK    5  A    between atoms: C_4  and  C_5
REMARK    6  A    between atoms: C_5  and  O_7
REMARK    7  A    between atoms: C_8  and  C_9
REMARK    8  A    between atoms: N_11  and  C_12
REMARK    9  A    between atoms: C_14  and  C_15
REMARK   10  A    between atoms: C_20  and  C_21
REMARK                            x       y       z     vdW  Elec       q    Type
REMARK                         _______ _______ _______ _____ _____    ______ ____
ROOT
ATOM      1  C   UNL     1       4.702   4.295  17.152  0.00  0.00    +0.000 A 
ATOM      2  C   UNL     1       4.905   3.918  15.824  0.00  0.00    +0.000 A 
ATOM      3  C   UNL     1       5.872   4.538  15.023  0.00  0.00    +0.000 A 
ATOM      4  C   UNL     1       6.630   5.584  15.563  0.00  0.00    +0.000 A 
ATOM      5  C   UNL     1       6.436   5.998  16.891  0.00  0.00    +0.000 A 
ATOM      6  C   UNL     1       5.460   5.347  17.677  0.00  0.00    +0.000 A 
ENDROOT
BRANCH   1   9
ATOM      7  C   UNL     1       4.045   2.976  19.157  0.00  0.00    +0.000 C 
ATOM      8  O   UNL     1       5.140   2.932  19.714  0.00  0.00    +0.000 OA
ATOM      9  N   UNL     1       3.754   3.644  17.975  0.00  0.00    +0.000 N 
ATOM     10  H   UNL     1       2.776   3.773  17.739  0.00  0.00    +0.000 HD
BRANCH   7  11
ATOM     11  C   UNL     1       2.855   2.310  19.821  0.00  0.00    +0.000 C 
BRANCH  11  13
ATOM     12  C   UNL     1       1.487   2.587  21.874  0.00  0.00    +0.000 C 
ATOM     13  C   UNL     1       1.898   3.289  20.563  0.00  0.00    +0.000 C 
ATOM     14  C   UNL     1       0.647   3.525  19.699  0.00  0.00    +0.000 C 
BRANCH  13  15
ATOM     15  C   UNL     1       2.636   4.623  20.874  0.00  0.00    +0.000 C 
BRANCH  15  16
ATOM     16  C   UNL     1       2.000   5.901  20.356  0.00  0.00    +0.000 C 
ATOM     17  O   UNL     1       1.224   6.619  20.963  0.00  0.00    +0.000 OA
BRANCH  16  18
ATOM     18  O   UNL     1       2.382   6.177  19.086  0.00  0.00    +0.000 OA
ATOM     19  H   UNL     1       1.643   6.407  18.491  0.00  0.00    +0.000 HD
ENDBRANCH  16  18
ENDBRANCH  15  16
ENDBRANCH  13  15
ENDBRANCH  11  13
ENDBRANCH   7  11
ENDBRANCH   1   9
BRANCH   3  20
ATOM     20  C   UNL     1       6.105   4.057  13.609  0.00  0.00    +0.000 C 
ATOM     21  F   UNL     1       6.505   2.759  13.531  0.00  0.00    +0.000 F 
ATOM     22  F   UNL     1       4.986   4.150  12.841  0.00  0.00    +0.000 F 
ATOM     23  F   UNL     1       7.062   4.784  12.973  0.00  0.00    +0.000 F 
ENDBRANCH   3  20
BRANCH   5  24
ATOM     24  C   UNL     1       7.287   7.100  17.479  0.00  0.00    +0.000 C 
ATOM     25  F   UNL     1       6.577   8.200  17.849  0.00  0.00    +0.000 F 
ATOM     26  F   UNL     1       7.964   6.700  18.592  0.00  0.00    +0.000 F 
ATOM     27  F   UNL     1       8.235   7.545  16.605  0.00  0.00    +0.000 F 
ENDBRANCH   5  24
TORSDOF 8
ENDMDL
