MODEL 1
REMARK VINA RESULT:      -8.2      0.000      0.000
REMARK  Name = 
REMARK  7 active torsions:
REMARK  status: ('A' for Active; 'I' for Inactive)
REMARK    1  A    between atoms: C_1  and  C_2
REMARK    2  A    between atoms: C_2  and  C_3
REMARK    3  A    between atoms: C_6  and  C_7
REMARK    4  A    between atoms: C_9  and  C_10
REMARK    5  A    between atoms: C_17  and  S_18
REMARK    6  A    between atoms: S_18  and  N_21
REMARK    7  A    between atoms: N_21  and  C_22
REMARK                            x       y       z     vdW  Elec       q    Type
REMARK                         _______ _______ _______ _____ _____    ______ ____
ROOT
ATOM      1  C   UNL     1       2.375   4.164  19.983  0.00  0.00    +0.000 A 
ATOM      2  C   UNL     1       1.980   5.176  20.878  0.00  0.00    +0.000 A 
ATOM      3  C   UNL     1       1.895   6.511  20.479  0.00  0.00    +0.000 A 
ATOM      4  C   UNL     1       2.187   6.880  19.164  0.00  0.00    +0.000 A 
ATOM      5  C   UNL     1       2.644   5.895  18.280  0.00  0.00    +0.000 A 
ATOM      6  C   UNL     1       2.755   4.545  18.681  0.00  0.00    +0.000 A 
ENDROOT
BRANCH   4   7
ATOM      7  C   UNL     1       1.948   8.253  18.718  0.00  0.00    +0.000 A 
ATOM      8  C   UNL     1       1.307   9.306  19.423  0.00  0.00    +0.000 A 
ATOM      9  C   UNL     1       1.443  10.408  18.613  0.00  0.00    +0.000 A 
ATOM     10  O   UNL     1       2.084  10.041  17.474  0.00  0.00    +0.000 OA
ATOM     11  N   UNL     1       2.400   8.700  17.535  0.00  0.00    +0.000 NA
BRANCH   9  12
ATOM     12  C   UNL     1       1.078  11.830  18.728  0.00  0.00    +0.000 C 
ATOM     13  F   UNL     1       1.204  12.278  20.006  0.00  0.00    +0.000 F 
ATOM     14  F   UNL     1       1.862  12.626  17.959  0.00  0.00    +0.000 F 
ATOM     15  F   UNL     1      -0.208  12.062  18.361  0.00  0.00    +0.000 F 
ENDBRANCH   9  12
ENDBRANCH   4   7
BRANCH   6  16
ATOM     16  S   UNL     1       3.334   3.398  17.421  0.00  0.00    +0.000 S 
ATOM     17  O   UNL     1       2.604   2.156  17.502  0.00  0.00    +0.000 OA
ATOM     18  O   UNL     1       3.374   4.145  16.178  0.00  0.00    +0.000 OA
BRANCH  16  19
ATOM     19  N   UNL     1       4.956   3.143  17.847  0.00  0.00    +0.000 N 
ATOM     20  H   UNL     1       5.354   2.336  17.369  0.00  0.00    +0.000 HD
BRANCH  19  21
ATOM     21  C   UNL     1       5.797   4.276  18.013  0.00  0.00    +0.000 A 
ATOM     22  C   UNL     1       6.364   4.872  16.884  0.00  0.00    +0.000 A 
ATOM     23  C   UNL     1       7.253   5.938  17.034  0.00  0.00    +0.000 A 
ATOM     24  C   UNL     1       7.579   6.379  18.311  0.00  0.00    +0.000 A 
ATOM     25  F   UNL     1       8.456   7.380  18.460  0.00  0.00    +0.000 F 
ATOM     26  C   UNL     1       7.016   5.790  19.439  0.00  0.00    +0.000 A 
ATOM     27  C   UNL     1       6.111   4.739  19.292  0.00  0.00    +0.000 A 
ENDBRANCH  19  21
ENDBRANCH  16  19
ENDBRANCH   6  16
BRANCH   1  29
ATOM     28  C   UNL     1       1.452   2.684  21.767  0.00  0.00    +0.000 C 
ATOM     29  C   UNL     1       2.266   2.743  20.479  0.00  0.00    +0.000 C 
ENDBRANCH   1  29
TORSDOF 6
ENDMDL
MODEL 2
REMARK VINA RESULT:      -8.1      0.803      1.073
REMARK  Name = 
REMARK  7 active torsions:
REMARK  status: ('A' for Active; 'I' for Inactive)
REMARK    1  A    between atoms: C_1  and  C_2
REMARK    2  A    between atoms: C_2  and  C_3
REMARK    3  A    between atoms: C_6  and  C_7
REMARK    4  A    between atoms: C_9  and  C_10
REMARK    5  A    between atoms: C_17  and  S_18
REMARK    6  A    between atoms: S_18  and  N_21
REMARK    7  A    between atoms: N_21  and  C_22
REMARK                            x       y       z     vdW  Elec       q    Type
REMARK                         _______ _______ _______ _____ _____    ______ ____
ROOT
ATOM      1  C   UNL     1       2.443   4.317  19.947  0.00  0.00    +0.000 A 
ATOM      2  C   UNL     1       2.021   5.303  20.859  0.00  0.00    +0.000 A 
ATOM      3  C   UNL     1       1.909   6.644  20.485  0.00  0.00    +0.000 A 
ATOM      4  C   UNL     1       2.200   7.043  19.178  0.00  0.00    +0.000 A 
ATOM      5  C   UNL     1       2.684   6.086  18.279  0.00  0.00    +0.000 A 
ATOM      6  C   UNL     1       2.822   4.731  18.655  0.00  0.00    +0.000 A 
ENDROOT
BRANCH   4   7
ATOM      7  C   UNL     1       1.934   8.419  18.757  0.00  0.00    +0.000 A 
ATOM      8  C   UNL     1       1.214   9.426  19.452  0.00  0.00    +0.000 A 
ATOM      9  C   UNL     1       1.352  10.556  18.682  0.00  0.00    +0.000 A 
ATOM     10  O   UNL     1       2.071  10.247  17.573  0.00  0.00    +0.000 OA
ATOM     11  N   UNL     1       2.435   8.917  17.615  0.00  0.00    +0.000 NA
BRANCH   9  12
ATOM     12  C   UNL     1       0.926  11.959  18.815  0.00  0.00    +0.000 C 
ATOM     13  F   UNL     1      -0.428  12.076  18.791  0.00  0.00    +0.000 F 
ATOM     14  F   UNL     1       1.343  12.514  19.980  0.00  0.00    +0.000 F 
ATOM     15  F   UNL     1       1.401  12.739  17.810  0.00  0.00    +0.000 F 
ENDBRANCH   9  12
ENDBRANCH   4   7
BRANCH   6  16
ATOM     16  S   UNL     1       3.434   3.621  17.377  0.00  0.00    +0.000 S 
ATOM     17  O   UNL     1       4.201   2.552  17.970  0.00  0.00    +0.000 OA
ATOM     18  O   UNL     1       2.300   3.323  16.521  0.00  0.00    +0.000 OA
BRANCH  16  19
ATOM     19  N   UNL     1       4.448   4.617  16.453  0.00  0.00    +0.000 N 
ATOM     20  H   UNL     1       3.935   5.119  15.731  0.00  0.00    +0.000 HD
BRANCH  19  21
ATOM     21  C   UNL     1       5.490   5.322  17.116  0.00  0.00    +0.000 A 
ATOM     22  C   UNL     1       5.751   6.645  16.754  0.00  0.00    +0.000 A 
ATOM     23  C   UNL     1       6.819   7.327  17.340  0.00  0.00    +0.000 A 
ATOM     24  C   UNL     1       7.623   6.670  18.263  0.00  0.00    +0.000 A 
ATOM     25  F   UNL     1       8.668   7.310  18.804  0.00  0.00    +0.000 F 
ATOM     26  C   UNL     1       7.367   5.352  18.629  0.00  0.00    +0.000 A 
ATOM     27  C   UNL     1       6.288   4.674  18.061  0.00  0.00    +0.000 A 
ENDBRANCH  19  21
ENDBRANCH  16  19
ENDBRANCH   6  16
BRANCH   1  29
ATOM     28  C   UNL     1       1.390   2.755  21.583  0.00  0.00    +0.000 C 
ATOM     29  C   UNL     1       2.362   2.885  20.416  0.00  0.00    +0.000 C 
ENDBRANCH   1  29
TORSDOF 6
ENDMDL
MODEL 3
REMARK VINA RESULT:      -8.1      0.217      1.194
REMARK  Name = 
REMARK  7 active torsions:
REMARK  status: ('A' for Active; 'I' for Inactive)
REMARK    1  A    between atoms: C_1  and  C_2
REMARK    2  A    between atoms: C_2  and  C_3
REMARK    3  A    between atoms: C_6  and  C_7
REMARK    4  A    between atoms: C_9  and  C_10
REMARK    5  A    between atoms: C_17  and  S_18
REMARK    6  A    between atoms: S_18  and  N_21
REMARK    7  A    between atoms: N_21  and  C_22
REMARK                            x       y       z     vdW  Elec       q    Type
REMARK                         _______ _______ _______ _____ _____    ______ ____
ROOT
ATOM      1  C   UNL     1       2.579   4.307  20.071  0.00  0.00    +0.000 A 
ATOM      2  C   UNL     1       2.178   5.320  20.962  0.00  0.00    +0.000 A 
ATOM      3  C   UNL     1       2.019   6.642  20.542  0.00  0.00    +0.000 A 
ATOM      4  C   UNL     1       2.241   6.994  19.208  0.00  0.00    +0.000 A 
ATOM      5  C   UNL     1       2.703   6.011  18.325  0.00  0.00    +0.000 A 
ATOM      6  C   UNL     1       2.889   4.676  18.747  0.00  0.00    +0.000 A 
ENDROOT
BRANCH   4   7
ATOM      7  C   UNL     1       1.926   8.346  18.746  0.00  0.00    +0.000 A 
ATOM      8  C   UNL     1       1.198   9.359  19.426  0.00  0.00    +0.000 A 
ATOM      9  C   UNL     1       1.284  10.463  18.612  0.00  0.00    +0.000 A 
ATOM     10  O   UNL     1       1.978  10.133  17.494  0.00  0.00    +0.000 OA
ATOM     11  N   UNL     1       2.380   8.816  17.573  0.00  0.00    +0.000 NA
BRANCH   9  12
ATOM     12  C   UNL     1       0.824  11.859  18.708  0.00  0.00    +0.000 C 
ATOM     13  F   UNL     1      -0.417  12.015  18.173  0.00  0.00    +0.000 F 
ATOM     14  F   UNL     1       0.749  12.288  19.992  0.00  0.00    +0.000 F 
ATOM     15  F   UNL     1       1.642  12.717  18.047  0.00  0.00    +0.000 F 
ENDBRANCH   9  12
ENDBRANCH   4   7
BRANCH   6  16
ATOM     16  S   UNL     1       3.464   3.527  17.487  0.00  0.00    +0.000 S 
ATOM     17  O   UNL     1       2.686   2.313  17.524  0.00  0.00    +0.000 OA
ATOM     18  O   UNL     1       3.572   4.293  16.258  0.00  0.00    +0.000 OA
BRANCH  16  19
ATOM     19  N   UNL     1       5.061   3.205  17.959  0.00  0.00    +0.000 N 
ATOM     20  H   UNL     1       5.412   2.341  17.550  0.00  0.00    +0.000 HD
BRANCH  19  21
ATOM     21  C   UNL     1       5.971   4.293  18.054  0.00  0.00    +0.000 A 
ATOM     22  C   UNL     1       6.279   4.813  19.313  0.00  0.00    +0.000 A 
ATOM     23  C   UNL     1       7.110   5.929  19.418  0.00  0.00    +0.000 A 
ATOM     24  C   UNL     1       7.604   6.523  18.263  0.00  0.00    +0.000 A 
ATOM     25  F   UNL     1       8.376   7.613  18.359  0.00  0.00    +0.000 F 
ATOM     26  C   UNL     1       7.302   6.008  17.006  0.00  0.00    +0.000 A 
ATOM     27  C   UNL     1       6.489   4.880  16.898  0.00  0.00    +0.000 A 
ENDBRANCH  19  21
ENDBRANCH  16  19
ENDBRANCH   6  16
BRANCH   1  29
ATOM     28  C   UNL     1       1.357   2.688  21.525  0.00  0.00    +0.000 C 
ATOM     29  C   UNL     1       2.551   2.893  20.599  0.00  0.00    +0.000 C 
ENDBRANCH   1  29
TORSDOF 6
ENDMDL
MODEL 4
REMARK VINA RESULT:      -7.6      3.050      4.844
REMARK  Name = 
REMARK  7 active torsions:
REMARK  status: ('A' for Active; 'I' for Inactive)
REMARK    1  A    between atoms: C_1  and  C_2
REMARK    2  A    between atoms: C_2  and  C_3
REMARK    3  A    between atoms: C_6  and  C_7
REMARK    4  A    between atoms: C_9  and  C_10
REMARK    5  A    between atoms: C_17  and  S_18
REMARK    6  A    between atoms: S_18  and  N_21
REMARK    7  A    between atoms: N_21  and  C_22
REMARK                            x       y       z     vdW  Elec       q    Type
REMARK                         _______ _______ _______ _____ _____    ______ ____
ROOT
ATOM      1  C   UNL     1       5.482   5.989  16.536  0.00  0.00    +0.000 A 
ATOM      2  C   UNL     1       4.548   6.849  15.928  0.00  0.00    +0.000 A 
ATOM      3  C   UNL     1       3.511   7.432  16.658  0.00  0.00    +0.000 A 
ATOM      4  C   UNL     1       3.381   7.188  18.028  0.00  0.00    +0.000 A 
ATOM      5  C   UNL     1       4.263   6.284  18.632  0.00  0.00    +0.000 A 
ATOM      6  C   UNL     1       5.301   5.671  17.896  0.00  0.00    +0.000 A 
ENDROOT
BRANCH   4   7
ATOM      7  C   UNL     1       2.387   7.922  18.811  0.00  0.00    +0.000 A 
ATOM      8  C   UNL     1       1.889   7.616  20.106  0.00  0.00    +0.000 A 
ATOM      9  C   UNL     1       1.068   8.671  20.428  0.00  0.00    +0.000 A 
ATOM     10  O   UNL     1       1.035   9.537  19.383  0.00  0.00    +0.000 OA
ATOM     11  N   UNL     1       1.854   9.074  18.374  0.00  0.00    +0.000 NA
BRANCH   9  12
ATOM     12  C   UNL     1       0.281   9.046  21.614  0.00  0.00    +0.000 C 
ATOM     13  F   UNL     1      -0.730   8.165  21.843  0.00  0.00    +0.000 F 
ATOM     14  F   UNL     1       1.033   9.074  22.742  0.00  0.00    +0.000 F 
ATOM     15  F   UNL     1      -0.293  10.269  21.485  0.00  0.00    +0.000 F 
ENDBRANCH   9  12
ENDBRANCH   4   7
BRANCH   6  16
ATOM     16  S   UNL     1       6.364   4.552  18.822  0.00  0.00    +0.000 S 
ATOM     17  O   UNL     1       7.658   4.455  18.192  0.00  0.00    +0.000 OA
ATOM     18  O   UNL     1       6.254   4.947  20.215  0.00  0.00    +0.000 OA
BRANCH  16  19
ATOM     19  N   UNL     1       5.553   3.067  18.709  0.00  0.00    +0.000 N 
ATOM     20  H   UNL     1       6.073   2.313  19.155  0.00  0.00    +0.000 HD
BRANCH  19  21
ATOM     21  C   UNL     1       4.140   3.055  18.861  0.00  0.00    +0.000 A 
ATOM     22  C   UNL     1       3.595   3.003  20.145  0.00  0.00    +0.000 A 
ATOM     23  C   UNL     1       2.212   2.914  20.309  0.00  0.00    +0.000 A 
ATOM     24  C   UNL     1       1.394   2.856  19.187  0.00  0.00    +0.000 A 
ATOM     25  F   UNL     1       0.069   2.737  19.340  0.00  0.00    +0.000 F 
ATOM     26  C   UNL     1       1.931   2.909  17.904  0.00  0.00    +0.000 A 
ATOM     27  C   UNL     1       3.312   3.020  17.737  0.00  0.00    +0.000 A 
ENDBRANCH  19  21
ENDBRANCH  16  19
ENDBRANCH   6  16
BRANCH   1  29
ATOM     28  C   UNL     1       6.308   4.300  14.894  0.00  0.00    +0.000 C 
ATOM     29  C   UNL     1       6.653   5.556  15.687  0.00  0.00    +0.000 C 
ENDBRANCH   1  29
TORSDOF 6
ENDMDL
MODEL 5
REMARK VINA RESULT:      -7.6      4.466      9.020
REMARK  Name = 
REMARK  7 active torsions:
REMARK  status: ('A' for Active; 'I' for Inactive)
REMARK    1  A    between atoms: C_1  and  C_2
REMARK    2  A    between atoms: C_2  and  C_3
REMARK    3  A    between atoms: C_6  and  C_7
REMARK    4  A    between atoms: C_9  and  C_10
REMARK    5  A    between atoms: C_17  and  S_18
REMARK    6  A    between atoms: S_18  and  N_21
REMARK    7  A    between atoms: N_21  and  C_22
REMARK                            x       y       z     vdW  Elec       q    Type
REMARK                         _______ _______ _______ _____ _____    ______ ____
ROOT
ATOM      1  C   UNL     1       1.170   9.461  18.935  0.00  0.00    +0.000 A 
ATOM      2  C   UNL     1       1.857   8.914  17.835  0.00  0.00    +0.000 A 
ATOM      3  C   UNL     1       2.546   7.703  17.934  0.00  0.00    +0.000 A 
ATOM      4  C   UNL     1       2.558   6.989  19.135  0.00  0.00    +0.000 A 
ATOM      5  C   UNL     1       1.934   7.553  20.254  0.00  0.00    +0.000 A 
ATOM      6  C   UNL     1       1.254   8.788  20.170  0.00  0.00    +0.000 A 
ENDROOT
BRANCH   4   7
ATOM      7  C   UNL     1       3.152   5.653  19.186  0.00  0.00    +0.000 A 
ATOM      8  C   UNL     1       2.499   4.397  19.069  0.00  0.00    +0.000 A 
ATOM      9  C   UNL     1       3.514   3.470  19.071  0.00  0.00    +0.000 A 
ATOM     10  O   UNL     1       4.699   4.114  19.223  0.00  0.00    +0.000 OA
ATOM     11  N   UNL     1       4.479   5.473  19.295  0.00  0.00    +0.000 NA
BRANCH   9  12
ATOM     12  C   UNL     1       3.579   2.005  18.928  0.00  0.00    +0.000 C 
ATOM     13  F   UNL     1       3.907   1.640  17.659  0.00  0.00    +0.000 F 
ATOM     14  F   UNL     1       4.511   1.450  19.743  0.00  0.00    +0.000 F 
ATOM     15  F   UNL     1       2.394   1.407  19.210  0.00  0.00    +0.000 F 
ENDBRANCH   9  12
ENDBRANCH   4   7
BRANCH   6  16
ATOM     16  S   UNL     1       0.485   9.366  21.690  0.00  0.00    +0.000 S 
ATOM     17  O   UNL     1      -0.740   8.645  21.936  0.00  0.00    +0.000 OA
ATOM     18  O   UNL     1       1.535   9.392  22.692  0.00  0.00    +0.000 OA
BRANCH  16  19
ATOM     19  N   UNL     1       0.141  10.993  21.355  0.00  0.00    +0.000 N 
ATOM     20  H   UNL     1       0.474  11.271  20.434  0.00  0.00    +0.000 HD
BRANCH  19  21
ATOM     21  C   UNL     1      -1.110  11.519  21.778  0.00  0.00    +0.000 A 
ATOM     22  C   UNL     1      -1.898  12.217  20.860  0.00  0.00    +0.000 A 
ATOM     23  C   UNL     1      -3.093  12.806  21.277  0.00  0.00    +0.000 A 
ATOM     24  C   UNL     1      -3.472  12.708  22.610  0.00  0.00    +0.000 A 
ATOM     25  F   UNL     1      -4.602  13.299  23.021  0.00  0.00    +0.000 F 
ATOM     26  C   UNL     1      -2.692  12.013  23.529  0.00  0.00    +0.000 A 
ATOM     27  C   UNL     1      -1.508  11.404  23.111  0.00  0.00    +0.000 A 
ENDBRANCH  19  21
ENDBRANCH  16  19
ENDBRANCH   6  16
BRANCH   1  29
ATOM     28  C   UNL     1      -0.986  10.289  17.989  0.00  0.00    +0.000 C 
ATOM     29  C   UNL     1       0.324  10.682  18.663  0.00  0.00    +0.000 C 
ENDBRANCH   1  29
TORSDOF 6
ENDMDL
MODEL 6
REMARK VINA RESULT:      -7.6      2.276      2.836
REMARK  Name = 
REMARK  7 active torsions:
REMARK  status: ('A' for Active; 'I' for Inactive)
REMARK    1  A    between atoms: C_1  and  C_2
REMARK    2  A    between atoms: C_2  and  C_3
REMARK    3  A    between atoms: C_6  and  C_7
REMARK    4  A    between atoms: C_9  and  C_10
REMARK    5  A    between atoms: C_17  and  S_18
REMARK    6  A    between atoms: S_18  and  N_21
REMARK    7  A    between atoms: N_21  and  C_22
REMARK                            x       y       z     vdW  Elec       q    Type
REMARK                         _______ _______ _______ _____ _____    ______ ____
ROOT
ATOM      1  C   UNL     1       2.861   4.244  20.056  0.00  0.00    +0.000 A 
ATOM      2  C   UNL     1       1.896   4.938  20.809  0.00  0.00    +0.000 A 
ATOM      3  C   UNL     1       1.604   6.281  20.563  0.00  0.00    +0.000 A 
ATOM      4  C   UNL     1       2.258   6.974  19.541  0.00  0.00    +0.000 A 
ATOM      5  C   UNL     1       3.266   6.316  18.826  0.00  0.00    +0.000 A 
ATOM      6  C   UNL     1       3.584   4.964  19.084  0.00  0.00    +0.000 A 
ENDROOT
BRANCH   4   7
ATOM      7  C   UNL     1       1.838   8.331  19.192  0.00  0.00    +0.000 A 
ATOM      8  C   UNL     1       1.087   9.247  19.976  0.00  0.00    +0.000 A 
ATOM      9  C   UNL     1       1.064  10.407  19.239  0.00  0.00    +0.000 A 
ATOM     10  O   UNL     1       1.717  10.198  18.068  0.00  0.00    +0.000 OA
ATOM     11  N   UNL     1       2.200   8.907  18.033  0.00  0.00    +0.000 NA
BRANCH   9  12
ATOM     12  C   UNL     1       0.526  11.761  19.455  0.00  0.00    +0.000 C 
ATOM     13  F   UNL     1      -0.702  11.725  20.038  0.00  0.00    +0.000 F 
ATOM     14  F   UNL     1       1.319  12.505  20.266  0.00  0.00    +0.000 F 
ATOM     15  F   UNL     1       0.385  12.450  18.294  0.00  0.00    +0.000 F 
ENDBRANCH   9  12
ENDBRANCH   4   7
BRANCH   6  16
ATOM     16  S   UNL     1       4.887   4.256  18.065  0.00  0.00    +0.000 S 
ATOM     17  O   UNL     1       6.122   4.189  18.808  0.00  0.00    +0.000 OA
ATOM     18  O   UNL     1       4.328   3.060  17.463  0.00  0.00    +0.000 OA
BRANCH  16  19
ATOM     19  N   UNL     1       5.036   5.372  16.797  0.00  0.00    +0.000 N 
ATOM     20  H   UNL     1       5.295   6.298  17.132  0.00  0.00    +0.000 HD
BRANCH  19  21
ATOM     21  C   UNL     1       5.625   4.937  15.579  0.00  0.00    +0.000 A 
ATOM     22  C   UNL     1       6.950   5.281  15.305  0.00  0.00    +0.000 A 
ATOM     23  C   UNL     1       7.520   4.927  14.081  0.00  0.00    +0.000 A 
ATOM     24  C   UNL     1       6.750   4.254  13.139  0.00  0.00    +0.000 A 
ATOM     25  F   UNL     1       7.284   3.942  11.951  0.00  0.00    +0.000 F 
ATOM     26  C   UNL     1       5.430   3.907  13.408  0.00  0.00    +0.000 A 
ATOM     27  C   UNL     1       4.864   4.240  14.638  0.00  0.00    +0.000 A 
ENDBRANCH  19  21
ENDBRANCH  16  19
ENDBRANCH   6  16
BRANCH   1  29
ATOM     28  C   UNL     1       1.794   2.023  19.662  0.00  0.00    +0.000 C 
ATOM     29  C   UNL     1       2.967   2.758  20.300  0.00  0.00    +0.000 C 
ENDBRANCH   1  29
TORSDOF 6
ENDMDL
MODEL 7
REMARK VINA RESULT:      -7.6      2.864      4.667
REMARK  Name = 
REMARK  7 active torsions:
REMARK  status: ('A' for Active; 'I' for Inactive)
REMARK    1  A    between atoms: C_1  and  C_2
REMARK    2  A    between atoms: C_2  and  C_3
REMARK    3  A    between atoms: C_6  and  C_7
REMARK    4  A    between atoms: C_9  and  C_10
REMARK    5  A    between atoms: C_17  and  S_18
REMARK    6  A    between atoms: S_18  and  N_21
REMARK    7  A    between atoms: N_21  and  C_22
REMARK                            x       y       z     vdW  Elec       q    Type
REMARK                         _______ _______ _______ _____ _____    ______ ____
ROOT
ATOM      1  C   UNL     1       5.753   5.821  16.340  0.00  0.00    +0.000 A 
ATOM      2  C   UNL     1       4.874   6.635  15.601  0.00  0.00    +0.000 A 
ATOM      3  C   UNL     1       3.828   7.326  16.214  0.00  0.00    +0.000 A 
ATOM      4  C   UNL     1       3.633   7.239  17.595  0.00  0.00    +0.000 A 
ATOM      5  C   UNL     1       4.458   6.383  18.334  0.00  0.00    +0.000 A 
ATOM      6  C   UNL     1       5.505   5.662  17.718  0.00  0.00    +0.000 A 
ENDROOT
BRANCH   4   7
ATOM      7  C   UNL     1       2.632   8.084  18.247  0.00  0.00    +0.000 A 
ATOM      8  C   UNL     1       1.932   9.195  17.705  0.00  0.00    +0.000 A 
ATOM      9  C   UNL     1       1.036   9.560  18.682  0.00  0.00    +0.000 A 
ATOM     10  O   UNL     1       1.208   8.754  19.760  0.00  0.00    +0.000 OA
ATOM     11  N   UNL     1       2.201   7.834  19.495  0.00  0.00    +0.000 NA
BRANCH   9  12
ATOM     12  C   UNL     1      -0.028  10.572  18.785  0.00  0.00    +0.000 C 
ATOM     13  F   UNL     1       0.464  11.832  18.649  0.00  0.00    +0.000 F 
ATOM     14  F   UNL     1      -0.976  10.421  17.826  0.00  0.00    +0.000 F 
ATOM     15  F   UNL     1      -0.663  10.531  19.984  0.00  0.00    +0.000 F 
ENDBRANCH   9  12
ENDBRANCH   4   7
BRANCH   6  16
ATOM     16  S   UNL     1       6.489   4.623  18.808  0.00  0.00    +0.000 S 
ATOM     17  O   UNL     1       7.831   4.492  18.296  0.00  0.00    +0.000 OA
ATOM     18  O   UNL     1       6.262   5.116  20.154  0.00  0.00    +0.000 OA
BRANCH  16  19
ATOM     19  N   UNL     1       5.695   3.126  18.736  0.00  0.00    +0.000 N 
ATOM     20  H   UNL     1       6.194   2.405  19.254  0.00  0.00    +0.000 HD
BRANCH  19  21
ATOM     21  C   UNL     1       4.276   3.110  18.808  0.00  0.00    +0.000 A 
ATOM     22  C   UNL     1       3.659   3.153  20.060  0.00  0.00    +0.000 A 
ATOM     23  C   UNL     1       2.269   3.062  20.153  0.00  0.00    +0.000 A 
ATOM     24  C   UNL     1       1.517   2.905  18.994  0.00  0.00    +0.000 A 
ATOM     25  F   UNL     1       0.186   2.784  19.082  0.00  0.00    +0.000 F 
ATOM     26  C   UNL     1       2.126   2.863  17.744  0.00  0.00    +0.000 A 
ATOM     27  C   UNL     1       3.513   2.976  17.646  0.00  0.00    +0.000 A 
ENDBRANCH  19  21
ENDBRANCH  16  19
ENDBRANCH   6  16
BRANCH   1  29
ATOM     28  C   UNL     1       6.490   4.445  14.394  0.00  0.00    +0.000 C 
ATOM     29  C   UNL     1       6.943   5.263  15.598  0.00  0.00    +0.000 C 
ENDBRANCH   1  29
TORSDOF 6
ENDMDL
MODEL 8
REMARK VINA RESULT:      -7.5      2.320      2.929
REMARK  Name = 
REMARK  7 active torsions:
REMARK  status: ('A' for Active; 'I' for Inactive)
REMARK    1  A    between atoms: C_1  and  C_2
REMARK    2  A    between atoms: C_2  and  C_3
REMARK    3  A    between atoms: C_6  and  C_7
REMARK    4  A    between atoms: C_9  and  C_10
REMARK    5  A    between atoms: C_17  and  S_18
REMARK    6  A    between atoms: S_18  and  N_21
REMARK    7  A    between atoms: N_21  and  C_22
REMARK                            x       y       z     vdW  Elec       q    Type
REMARK                         _______ _______ _______ _____ _____    ______ ____
ROOT
ATOM      1  C   UNL     1       3.003   4.437  19.916  0.00  0.00    +0.000 A 
ATOM      2  C   UNL     1       2.054   5.177  20.647  0.00  0.00    +0.000 A 
ATOM      3  C   UNL     1       1.748   6.498  20.317  0.00  0.00    +0.000 A 
ATOM      4  C   UNL     1       2.370   7.123  19.234  0.00  0.00    +0.000 A 
ATOM      5  C   UNL     1       3.363   6.422  18.539  0.00  0.00    +0.000 A 
ATOM      6  C   UNL     1       3.696   5.092  18.879  0.00  0.00    +0.000 A 
ENDROOT
BRANCH   4   7
ATOM      7  C   UNL     1       1.934   8.452  18.805  0.00  0.00    +0.000 A 
ATOM      8  C   UNL     1       1.130   9.384  19.515  0.00  0.00    +0.000 A 
ATOM      9  C   UNL     1       1.109  10.508  18.724  0.00  0.00    +0.000 A 
ATOM     10  O   UNL     1       1.815  10.262  17.591  0.00  0.00    +0.000 OA
ATOM     11  N   UNL     1       2.330   8.983  17.637  0.00  0.00    +0.000 NA
BRANCH   9  12
ATOM     12  C   UNL     1       0.532  11.856  18.854  0.00  0.00    +0.000 C 
ATOM     13  F   UNL     1       1.216  12.768  18.114  0.00  0.00    +0.000 F 
ATOM     14  F   UNL     1      -0.757  11.905  18.435  0.00  0.00    +0.000 F 
ATOM     15  F   UNL     1       0.552  12.302  20.136  0.00  0.00    +0.000 F 
ENDBRANCH   9  12
ENDBRANCH   4   7
BRANCH   6  16
ATOM     16  S   UNL     1       4.976   4.322  17.876  0.00  0.00    +0.000 S 
ATOM     17  O   UNL     1       6.171   4.121  18.659  0.00  0.00    +0.000 OA
ATOM     18  O   UNL     1       4.345   3.203  17.201  0.00  0.00    +0.000 OA
BRANCH  16  19
ATOM     19  N   UNL     1       5.265   5.475  16.666  0.00  0.00    +0.000 N 
ATOM     20  H   UNL     1       5.681   6.325  17.041  0.00  0.00    +0.000 HD
BRANCH  19  21
ATOM     21  C   UNL     1       5.737   5.026  15.403  0.00  0.00    +0.000 A 
ATOM     22  C   UNL     1       4.849   4.388  14.534  0.00  0.00    +0.000 A 
ATOM     23  C   UNL     1       5.313   3.873  13.323  0.00  0.00    +0.000 A 
ATOM     24  C   UNL     1       6.663   3.983  13.007  0.00  0.00    +0.000 A 
ATOM     25  F   UNL     1       7.117   3.461  11.861  0.00  0.00    +0.000 F 
ATOM     26  C   UNL     1       7.552   4.618  13.869  0.00  0.00    +0.000 A 
ATOM     27  C   UNL     1       7.087   5.153  15.070  0.00  0.00    +0.000 A 
ENDBRANCH  19  21
ENDBRANCH  16  19
ENDBRANCH   6  16
BRANCH   1  29
ATOM     28  C   UNL     1       1.948   2.187  19.688  0.00  0.00    +0.000 C 
ATOM     29  C   UNL     1       3.125   2.972  20.257  0.00  0.00    +0.000 C 
ENDBRANCH   1  29
TORSDOF 6
ENDMDL
MODEL 9
REMARK VINA RESULT:      -7.5      2.772      3.466
REMARK  Name = 
REMARK  7 active torsions:
REMARK  status: ('A' for Active; 'I' for Inactive)
REMARK    1  A    between atoms: C_1  and  C_2
REMARK    2  A    between atoms: C_2  and  C_3
REMARK    3  A    between atoms: C_6  and  C_7
REMARK    4  A    between atoms: C_9  and  C_10
REMARK    5  A    between atoms: C_17  and  S_18
REMARK    6  A    between atoms: S_18  and  N_21
REMARK    7  A    between atoms: N_21  and  C_22
REMARK                            x       y       z     vdW  Elec       q    Type
REMARK                         _______ _______ _______ _____ _____    ______ ____
ROOT
ATOM      1  C   UNL     1       3.669   3.965  19.712  0.00  0.00    +0.000 A 
ATOM      2  C   UNL     1       2.495   4.098  20.477  0.00  0.00    +0.000 A 
ATOM      3  C   UNL     1       1.868   5.334  20.644  0.00  0.00    +0.000 A 
ATOM      4  C   UNL     1       2.387   6.481  20.038  0.00  0.00    +0.000 A 
ATOM      5  C   UNL     1       3.590   6.376  19.329  0.00  0.00    +0.000 A 
ATOM      6  C   UNL     1       4.244   5.134  19.174  0.00  0.00    +0.000 A 
ENDROOT
BRANCH   4   7
ATOM      7  C   UNL     1       1.642   7.739  20.093  0.00  0.00    +0.000 A 
ATOM      8  C   UNL     1       0.875   8.259  21.170  0.00  0.00    +0.000 A 
ATOM      9  C   UNL     1       0.481   9.508  20.752  0.00  0.00    +0.000 A 
ATOM     10  O   UNL     1       0.940   9.716  19.492  0.00  0.00    +0.000 OA
ATOM     11  N   UNL     1       1.663   8.617  19.077  0.00  0.00    +0.000 NA
BRANCH   9  12
ATOM     12  C   UNL     1      -0.274  10.614  21.364  0.00  0.00    +0.000 C 
ATOM     13  F   UNL     1      -1.256  11.068  20.539  0.00  0.00    +0.000 F 
ATOM     14  F   UNL     1      -0.879  10.245  22.521  0.00  0.00    +0.000 F 
ATOM     15  F   UNL     1       0.516  11.680  21.650  0.00  0.00    +0.000 F 
ENDBRANCH   9  12
ENDBRANCH   4   7
BRANCH   6  16
ATOM     16  S   UNL     1       5.767   5.162  18.217  0.00  0.00    +0.000 S 
ATOM     17  O   UNL     1       5.917   6.434  17.554  0.00  0.00    +0.000 OA
ATOM     18  O   UNL     1       6.809   4.666  19.097  0.00  0.00    +0.000 OA
BRANCH  16  19
ATOM     19  N   UNL     1       5.525   3.937  17.069  0.00  0.00    +0.000 N 
ATOM     20  H   UNL     1       4.626   3.475  17.188  0.00  0.00    +0.000 HD
BRANCH  19  21
ATOM     21  C   UNL     1       5.965   4.164  15.737  0.00  0.00    +0.000 A 
ATOM     22  C   UNL     1       5.188   3.694  14.676  0.00  0.00    +0.000 A 
ATOM     23  C   UNL     1       5.642   3.840  13.364  0.00  0.00    +0.000 A 
ATOM     24  C   UNL     1       6.877   4.434  13.132  0.00  0.00    +0.000 A 
ATOM     25  F   UNL     1       7.331   4.546  11.878  0.00  0.00    +0.000 F 
ATOM     26  C   UNL     1       7.655   4.905  14.185  0.00  0.00    +0.000 A 
ATOM     27  C   UNL     1       7.194   4.780  15.496  0.00  0.00    +0.000 A 
ENDBRANCH  19  21
ENDBRANCH  16  19
ENDBRANCH   6  16
BRANCH   1  29
ATOM     28  C   UNL     1       3.142   1.774  18.640  0.00  0.00    +0.000 C 
ATOM     29  C   UNL     1       4.158   2.558  19.463  0.00  0.00    +0.000 C 
ENDBRANCH   1  29
TORSDOF 6
ENDMDL
