MODEL 1
REMARK VINA RESULT:      -6.7      0.000      0.000
REMARK  Name = 
REMARK  6 active torsions:
REMARK  status: ('A' for Active; 'I' for Inactive)
REMARK    1  A    between atoms: C_2  and  C_3
REMARK    2  A    between atoms: C_4  and  N_5
REMARK    3  A    between atoms: C_8  and  C_9
REMARK    4  A    between atoms: C_15  and  C_16
REMARK    5  A    between atoms: N_24  and  N_25
REMARK    6  A    between atoms: C_26  and  C_28
REMARK                            x       y       z     vdW  Elec       q    Type
REMARK                         _______ _______ _______ _____ _____    ______ ____
ROOT
ATOM      1  C   UNL     1      -1.309  13.798  20.065  0.00  0.00    +0.000 A 
ATOM      2  C   UNL     1      -1.425  12.517  19.485  0.00  0.00    +0.000 A 
ATOM      3  C   UNL     1      -0.250  11.965  19.011  0.00  0.00    +0.000 A 
ATOM      4  C   UNL     1       0.966  12.644  18.956  0.00  0.00    +0.000 A 
ATOM      5  C   UNL     1       1.118  13.955  19.452  0.00  0.00    +0.000 A 
ATOM      6  C   UNL     1      -0.066  14.553  20.068  0.00  0.00    +0.000 A 
ATOM      7  C   UNL     1       1.918  11.676  18.340  0.00  0.00    +0.000 C 
ATOM      8  O   UNL     1       2.991  11.937  17.824  0.00  0.00    +0.000 OA
ATOM      9  N   UNL     1       1.286  10.463  18.348  0.00  0.00    +0.000 N 
ATOM     10  C   UNL     1      -0.061  10.607  18.494  0.00  0.00    +0.000 C 
ATOM     11  O   UNL     1      -0.972   9.865  18.171  0.00  0.00    +0.000 OA
ENDROOT
BRANCH   5  12
ATOM     12  C   UNL     1       2.456  14.631  19.420  0.00  0.00    +0.000 A 
ATOM     13  C   UNL     1       2.810  15.557  18.420  0.00  0.00    +0.000 A 
ATOM     14  C   UNL     1       3.956  16.357  18.528  0.00  0.00    +0.000 A 
ATOM     15  C   UNL     1       4.846  16.165  19.579  0.00  0.00    +0.000 A 
ATOM     16  C   UNL     1       4.587  15.180  20.520  0.00  0.00    +0.000 A 
ATOM     17  C   UNL     1       3.394  14.451  20.459  0.00  0.00    +0.000 A 
ENDBRANCH   5  12
BRANCH   6  18
ATOM     18  C   UNL     1      -0.032  15.906  20.746  0.00  0.00    +0.000 A 
ATOM     19  C   UNL     1      -0.279  17.105  20.043  0.00  0.00    +0.000 A 
ATOM     20  C   UNL     1      -0.240  18.359  20.669  0.00  0.00    +0.000 A 
ATOM     21  C   UNL     1       0.148  18.461  21.997  0.00  0.00    +0.000 A 
ATOM     22  C   UNL     1       0.420  17.305  22.716  0.00  0.00    +0.000 A 
ATOM     23  C   UNL     1       0.266  16.047  22.115  0.00  0.00    +0.000 A 
ENDBRANCH   6  18
BRANCH   9  24
ATOM     24  N   UNL     1       1.866   9.300  17.851  0.00  0.00    +0.000 N 
ATOM     25  C   UNL     1       2.098   8.259  18.734  0.00  0.00    +0.000 C 
ATOM     26  O   UNL     1       1.825   8.288  19.930  0.00  0.00    +0.000 OA
ATOM     27  H   UNL     1       2.071   9.268  16.863  0.00  0.00    +0.000 HD
BRANCH  25  28
ATOM     28  C   UNL     1       2.719   7.043  18.152  0.00  0.00    +0.000 A 
ATOM     29  C   UNL     1       3.949   7.106  17.487  0.00  0.00    +0.000 A 
ATOM     30  C   UNL     1       4.526   5.938  16.982  0.00  0.00    +0.000 A 
ATOM     31  C   UNL     1       3.877   4.712  17.133  0.00  0.00    +0.000 A 
ATOM     32  C   UNL     1       2.652   4.645  17.798  0.00  0.00    +0.000 A 
ATOM     33  C   UNL     1       2.074   5.807  18.314  0.00  0.00    +0.000 A 
ENDBRANCH  25  28
ENDBRANCH   9  24
BRANCH   2  34
ATOM     34  N   UNL     1      -2.578  11.727  19.601  0.00  0.00    +0.000 N 
ATOM     35  H   UNL     1      -2.614  10.859  19.070  0.00  0.00    +0.000 HD
ATOM     36  H   UNL     1      -2.916  11.605  20.564  0.00  0.00    +0.000 HD
ENDBRANCH   2  34
BRANCH   1  38
ATOM     37  N   UNL     1      -3.512  14.642  21.161  0.00  0.00    +0.000 NA
ATOM     38  C   UNL     1      -2.506  14.312  20.687  0.00  0.00    +0.000 C 
ENDBRANCH   1  38
TORSDOF 6
ENDMDL
MODEL 2
REMARK VINA RESULT:      -6.7      0.184      1.165
REMARK  Name = 
REMARK  6 active torsions:
REMARK  status: ('A' for Active; 'I' for Inactive)
REMARK    1  A    between atoms: C_2  and  C_3
REMARK    2  A    between atoms: C_4  and  N_5
REMARK    3  A    between atoms: C_8  and  C_9
REMARK    4  A    between atoms: C_15  and  C_16
REMARK    5  A    between atoms: N_24  and  N_25
REMARK    6  A    between atoms: C_26  and  C_28
REMARK                            x       y       z     vdW  Elec       q    Type
REMARK                         _______ _______ _______ _____ _____    ______ ____
ROOT
ATOM      1  C   UNL     1      -1.355  13.794  20.037  0.00  0.00    +0.000 A 
ATOM      2  C   UNL     1      -1.455  12.504  19.473  0.00  0.00    +0.000 A 
ATOM      3  C   UNL     1      -0.274  11.961  19.005  0.00  0.00    +0.000 A 
ATOM      4  C   UNL     1       0.933  12.653  18.940  0.00  0.00    +0.000 A 
ATOM      5  C   UNL     1       1.070  13.972  19.420  0.00  0.00    +0.000 A 
ATOM      6  C   UNL     1      -0.121  14.564  20.029  0.00  0.00    +0.000 A 
ATOM      7  C   UNL     1       1.897  11.690  18.336  0.00  0.00    +0.000 C 
ATOM      8  O   UNL     1       2.965  11.957  17.816  0.00  0.00    +0.000 OA
ATOM      9  N   UNL     1       1.279  10.469  18.360  0.00  0.00    +0.000 N 
ATOM     10  C   UNL     1      -0.069  10.599  18.505  0.00  0.00    +0.000 C 
ATOM     11  O   UNL     1      -0.971   9.842  18.192  0.00  0.00    +0.000 OA
ENDROOT
BRANCH   5  12
ATOM     12  C   UNL     1       2.399  14.665  19.378  0.00  0.00    +0.000 A 
ATOM     13  C   UNL     1       3.377  14.483  20.375  0.00  0.00    +0.000 A 
ATOM     14  C   UNL     1       4.692  14.939  20.209  0.00  0.00    +0.000 A 
ATOM     15  C   UNL     1       5.035  15.698  19.096  0.00  0.00    +0.000 A 
ATOM     16  C   UNL     1       4.064  15.994  18.150  0.00  0.00    +0.000 A 
ATOM     17  C   UNL     1       2.779  15.456  18.274  0.00  0.00    +0.000 A 
ENDBRANCH   5  12
BRANCH   6  18
ATOM     18  C   UNL     1      -0.104  15.925  20.690  0.00  0.00    +0.000 A 
ATOM     19  C   UNL     1      -0.380  17.112  19.975  0.00  0.00    +0.000 A 
ATOM     20  C   UNL     1      -0.355  18.373  20.585  0.00  0.00    +0.000 A 
ATOM     21  C   UNL     1       0.046  18.498  21.907  0.00  0.00    +0.000 A 
ATOM     22  C   UNL     1       0.347  17.356  22.637  0.00  0.00    +0.000 A 
ATOM     23  C   UNL     1       0.208  16.089  22.053  0.00  0.00    +0.000 A 
ENDBRANCH   6  18
BRANCH   9  24
ATOM     24  N   UNL     1       1.873   9.307  17.876  0.00  0.00    +0.000 N 
ATOM     25  C   UNL     1       2.115   8.279  18.772  0.00  0.00    +0.000 C 
ATOM     26  O   UNL     1       1.839   8.318  19.967  0.00  0.00    +0.000 OA
ATOM     27  H   UNL     1       2.080   9.266  16.890  0.00  0.00    +0.000 HD
BRANCH  25  28
ATOM     28  C   UNL     1       2.751   7.063  18.205  0.00  0.00    +0.000 A 
ATOM     29  C   UNL     1       2.142   5.808  18.320  0.00  0.00    +0.000 A 
ATOM     30  C   UNL     1       2.747   4.687  17.744  0.00  0.00    +0.000 A 
ATOM     31  C   UNL     1       3.957   4.816  17.062  0.00  0.00    +0.000 A 
ATOM     32  C   UNL     1       4.564   6.067  16.942  0.00  0.00    +0.000 A 
ATOM     33  C   UNL     1       3.961   7.192  17.507  0.00  0.00    +0.000 A 
ENDBRANCH  25  28
ENDBRANCH   9  24
BRANCH   2  34
ATOM     34  N   UNL     1      -2.599  11.702  19.600  0.00  0.00    +0.000 N 
ATOM     35  H   UNL     1      -2.745  10.971  18.906  0.00  0.00    +0.000 HD
ATOM     36  H   UNL     1      -2.782  11.370  20.556  0.00  0.00    +0.000 HD
ENDBRANCH   2  34
BRANCH   1  38
ATOM     37  N   UNL     1      -3.486  14.682  21.235  0.00  0.00    +0.000 NA
ATOM     38  C   UNL     1      -2.558  14.301  20.654  0.00  0.00    +0.000 C 
ENDBRANCH   1  38
TORSDOF 6
ENDMDL
MODEL 3
REMARK VINA RESULT:      -6.6      7.199      8.933
REMARK  Name = 
REMARK  6 active torsions:
REMARK  status: ('A' for Active; 'I' for Inactive)
REMARK    1  A    between atoms: C_2  and  C_3
REMARK    2  A    between atoms: C_4  and  N_5
REMARK    3  A    between atoms: C_8  and  C_9
REMARK    4  A    between atoms: C_15  and  C_16
REMARK    5  A    between atoms: N_24  and  N_25
REMARK    6  A    between atoms: C_26  and  C_28
REMARK                            x       y       z     vdW  Elec       q    Type
REMARK                         _______ _______ _______ _____ _____    ______ ____
ROOT
ATOM      1  C   UNL     1      10.708  14.794  19.846  0.00  0.00    +0.000 A 
ATOM      2  C   UNL     1      10.969  13.624  19.101  0.00  0.00    +0.000 A 
ATOM      3  C   UNL     1      10.321  12.482  19.531  0.00  0.00    +0.000 A 
ATOM      4  C   UNL     1       9.565  12.405  20.699  0.00  0.00    +0.000 A 
ATOM      5  C   UNL     1       9.337  13.527  21.522  0.00  0.00    +0.000 A 
ATOM      6  C   UNL     1       9.906  14.793  21.060  0.00  0.00    +0.000 A 
ATOM      7  C   UNL     1       9.110  10.987  20.768  0.00  0.00    +0.000 C 
ATOM      8  O   UNL     1       8.695  10.403  21.754  0.00  0.00    +0.000 OA
ATOM      9  N   UNL     1       9.379  10.441  19.543  0.00  0.00    +0.000 N 
ATOM     10  C   UNL     1      10.303  11.177  18.865  0.00  0.00    +0.000 C 
ATOM     11  O   UNL     1      11.070  10.852  17.976  0.00  0.00    +0.000 OA
ENDROOT
BRANCH   5  12
ATOM     12  C   UNL     1       8.476  13.413  22.744  0.00  0.00    +0.000 A 
ATOM     13  C   UNL     1       7.084  13.622  22.709  0.00  0.00    +0.000 A 
ATOM     14  C   UNL     1       6.260  13.284  23.792  0.00  0.00    +0.000 A 
ATOM     15  C   UNL     1       6.820  12.842  24.985  0.00  0.00    +0.000 A 
ATOM     16  C   UNL     1       8.199  12.735  25.092  0.00  0.00    +0.000 A 
ATOM     17  C   UNL     1       9.008  12.983  23.978  0.00  0.00    +0.000 A 
ENDBRANCH   5  12
BRANCH   6  18
ATOM     18  C   UNL     1       9.653  16.104  21.772  0.00  0.00    +0.000 A 
ATOM     19  C   UNL     1       8.580  16.953  21.423  0.00  0.00    +0.000 A 
ATOM     20  C   UNL     1       8.350  18.172  22.076  0.00  0.00    +0.000 A 
ATOM     21  C   UNL     1       9.247  18.629  23.031  0.00  0.00    +0.000 A 
ATOM     22  C   UNL     1      10.327  17.832  23.384  0.00  0.00    +0.000 A 
ATOM     23  C   UNL     1      10.486  16.563  22.811  0.00  0.00    +0.000 A 
ENDBRANCH   6  18
BRANCH   9  24
ATOM     24  N   UNL     1       9.090   9.119  19.221  0.00  0.00    +0.000 N 
ATOM     25  C   UNL     1       8.135   8.880  18.247  0.00  0.00    +0.000 C 
ATOM     26  O   UNL     1       7.524   9.756  17.643  0.00  0.00    +0.000 OA
ATOM     27  H   UNL     1       9.608   8.398  19.702  0.00  0.00    +0.000 HD
BRANCH  25  28
ATOM     28  C   UNL     1       7.864   7.452  17.942  0.00  0.00    +0.000 A 
ATOM     29  C   UNL     1       8.147   6.447  18.873  0.00  0.00    +0.000 A 
ATOM     30  C   UNL     1       7.847   5.116  18.571  0.00  0.00    +0.000 A 
ATOM     31  C   UNL     1       7.273   4.788  17.343  0.00  0.00    +0.000 A 
ATOM     32  C   UNL     1       6.986   5.788  16.414  0.00  0.00    +0.000 A 
ATOM     33  C   UNL     1       7.274   7.121  16.712  0.00  0.00    +0.000 A 
ENDBRANCH  25  28
ENDBRANCH   9  24
BRANCH   2  34
ATOM     34  N   UNL     1      11.620  13.640  17.858  0.00  0.00    +0.000 N 
ATOM     35  H   UNL     1      11.583  12.794  17.292  0.00  0.00    +0.000 HD
ATOM     36  H   UNL     1      11.452  14.487  17.300  0.00  0.00    +0.000 HD
ENDBRANCH   2  34
BRANCH   1  38
ATOM     37  N   UNL     1      11.648  16.990  18.817  0.00  0.00    +0.000 NA
ATOM     38  C   UNL     1      11.269  16.013  19.312  0.00  0.00    +0.000 C 
ENDBRANCH   1  38
TORSDOF 6
ENDMDL
MODEL 4
REMARK VINA RESULT:      -6.6      0.998      1.557
REMARK  Name = 
REMARK  6 active torsions:
REMARK  status: ('A' for Active; 'I' for Inactive)
REMARK    1  A    between atoms: C_2  and  C_3
REMARK    2  A    between atoms: C_4  and  N_5
REMARK    3  A    between atoms: C_8  and  C_9
REMARK    4  A    between atoms: C_15  and  C_16
REMARK    5  A    between atoms: N_24  and  N_25
REMARK    6  A    between atoms: C_26  and  C_28
REMARK                            x       y       z     vdW  Elec       q    Type
REMARK                         _______ _______ _______ _____ _____    ______ ____
ROOT
ATOM      1  C   UNL     1      -2.133  13.150  19.861  0.00  0.00    +0.000 A 
ATOM      2  C   UNL     1      -2.056  11.954  19.115  0.00  0.00    +0.000 A 
ATOM      3  C   UNL     1      -0.781  11.521  18.805  0.00  0.00    +0.000 A 
ATOM      4  C   UNL     1       0.377  12.251  19.065  0.00  0.00    +0.000 A 
ATOM      5  C   UNL     1       0.350  13.489  19.740  0.00  0.00    +0.000 A 
ATOM      6  C   UNL     1      -0.963  13.949  20.191  0.00  0.00    +0.000 A 
ATOM      7  C   UNL     1       1.486  11.416  18.523  0.00  0.00    +0.000 C 
ATOM      8  O   UNL     1       2.615  11.788  18.254  0.00  0.00    +0.000 OA
ATOM      9  N   UNL     1       0.944  10.187  18.262  0.00  0.00    +0.000 N 
ATOM     10  C   UNL     1      -0.413  10.254  18.169  0.00  0.00    +0.000 C 
ATOM     11  O   UNL     1      -1.200   9.525  17.591  0.00  0.00    +0.000 OA
ENDROOT
BRANCH   5  12
ATOM     12  C   UNL     1       1.624  14.219  20.044  0.00  0.00    +0.000 A 
ATOM     13  C   UNL     1       2.431  13.898  21.152  0.00  0.00    +0.000 A 
ATOM     14  C   UNL     1       3.726  14.417  21.295  0.00  0.00    +0.000 A 
ATOM     15  C   UNL     1       4.203  15.366  20.398  0.00  0.00    +0.000 A 
ATOM     16  C   UNL     1       3.387  15.791  19.359  0.00  0.00    +0.000 A 
ATOM     17  C   UNL     1       2.133  15.200  19.168  0.00  0.00    +0.000 A 
ENDBRANCH   5  12
BRANCH   6  18
ATOM     18  C   UNL     1      -1.142  15.198  21.027  0.00  0.00    +0.000 A 
ATOM     19  C   UNL     1      -1.098  15.171  22.438  0.00  0.00    +0.000 A 
ATOM     20  C   UNL     1      -1.272  16.326  23.213  0.00  0.00    +0.000 A 
ATOM     21  C   UNL     1      -1.597  17.529  22.603  0.00  0.00    +0.000 A 
ATOM     22  C   UNL     1      -1.671  17.591  21.218  0.00  0.00    +0.000 A 
ATOM     23  C   UNL     1      -1.381  16.458  20.445  0.00  0.00    +0.000 A 
ENDBRANCH   6  18
BRANCH   9  24
ATOM     24  N   UNL     1       1.680   9.127  17.741  0.00  0.00    +0.000 N 
ATOM     25  C   UNL     1       2.089   8.129  18.611  0.00  0.00    +0.000 C 
ATOM     26  O   UNL     1       1.845   8.112  19.813  0.00  0.00    +0.000 OA
ATOM     27  H   UNL     1       1.863   9.130  16.749  0.00  0.00    +0.000 HD
BRANCH  25  28
ATOM     28  C   UNL     1       2.871   7.023  18.004  0.00  0.00    +0.000 A 
ATOM     29  C   UNL     1       4.051   7.275  17.296  0.00  0.00    +0.000 A 
ATOM     30  C   UNL     1       4.786   6.210  16.768  0.00  0.00    +0.000 A 
ATOM     31  C   UNL     1       4.342   4.898  16.940  0.00  0.00    +0.000 A 
ATOM     32  C   UNL     1       3.168   4.643  17.650  0.00  0.00    +0.000 A 
ATOM     33  C   UNL     1       2.434   5.702  18.188  0.00  0.00    +0.000 A 
ENDBRANCH  25  28
ENDBRANCH   9  24
BRANCH   2  34
ATOM     34  N   UNL     1      -3.157  11.109  18.914  0.00  0.00    +0.000 N 
ATOM     35  H   UNL     1      -3.074  10.141  19.221  0.00  0.00    +0.000 HD
ATOM     36  H   UNL     1      -4.063  11.520  19.171  0.00  0.00    +0.000 HD
ENDBRANCH   2  34
BRANCH   1  38
ATOM     37  N   UNL     1      -4.501  13.767  20.741  0.00  0.00    +0.000 NA
ATOM     38  C   UNL     1      -3.454  13.525  20.307  0.00  0.00    +0.000 C 
ENDBRANCH   1  38
TORSDOF 6
ENDMDL
MODEL 5
REMARK VINA RESULT:      -6.6      7.088      9.005
REMARK  Name = 
REMARK  6 active torsions:
REMARK  status: ('A' for Active; 'I' for Inactive)
REMARK    1  A    between atoms: C_2  and  C_3
REMARK    2  A    between atoms: C_4  and  N_5
REMARK    3  A    between atoms: C_8  and  C_9
REMARK    4  A    between atoms: C_15  and  C_16
REMARK    5  A    between atoms: N_24  and  N_25
REMARK    6  A    between atoms: C_26  and  C_28
REMARK                            x       y       z     vdW  Elec       q    Type
REMARK                         _______ _______ _______ _____ _____    ______ ____
ROOT
ATOM      1  C   UNL     1      10.832  14.818  19.932  0.00  0.00    +0.000 A 
ATOM      2  C   UNL     1      11.122  13.632  19.225  0.00  0.00    +0.000 A 
ATOM      3  C   UNL     1      10.426  12.509  19.627  0.00  0.00    +0.000 A 
ATOM      4  C   UNL     1       9.589  12.465  20.740  0.00  0.00    +0.000 A 
ATOM      5  C   UNL     1       9.325  13.604  21.527  0.00  0.00    +0.000 A 
ATOM      6  C   UNL     1       9.948  14.852  21.086  0.00  0.00    +0.000 A 
ATOM      7  C   UNL     1       9.104  11.057  20.800  0.00  0.00    +0.000 C 
ATOM      8  O   UNL     1       8.611  10.496  21.763  0.00  0.00    +0.000 OA
ATOM      9  N   UNL     1       9.448  10.485  19.606  0.00  0.00    +0.000 N 
ATOM     10  C   UNL     1      10.430  11.193  18.982  0.00  0.00    +0.000 C 
ATOM     11  O   UNL     1      11.251  10.840  18.154  0.00  0.00    +0.000 OA
ENDROOT
BRANCH   5  12
ATOM     12  C   UNL     1       8.379  13.526  22.688  0.00  0.00    +0.000 A 
ATOM     13  C   UNL     1       8.823  13.353  24.013  0.00  0.00    +0.000 A 
ATOM     14  C   UNL     1       7.961  13.519  25.107  0.00  0.00    +0.000 A 
ATOM     15  C   UNL     1       6.604  13.742  24.901  0.00  0.00    +0.000 A 
ATOM     16  C   UNL     1       6.113  13.802  23.605  0.00  0.00    +0.000 A 
ATOM     17  C   UNL     1       6.993  13.731  22.519  0.00  0.00    +0.000 A 
ENDBRANCH   5  12
BRANCH   6  18
ATOM     18  C   UNL     1       9.670  16.180  21.758  0.00  0.00    +0.000 A 
ATOM     19  C   UNL     1      10.484  16.681  22.797  0.00  0.00    +0.000 A 
ATOM     20  C   UNL     1      10.223  17.906  23.425  0.00  0.00    +0.000 A 
ATOM     21  C   UNL     1       9.079  18.622  23.102  0.00  0.00    +0.000 A 
ATOM     22  C   UNL     1       8.242  18.150  22.101  0.00  0.00    +0.000 A 
ATOM     23  C   UNL     1       8.572  16.983  21.397  0.00  0.00    +0.000 A 
ENDBRANCH   6  18
BRANCH   9  24
ATOM     24  N   UNL     1       9.157   9.162  19.285  0.00  0.00    +0.000 N 
ATOM     25  C   UNL     1       8.203   8.923  18.311  0.00  0.00    +0.000 C 
ATOM     26  O   UNL     1       7.593   9.799  17.705  0.00  0.00    +0.000 OA
ATOM     27  H   UNL     1       9.674   8.442  19.767  0.00  0.00    +0.000 HD
BRANCH  25  28
ATOM     28  C   UNL     1       7.931   7.496  18.007  0.00  0.00    +0.000 A 
ATOM     29  C   UNL     1       8.181   6.494  18.953  0.00  0.00    +0.000 A 
ATOM     30  C   UNL     1       7.880   5.164  18.651  0.00  0.00    +0.000 A 
ATOM     31  C   UNL     1       7.338   4.831  17.409  0.00  0.00    +0.000 A 
ATOM     32  C   UNL     1       7.084   5.827  16.466  0.00  0.00    +0.000 A 
ATOM     33  C   UNL     1       7.373   7.160  16.764  0.00  0.00    +0.000 A 
ENDBRANCH  25  28
ENDBRANCH   9  24
BRANCH   2  34
ATOM     34  N   UNL     1      11.859  13.616  18.031  0.00  0.00    +0.000 N 
ATOM     35  H   UNL     1      11.421  14.006  17.198  0.00  0.00    +0.000 HD
ATOM     36  H   UNL     1      12.837  13.915  18.130  0.00  0.00    +0.000 HD
ENDBRANCH   2  34
BRANCH   1  38
ATOM     37  N   UNL     1      11.861  17.025  19.016  0.00  0.00    +0.000 NA
ATOM     38  C   UNL     1      11.451  16.018  19.419  0.00  0.00    +0.000 C 
ENDBRANCH   1  38
TORSDOF 6
ENDMDL
MODEL 6
REMARK VINA RESULT:      -6.6      0.976      1.540
REMARK  Name = 
REMARK  6 active torsions:
REMARK  status: ('A' for Active; 'I' for Inactive)
REMARK    1  A    between atoms: C_2  and  C_3
REMARK    2  A    between atoms: C_4  and  N_5
REMARK    3  A    between atoms: C_8  and  C_9
REMARK    4  A    between atoms: C_15  and  C_16
REMARK    5  A    between atoms: N_24  and  N_25
REMARK    6  A    between atoms: C_26  and  C_28
REMARK                            x       y       z     vdW  Elec       q    Type
REMARK                         _______ _______ _______ _____ _____    ______ ____
ROOT
ATOM      1  C   UNL     1      -2.126  13.117  19.842  0.00  0.00    +0.000 A 
ATOM      2  C   UNL     1      -2.030  11.909  19.118  0.00  0.00    +0.000 A 
ATOM      3  C   UNL     1      -0.749  11.497  18.807  0.00  0.00    +0.000 A 
ATOM      4  C   UNL     1       0.396  12.255  19.043  0.00  0.00    +0.000 A 
ATOM      5  C   UNL     1       0.348  13.504  19.695  0.00  0.00    +0.000 A 
ATOM      6  C   UNL     1      -0.971  13.946  20.148  0.00  0.00    +0.000 A 
ATOM      7  C   UNL     1       1.518  11.433  18.509  0.00  0.00    +0.000 C 
ATOM      8  O   UNL     1       2.637  11.823  18.224  0.00  0.00    +0.000 OA
ATOM      9  N   UNL     1       1.000  10.189  18.275  0.00  0.00    +0.000 N 
ATOM     10  C   UNL     1      -0.359  10.225  18.191  0.00  0.00    +0.000 C 
ATOM     11  O   UNL     1      -1.135   9.469  17.633  0.00  0.00    +0.000 OA
ENDROOT
BRANCH   5  12
ATOM     12  C   UNL     1       1.609  14.266  19.976  0.00  0.00    +0.000 A 
ATOM     13  C   UNL     1       2.436  13.978  21.079  0.00  0.00    +0.000 A 
ATOM     14  C   UNL     1       3.720  14.527  21.199  0.00  0.00    +0.000 A 
ATOM     15  C   UNL     1       4.165  15.475  20.286  0.00  0.00    +0.000 A 
ATOM     16  C   UNL     1       3.329  15.868  19.251  0.00  0.00    +0.000 A 
ATOM     17  C   UNL     1       2.087  15.247  19.082  0.00  0.00    +0.000 A 
ENDBRANCH   5  12
BRANCH   6  18
ATOM     18  C   UNL     1      -1.169  15.207  20.962  0.00  0.00    +0.000 A 
ATOM     19  C   UNL     1      -1.447  16.453  20.360  0.00  0.00    +0.000 A 
ATOM     20  C   UNL     1      -1.623  17.623  21.111  0.00  0.00    +0.000 A 
ATOM     21  C   UNL     1      -1.425  17.603  22.484  0.00  0.00    +0.000 A 
ATOM     22  C   UNL     1      -1.128  16.400  23.110  0.00  0.00    +0.000 A 
ATOM     23  C   UNL     1      -1.069  15.213  22.366  0.00  0.00    +0.000 A 
ENDBRANCH   6  18
BRANCH   9  24
ATOM     24  N   UNL     1       1.754   9.134  17.768  0.00  0.00    +0.000 N 
ATOM     25  C   UNL     1       2.114   8.116  18.635  0.00  0.00    +0.000 C 
ATOM     26  O   UNL     1       1.812   8.076  19.824  0.00  0.00    +0.000 OA
ATOM     27  H   UNL     1       1.984   9.156  16.786  0.00  0.00    +0.000 HD
BRANCH  25  28
ATOM     28  C   UNL     1       2.918   7.017  18.045  0.00  0.00    +0.000 A 
ATOM     29  C   UNL     1       2.530   5.679  18.186  0.00  0.00    +0.000 A 
ATOM     30  C   UNL     1       3.287   4.669  17.588  0.00  0.00    +0.000 A 
ATOM     31  C   UNL     1       4.432   4.990  16.857  0.00  0.00    +0.000 A 
ATOM     32  C   UNL     1       4.820   6.322  16.711  0.00  0.00    +0.000 A 
ATOM     33  C   UNL     1       4.063   7.337  17.298  0.00  0.00    +0.000 A 
ENDBRANCH  25  28
ENDBRANCH   9  24
BRANCH   2  34
ATOM     34  N   UNL     1      -3.115  11.037  18.941  0.00  0.00    +0.000 N 
ATOM     35  H   UNL     1      -3.702  10.840  19.750  0.00  0.00    +0.000 HD
ATOM     36  H   UNL     1      -3.670  11.214  18.094  0.00  0.00    +0.000 HD
ENDBRANCH   2  34
BRANCH   1  38
ATOM     37  N   UNL     1      -4.550  13.697  20.585  0.00  0.00    +0.000 NA
ATOM     38  C   UNL     1      -3.451  13.472  20.291  0.00  0.00    +0.000 C 
ENDBRANCH   1  38
TORSDOF 6
ENDMDL
MODEL 7
REMARK VINA RESULT:      -6.6      0.301      1.180
REMARK  Name = 
REMARK  6 active torsions:
REMARK  status: ('A' for Active; 'I' for Inactive)
REMARK    1  A    between atoms: C_2  and  C_3
REMARK    2  A    between atoms: C_4  and  N_5
REMARK    3  A    between atoms: C_8  and  C_9
REMARK    4  A    between atoms: C_15  and  C_16
REMARK    5  A    between atoms: N_24  and  N_25
REMARK    6  A    between atoms: C_26  and  C_28
REMARK                            x       y       z     vdW  Elec       q    Type
REMARK                         _______ _______ _______ _____ _____    ______ ____
ROOT
ATOM      1  C   UNL     1      -1.116  13.903  20.009  0.00  0.00    +0.000 A 
ATOM      2  C   UNL     1      -1.264  12.618  19.446  0.00  0.00    +0.000 A 
ATOM      3  C   UNL     1      -0.105  12.033  18.973  0.00  0.00    +0.000 A 
ATOM      4  C   UNL     1       1.126  12.681  18.904  0.00  0.00    +0.000 A 
ATOM      5  C   UNL     1       1.312  13.994  19.383  0.00  0.00    +0.000 A 
ATOM      6  C   UNL     1       0.145  14.629  19.996  0.00  0.00    +0.000 A 
ATOM      7  C   UNL     1       2.051  11.684  18.295  0.00  0.00    +0.000 C 
ATOM      8  O   UNL     1       3.127  11.913  17.771  0.00  0.00    +0.000 OA
ATOM      9  N   UNL     1       1.390  10.486  18.322  0.00  0.00    +0.000 N 
ATOM     10  C   UNL     1       0.048  10.664  18.473  0.00  0.00    +0.000 C 
ATOM     11  O   UNL     1      -0.882   9.940  18.163  0.00  0.00    +0.000 OA
ENDROOT
BRANCH   5  12
ATOM     12  C   UNL     1       2.665  14.639  19.336  0.00  0.00    +0.000 A 
ATOM     13  C   UNL     1       3.594  14.521  20.388  0.00  0.00    +0.000 A 
ATOM     14  C   UNL     1       4.930  14.919  20.238  0.00  0.00    +0.000 A 
ATOM     15  C   UNL     1       5.344  15.559  19.076  0.00  0.00    +0.000 A 
ATOM     16  C   UNL     1       4.424  15.795  18.064  0.00  0.00    +0.000 A 
ATOM     17  C   UNL     1       3.117  15.310  18.181  0.00  0.00    +0.000 A 
ENDBRANCH   5  12
BRANCH   6  18
ATOM     18  C   UNL     1       0.214  15.988  20.658  0.00  0.00    +0.000 A 
ATOM     19  C   UNL     1       0.488  16.141  22.035  0.00  0.00    +0.000 A 
ATOM     20  C   UNL     1       0.543  17.399  22.650  0.00  0.00    +0.000 A 
ATOM     21  C   UNL     1       0.227  18.540  21.927  0.00  0.00    +0.000 A 
ATOM     22  C   UNL     1      -0.068  18.428  20.575  0.00  0.00    +0.000 A 
ATOM     23  C   UNL     1      -0.009  17.179  19.941  0.00  0.00    +0.000 A 
ENDBRANCH   6  18
BRANCH   9  24
ATOM     24  N   UNL     1       1.940   9.304  17.836  0.00  0.00    +0.000 N 
ATOM     25  C   UNL     1       2.124   8.258  18.725  0.00  0.00    +0.000 C 
ATOM     26  O   UNL     1       1.832   8.299  19.916  0.00  0.00    +0.000 OA
ATOM     27  H   UNL     1       2.160   9.263  16.852  0.00  0.00    +0.000 HD
BRANCH  25  28
ATOM     28  C   UNL     1       2.714   7.020  18.155  0.00  0.00    +0.000 A 
ATOM     29  C   UNL     1       3.955   7.042  17.509  0.00  0.00    +0.000 A 
ATOM     30  C   UNL     1       4.502   5.855  17.016  0.00  0.00    +0.000 A 
ATOM     31  C   UNL     1       3.811   4.651  17.160  0.00  0.00    +0.000 A 
ATOM     32  C   UNL     1       2.575   4.625  17.807  0.00  0.00    +0.000 A 
ATOM     33  C   UNL     1       2.027   5.806  18.310  0.00  0.00    +0.000 A 
ENDBRANCH  25  28
ENDBRANCH   9  24
BRANCH   2  34
ATOM     34  N   UNL     1      -2.436  11.857  19.578  0.00  0.00    +0.000 N 
ATOM     35  H   UNL     1      -2.821  11.430  18.737  0.00  0.00    +0.000 HD
ATOM     36  H   UNL     1      -2.435  11.210  20.376  0.00  0.00    +0.000 HD
ENDBRANCH   2  34
BRANCH   1  38
ATOM     37  N   UNL     1      -3.187  14.934  21.198  0.00  0.00    +0.000 NA
ATOM     38  C   UNL     1      -2.297  14.453  20.631  0.00  0.00    +0.000 C 
ENDBRANCH   1  38
TORSDOF 6
ENDMDL
MODEL 8
REMARK VINA RESULT:      -6.5      2.979      4.359
REMARK  Name = 
REMARK  6 active torsions:
REMARK  status: ('A' for Active; 'I' for Inactive)
REMARK    1  A    between atoms: C_2  and  C_3
REMARK    2  A    between atoms: C_4  and  N_5
REMARK    3  A    between atoms: C_8  and  C_9
REMARK    4  A    between atoms: C_15  and  C_16
REMARK    5  A    between atoms: N_24  and  N_25
REMARK    6  A    between atoms: C_26  and  C_28
REMARK                            x       y       z     vdW  Elec       q    Type
REMARK                         _______ _______ _______ _____ _____    ______ ____
ROOT
ATOM      1  C   UNL     1      -5.016  12.612  19.399  0.00  0.00    +0.000 A 
ATOM      2  C   UNL     1      -4.383  11.689  18.538  0.00  0.00    +0.000 A 
ATOM      3  C   UNL     1      -3.032  11.497  18.754  0.00  0.00    +0.000 A 
ATOM      4  C   UNL     1      -2.270  12.242  19.652  0.00  0.00    +0.000 A 
ATOM      5  C   UNL     1      -2.839  13.230  20.482  0.00  0.00    +0.000 A 
ATOM      6  C   UNL     1      -4.287  13.404  20.377  0.00  0.00    +0.000 A 
ATOM      7  C   UNL     1      -0.884  11.713  19.509  0.00  0.00    +0.000 C 
ATOM      8  O   UNL     1       0.146  12.263  19.860  0.00  0.00    +0.000 OA
ATOM      9  N   UNL     1      -0.990  10.558  18.784  0.00  0.00    +0.000 N 
ATOM     10  C   UNL     1      -2.170  10.505  18.106  0.00  0.00    +0.000 C 
ATOM     11  O   UNL     1      -2.473   9.890  17.099  0.00  0.00    +0.000 OA
ENDROOT
BRANCH   5  12
ATOM     12  C   UNL     1      -1.992  13.975  21.470  0.00  0.00    +0.000 A 
ATOM     13  C   UNL     1      -1.428  15.232  21.184  0.00  0.00    +0.000 A 
ATOM     14  C   UNL     1      -0.844  16.023  22.184  0.00  0.00    +0.000 A 
ATOM     15  C   UNL     1      -0.698  15.525  23.474  0.00  0.00    +0.000 A 
ATOM     16  C   UNL     1      -1.140  14.241  23.762  0.00  0.00    +0.000 A 
ATOM     17  C   UNL     1      -1.806  13.495  22.784  0.00  0.00    +0.000 A 
ENDBRANCH   5  12
BRANCH   6  18
ATOM     18  C   UNL     1      -5.059  14.343  21.280  0.00  0.00    +0.000 A 
ATOM     19  C   UNL     1      -5.306  15.688  20.930  0.00  0.00    +0.000 A 
ATOM     20  C   UNL     1      -6.013  16.560  21.770  0.00  0.00    +0.000 A 
ATOM     21  C   UNL     1      -6.407  16.142  23.032  0.00  0.00    +0.000 A 
ATOM     22  C   UNL     1      -6.162  14.832  23.421  0.00  0.00    +0.000 A 
ATOM     23  C   UNL     1      -5.558  13.933  22.531  0.00  0.00    +0.000 A 
ENDBRANCH   6  18
BRANCH   9  24
ATOM     24  N   UNL     1       0.106   9.770  18.444  0.00  0.00    +0.000 N 
ATOM     25  C   UNL     1       0.675   8.986  19.434  0.00  0.00    +0.000 C 
ATOM     26  O   UNL     1       0.279   8.934  20.594  0.00  0.00    +0.000 OA
ATOM     27  H   UNL     1       0.419   9.796  17.486  0.00  0.00    +0.000 HD
BRANCH  25  28
ATOM     28  C   UNL     1       1.841   8.166  19.019  0.00  0.00    +0.000 A 
ATOM     29  C   UNL     1       2.251   7.058  19.771  0.00  0.00    +0.000 A 
ATOM     30  C   UNL     1       3.329   6.284  19.336  0.00  0.00    +0.000 A 
ATOM     31  C   UNL     1       4.002   6.616  18.159  0.00  0.00    +0.000 A 
ATOM     32  C   UNL     1       3.594   7.717  17.405  0.00  0.00    +0.000 A 
ATOM     33  C   UNL     1       2.511   8.490  17.829  0.00  0.00    +0.000 A 
ENDBRANCH  25  28
ENDBRANCH   9  24
BRANCH   2  34
ATOM     34  N   UNL     1      -5.093  10.824  17.693  0.00  0.00    +0.000 N 
ATOM     35  H   UNL     1      -4.566  10.105  17.200  0.00  0.00    +0.000 HD
ATOM     36  H   UNL     1      -5.966  10.457  18.094  0.00  0.00    +0.000 HD
ENDBRANCH   2  34
BRANCH   1  38
ATOM     37  N   UNL     1      -7.600  12.696  19.118  0.00  0.00    +0.000 NA
ATOM     38  C   UNL     1      -6.451  12.706  19.268  0.00  0.00    +0.000 C 
ENDBRANCH   1  38
TORSDOF 6
ENDMDL
MODEL 9
REMARK VINA RESULT:      -6.4      2.990      4.501
REMARK  Name = 
REMARK  6 active torsions:
REMARK  status: ('A' for Active; 'I' for Inactive)
REMARK    1  A    between atoms: C_2  and  C_3
REMARK    2  A    between atoms: C_4  and  N_5
REMARK    3  A    between atoms: C_8  and  C_9
REMARK    4  A    between atoms: C_15  and  C_16
REMARK    5  A    between atoms: N_24  and  N_25
REMARK    6  A    between atoms: C_26  and  C_28
REMARK                            x       y       z     vdW  Elec       q    Type
REMARK                         _______ _______ _______ _____ _____    ______ ____
ROOT
ATOM      1  C   UNL     1      -4.713  12.166  18.684  0.00  0.00    +0.000 A 
ATOM      2  C   UNL     1      -3.978  11.318  17.828  0.00  0.00    +0.000 A 
ATOM      3  C   UNL     1      -2.660  11.104  18.182  0.00  0.00    +0.000 A 
ATOM      4  C   UNL     1      -2.012  11.768  19.221  0.00  0.00    +0.000 A 
ATOM      5  C   UNL     1      -2.680  12.684  20.060  0.00  0.00    +0.000 A 
ATOM      6  C   UNL     1      -4.108  12.871  19.803  0.00  0.00    +0.000 A 
ATOM      7  C   UNL     1      -0.615  11.250  19.196  0.00  0.00    +0.000 C 
ATOM      8  O   UNL     1       0.362  11.764  19.710  0.00  0.00    +0.000 OA
ATOM      9  N   UNL     1      -0.629  10.160  18.369  0.00  0.00    +0.000 N 
ATOM     10  C   UNL     1      -1.722  10.168  17.557  0.00  0.00    +0.000 C 
ATOM     11  O   UNL     1      -1.902   9.641  16.473  0.00  0.00    +0.000 OA
ENDROOT
BRANCH   5  12
ATOM     12  C   UNL     1      -1.959  13.340  21.199  0.00  0.00    +0.000 A 
ATOM     13  C   UNL     1      -1.285  14.568  21.058  0.00  0.00    +0.000 A 
ATOM     14  C   UNL     1      -0.822  15.286  22.170  0.00  0.00    +0.000 A 
ATOM     15  C   UNL     1      -0.912  14.738  23.444  0.00  0.00    +0.000 A 
ATOM     16  C   UNL     1      -1.467  13.477  23.605  0.00  0.00    +0.000 A 
ATOM     17  C   UNL     1      -2.013  12.807  22.504  0.00  0.00    +0.000 A 
ENDBRANCH   5  12
BRANCH   6  18
ATOM     18  C   UNL     1      -4.986  13.732  20.686  0.00  0.00    +0.000 A 
ATOM     19  C   UNL     1      -5.682  13.205  21.796  0.00  0.00    +0.000 A 
ATOM     20  C   UNL     1      -6.501  13.999  22.609  0.00  0.00    +0.000 A 
ATOM     21  C   UNL     1      -6.731  15.326  22.278  0.00  0.00    +0.000 A 
ATOM     22  C   UNL     1      -6.082  15.875  21.180  0.00  0.00    +0.000 A 
ATOM     23  C   UNL     1      -5.174  15.105  20.440  0.00  0.00    +0.000 A 
ENDBRANCH   6  18
BRANCH   9  24
ATOM     24  N   UNL     1       0.504   9.400  18.094  0.00  0.00    +0.000 N 
ATOM     25  C   UNL     1       1.026   8.618  19.111  0.00  0.00    +0.000 C 
ATOM     26  O   UNL     1       0.556   8.543  20.242  0.00  0.00    +0.000 OA
ATOM     27  H   UNL     1       0.879   9.445  17.158  0.00  0.00    +0.000 HD
BRANCH  25  28
ATOM     28  C   UNL     1       2.235   7.828  18.765  0.00  0.00    +0.000 A 
ATOM     29  C   UNL     1       2.626   6.728  19.537  0.00  0.00    +0.000 A 
ATOM     30  C   UNL     1       3.747   5.983  19.165  0.00  0.00    +0.000 A 
ATOM     31  C   UNL     1       4.481   6.336  18.033  0.00  0.00    +0.000 A 
ATOM     32  C   UNL     1       4.092   7.430  17.259  0.00  0.00    +0.000 A 
ATOM     33  C   UNL     1       2.967   8.174  17.619  0.00  0.00    +0.000 A 
ENDBRANCH  25  28
ENDBRANCH   9  24
BRANCH   2  34
ATOM     34  N   UNL     1      -4.579  10.528  16.836  0.00  0.00    +0.000 N 
ATOM     35  H   UNL     1      -4.326   9.542  16.797  0.00  0.00    +0.000 HD
ATOM     36  H   UNL     1      -5.592  10.672  16.732  0.00  0.00    +0.000 HD
ENDBRANCH   2  34
BRANCH   1  38
ATOM     37  N   UNL     1      -7.260  12.265  18.167  0.00  0.00    +0.000 NA
ATOM     38  C   UNL     1      -6.124  12.275  18.396  0.00  0.00    +0.000 C 
ENDBRANCH   1  38
TORSDOF 6
ENDMDL
