MODEL 1
REMARK VINA RESULT:      -6.9      0.000      0.000
REMARK  Name = 
REMARK  11 active torsions:
REMARK  status: ('A' for Active; 'I' for Inactive)
REMARK    1  A    between atoms: C_1  and  C_2
REMARK    2  A    between atoms: C_2  and  C_3
REMARK    3  A    between atoms: C_3  and  C_4
REMARK    4  A    between atoms: C_3  and  N_8
REMARK    5  A    between atoms: N_6  and  O_7
REMARK    6  A    between atoms: N_8  and  C_9
REMARK    7  A    between atoms: N_8  and  S_16
REMARK    8  A    between atoms: C_9  and  C_10
REMARK    9  A    between atoms: S_16  and  C_19
REMARK   10  A    between atoms: C_22  and  O_23
REMARK   11  A    between atoms: O_23  and  C_24
REMARK                            x       y       z     vdW  Elec       q    Type
REMARK                         _______ _______ _______ _____ _____    ______ ____
ROOT
ATOM      1  N   UNL     1       3.478   4.833  19.249  0.00  0.00    +0.000 NA
ENDROOT
BRANCH   1   2
ATOM      2  S   UNL     1       5.151   4.445  19.157  0.00  0.00    +0.000 S 
ATOM      3  O   UNL     1       5.916   5.535  19.724  0.00  0.00    +0.000 OA
ATOM      4  O   UNL     1       5.280   3.086  19.647  0.00  0.00    +0.000 OA
BRANCH   2   5
ATOM      5  C   UNL     1       5.635   4.422  17.454  0.00  0.00    +0.000 A 
ATOM      6  C   UNL     1       4.771   4.042  16.433  0.00  0.00    +0.000 A 
ATOM      7  C   UNL     1       5.246   4.011  15.121  0.00  0.00    +0.000 A 
ATOM      8  C   UNL     1       6.547   4.429  14.816  0.00  0.00    +0.000 A 
ATOM      9  C   UNL     1       7.391   4.855  15.840  0.00  0.00    +0.000 A 
ATOM     10  C   UNL     1       6.939   4.843  17.161  0.00  0.00    +0.000 A 
BRANCH   8  11
ATOM     11  O   UNL     1       6.894   4.338  13.497  0.00  0.00    +0.000 OA
ATOM     12  C   UNL     1       6.025   3.560  12.683  0.00  0.00    +0.000 C 
ENDBRANCH   8  11
ENDBRANCH   2   5
ENDBRANCH   1   2
BRANCH   1  13
ATOM     13  C   UNL     1       2.524   3.671  19.511  0.00  0.00    +0.000 C 
BRANCH  13  14
ATOM     14  C   UNL     1       1.450   3.528  18.422  0.00  0.00    +0.000 C 
ATOM     15  O   UNL     1       0.633   2.606  18.381  0.00  0.00    +0.000 OA
ATOM     16  N   UNL     1       1.456   4.518  17.464  0.00  0.00    +0.000 N 
ATOM     17  H   UNL     1       1.802   5.453  17.684  0.00  0.00    +0.000 HD
BRANCH  16  18
ATOM     18  O   UNL     1       0.368   4.457  16.553  0.00  0.00    +0.000 OA
ATOM     19  H   UNL     1       0.813   4.328  15.687  0.00  0.00    +0.000 HD
ENDBRANCH  16  18
ENDBRANCH  13  14
BRANCH  13  21
ATOM     20  C   UNL     1       2.002   2.664  21.811  0.00  0.00    +0.000 C 
ATOM     21  C   UNL     1       1.774   3.836  20.857  0.00  0.00    +0.000 C 
ENDBRANCH  13  21
ENDBRANCH   1  13
BRANCH   1  22
ATOM     22  C   UNL     1       3.232   6.064  20.080  0.00  0.00    +0.000 C 
BRANCH  22  23
ATOM     23  C   UNL     1       2.598   7.255  19.400  0.00  0.00    +0.000 A 
ATOM     24  C   UNL     1       1.714   8.110  20.072  0.00  0.00    +0.000 A 
ATOM     25  C   UNL     1       1.172   9.217  19.423  0.00  0.00    +0.000 A 
ATOM     26  C   UNL     1       1.539   9.449  18.112  0.00  0.00    +0.000 A 
ATOM     27  N   UNL     1       2.392   8.661  17.427  0.00  0.00    +0.000 NA
ATOM     28  C   UNL     1       2.901   7.593  18.085  0.00  0.00    +0.000 A 
ENDBRANCH  22  23
ENDBRANCH   1  22
TORSDOF 9
ENDMDL
MODEL 2
REMARK VINA RESULT:      -6.9      1.278      1.607
REMARK  Name = 
REMARK  11 active torsions:
REMARK  status: ('A' for Active; 'I' for Inactive)
REMARK    1  A    between atoms: C_1  and  C_2
REMARK    2  A    between atoms: C_2  and  C_3
REMARK    3  A    between atoms: C_3  and  C_4
REMARK    4  A    between atoms: C_3  and  N_8
REMARK    5  A    between atoms: N_6  and  O_7
REMARK    6  A    between atoms: N_8  and  C_9
REMARK    7  A    between atoms: N_8  and  S_16
REMARK    8  A    between atoms: C_9  and  C_10
REMARK    9  A    between atoms: S_16  and  C_19
REMARK   10  A    between atoms: C_22  and  O_23
REMARK   11  A    between atoms: O_23  and  C_24
REMARK                            x       y       z     vdW  Elec       q    Type
REMARK                         _______ _______ _______ _____ _____    ______ ____
ROOT
ATOM      1  N   UNL     1       3.554   4.719  19.242  0.00  0.00    +0.000 NA
ENDROOT
BRANCH   1   2
ATOM      2  S   UNL     1       5.265   4.676  19.082  0.00  0.00    +0.000 S 
ATOM      3  O   UNL     1       5.808   5.941  19.528  0.00  0.00    +0.000 OA
ATOM      4  O   UNL     1       5.696   3.416  19.657  0.00  0.00    +0.000 OA
BRANCH   2   5
ATOM      5  C   UNL     1       5.673   4.618  17.360  0.00  0.00    +0.000 A 
ATOM      6  C   UNL     1       4.708   4.602  16.360  0.00  0.00    +0.000 A 
ATOM      7  C   UNL     1       5.115   4.513  15.027  0.00  0.00    +0.000 A 
ATOM      8  C   UNL     1       6.473   4.517  14.688  0.00  0.00    +0.000 A 
ATOM      9  C   UNL     1       7.435   4.583  15.694  0.00  0.00    +0.000 A 
ATOM     10  C   UNL     1       7.036   4.623  17.032  0.00  0.00    +0.000 A 
BRANCH   8  11
ATOM     11  O   UNL     1       6.739   4.412  13.352  0.00  0.00    +0.000 OA
ATOM     12  C   UNL     1       7.770   5.261  12.859  0.00  0.00    +0.000 C 
ENDBRANCH   8  11
ENDBRANCH   2   5
ENDBRANCH   1   2
BRANCH   1  13
ATOM     13  C   UNL     1       2.868   3.395  19.569  0.00  0.00    +0.000 C 
BRANCH  13  14
ATOM     14  C   UNL     1       3.006   2.361  18.443  0.00  0.00    +0.000 C 
ATOM     15  O   UNL     1       2.316   2.363  17.421  0.00  0.00    +0.000 OA
ATOM     16  N   UNL     1       3.972   1.399  18.649  0.00  0.00    +0.000 N 
ATOM     17  H   UNL     1       4.789   1.598  19.226  0.00  0.00    +0.000 HD
BRANCH  16  18
ATOM     18  O   UNL     1       4.191   0.543  17.536  0.00  0.00    +0.000 OA
ATOM     19  H   UNL     1       5.070   0.150  17.731  0.00  0.00    +0.000 HD
ENDBRANCH  16  18
ENDBRANCH  13  14
BRANCH  13  21
ATOM     20  C   UNL     1       0.881   2.945  21.127  0.00  0.00    +0.000 C 
ATOM     21  C   UNL     1       1.350   3.581  19.819  0.00  0.00    +0.000 C 
ENDBRANCH  13  21
ENDBRANCH   1  13
BRANCH   1  22
ATOM     22  C   UNL     1       3.095   5.898  20.058  0.00  0.00    +0.000 C 
BRANCH  22  23
ATOM     23  C   UNL     1       2.572   7.106  19.316  0.00  0.00    +0.000 A 
ATOM     24  C   UNL     1       1.745   8.054  19.931  0.00  0.00    +0.000 A 
ATOM     25  C   UNL     1       1.308   9.173  19.225  0.00  0.00    +0.000 A 
ATOM     26  C   UNL     1       1.720   9.320  17.915  0.00  0.00    +0.000 A 
ATOM     27  N   UNL     1       2.523   8.439  17.283  0.00  0.00    +0.000 NA
ATOM     28  C   UNL     1       2.930   7.363  17.996  0.00  0.00    +0.000 A 
ENDBRANCH  22  23
ENDBRANCH   1  22
TORSDOF 9
ENDMDL
MODEL 3
REMARK VINA RESULT:      -6.8      1.240      1.459
REMARK  Name = 
REMARK  11 active torsions:
REMARK  status: ('A' for Active; 'I' for Inactive)
REMARK    1  A    between atoms: C_1  and  C_2
REMARK    2  A    between atoms: C_2  and  C_3
REMARK    3  A    between atoms: C_3  and  C_4
REMARK    4  A    between atoms: C_3  and  N_8
REMARK    5  A    between atoms: N_6  and  O_7
REMARK    6  A    between atoms: N_8  and  C_9
REMARK    7  A    between atoms: N_8  and  S_16
REMARK    8  A    between atoms: C_9  and  C_10
REMARK    9  A    between atoms: S_16  and  C_19
REMARK   10  A    between atoms: C_22  and  O_23
REMARK   11  A    between atoms: O_23  and  C_24
REMARK                            x       y       z     vdW  Elec       q    Type
REMARK                         _______ _______ _______ _____ _____    ______ ____
ROOT
ATOM      1  N   UNL     1       3.968   4.851  18.567  0.00  0.00    +0.000 NA
ENDROOT
BRANCH   1   2
ATOM      2  S   UNL     1       5.622   5.139  18.195  0.00  0.00    +0.000 S 
ATOM      3  O   UNL     1       5.886   6.558  18.298  0.00  0.00    +0.000 OA
ATOM      4  O   UNL     1       6.384   4.165  18.954  0.00  0.00    +0.000 OA
BRANCH   2   5
ATOM      5  C   UNL     1       5.891   4.775  16.483  0.00  0.00    +0.000 A 
ATOM      6  C   UNL     1       4.895   4.263  15.660  0.00  0.00    +0.000 A 
ATOM      7  C   UNL     1       5.203   3.965  14.330  0.00  0.00    +0.000 A 
ATOM      8  C   UNL     1       6.469   4.247  13.804  0.00  0.00    +0.000 A 
ATOM      9  C   UNL     1       7.447   4.806  14.624  0.00  0.00    +0.000 A 
ATOM     10  C   UNL     1       7.162   5.062  15.967  0.00  0.00    +0.000 A 
BRANCH   8  11
ATOM     11  O   UNL     1       6.647   3.896  12.495  0.00  0.00    +0.000 OA
ATOM     12  C   UNL     1       5.675   3.006  11.958  0.00  0.00    +0.000 C 
ENDBRANCH   8  11
ENDBRANCH   2   5
ENDBRANCH   1   2
BRANCH   1  13
ATOM     13  C   UNL     1       3.548   3.391  18.714  0.00  0.00    +0.000 C 
BRANCH  13  14
ATOM     14  C   UNL     1       2.131   3.126  18.185  0.00  0.00    +0.000 C 
ATOM     15  O   UNL     1       1.603   3.776  17.280  0.00  0.00    +0.000 OA
ATOM     16  N   UNL     1       1.462   2.092  18.803  0.00  0.00    +0.000 N 
ATOM     17  H   UNL     1       1.976   1.316  19.220  0.00  0.00    +0.000 HD
BRANCH  16  18
ATOM     18  O   UNL     1       0.216   1.762  18.205  0.00  0.00    +0.000 OA
ATOM     19  H   UNL     1      -0.301   1.402  18.959  0.00  0.00    +0.000 HD
ENDBRANCH  16  18
ENDBRANCH  13  14
BRANCH  13  21
ATOM     20  C   UNL     1       4.604   1.852  20.471  0.00  0.00    +0.000 C 
ATOM     21  C   UNL     1       3.563   2.936  20.195  0.00  0.00    +0.000 C 
ENDBRANCH  13  21
ENDBRANCH   1  13
BRANCH   1  22
ATOM     22  C   UNL     1       3.467   5.775  19.645  0.00  0.00    +0.000 C 
BRANCH  22  23
ATOM     23  C   UNL     1       2.702   7.006  19.216  0.00  0.00    +0.000 A 
ATOM     24  C   UNL     1       1.904   7.732  20.109  0.00  0.00    +0.000 A 
ATOM     25  C   UNL     1       1.238   8.880  19.687  0.00  0.00    +0.000 A 
ATOM     26  C   UNL     1       1.397   9.282  18.376  0.00  0.00    +0.000 A 
ATOM     27  N   UNL     1       2.162   8.621  17.482  0.00  0.00    +0.000 NA
ATOM     28  C   UNL     1       2.795   7.509  17.923  0.00  0.00    +0.000 A 
ENDBRANCH  22  23
ENDBRANCH   1  22
TORSDOF 9
ENDMDL
MODEL 4
REMARK VINA RESULT:      -6.7      2.677      6.997
REMARK  Name = 
REMARK  11 active torsions:
REMARK  status: ('A' for Active; 'I' for Inactive)
REMARK    1  A    between atoms: C_1  and  C_2
REMARK    2  A    between atoms: C_2  and  C_3
REMARK    3  A    between atoms: C_3  and  C_4
REMARK    4  A    between atoms: C_3  and  N_8
REMARK    5  A    between atoms: N_6  and  O_7
REMARK    6  A    between atoms: N_8  and  C_9
REMARK    7  A    between atoms: N_8  and  S_16
REMARK    8  A    between atoms: C_9  and  C_10
REMARK    9  A    between atoms: S_16  and  C_19
REMARK   10  A    between atoms: C_22  and  O_23
REMARK   11  A    between atoms: O_23  and  C_24
REMARK                            x       y       z     vdW  Elec       q    Type
REMARK                         _______ _______ _______ _____ _____    ______ ____
ROOT
ATOM      1  N   UNL     1       5.715   4.995  16.841  0.00  0.00    +0.000 NA
ENDROOT
BRANCH   1   2
ATOM      2  S   UNL     1       4.668   4.591  18.144  0.00  0.00    +0.000 S 
ATOM      3  O   UNL     1       3.742   3.571  17.702  0.00  0.00    +0.000 OA
ATOM      4  O   UNL     1       5.518   4.399  19.303  0.00  0.00    +0.000 OA
BRANCH   2   5
ATOM      5  C   UNL     1       3.634   5.985  18.495  0.00  0.00    +0.000 A 
ATOM      6  C   UNL     1       2.988   6.152  19.714  0.00  0.00    +0.000 A 
ATOM      7  C   UNL     1       2.157   7.260  19.894  0.00  0.00    +0.000 A 
ATOM      8  C   UNL     1       2.031   8.234  18.897  0.00  0.00    +0.000 A 
ATOM      9  C   UNL     1       2.721   8.084  17.696  0.00  0.00    +0.000 A 
ATOM     10  C   UNL     1       3.516   6.954  17.489  0.00  0.00    +0.000 A 
BRANCH   8  11
ATOM     11  O   UNL     1       1.178   9.261  19.191  0.00  0.00    +0.000 OA
ATOM     12  C   UNL     1       0.637   9.256  20.506  0.00  0.00    +0.000 C 
ENDBRANCH   8  11
ENDBRANCH   2   5
ENDBRANCH   1   2
BRANCH   1  13
ATOM     13  C   UNL     1       6.977   5.774  17.199  0.00  0.00    +0.000 C 
BRANCH  13  14
ATOM     14  C   UNL     1       7.856   5.041  18.223  0.00  0.00    +0.000 C 
ATOM     15  O   UNL     1       8.473   4.002  17.978  0.00  0.00    +0.000 OA
ATOM     16  N   UNL     1       7.913   5.627  19.469  0.00  0.00    +0.000 N 
ATOM     17  H   UNL     1       7.780   6.633  19.577  0.00  0.00    +0.000 HD
BRANCH  16  18
ATOM     18  O   UNL     1       8.845   5.025  20.356  0.00  0.00    +0.000 OA
ATOM     19  H   UNL     1       8.394   5.091  21.227  0.00  0.00    +0.000 HD
ENDBRANCH  16  18
ENDBRANCH  13  14
BRANCH  13  21
ATOM     20  C   UNL     1       7.713   8.210  17.518  0.00  0.00    +0.000 C 
ATOM     21  C   UNL     1       6.642   7.158  17.810  0.00  0.00    +0.000 C 
ENDBRANCH  13  21
ENDBRANCH   1  13
BRANCH   1  22
ATOM     22  C   UNL     1       5.922   3.832  15.906  0.00  0.00    +0.000 C 
BRANCH  22  23
ATOM     23  C   UNL     1       6.441   4.130  14.519  0.00  0.00    +0.000 A 
ATOM     24  C   UNL     1       5.982   3.440  13.390  0.00  0.00    +0.000 A 
ATOM     25  C   UNL     1       6.459   3.763  12.122  0.00  0.00    +0.000 A 
ATOM     26  C   UNL     1       7.384   4.782  12.014  0.00  0.00    +0.000 A 
ATOM     27  N   UNL     1       7.850   5.481  13.069  0.00  0.00    +0.000 NA
ATOM     28  C   UNL     1       7.366   5.143  14.287  0.00  0.00    +0.000 A 
ENDBRANCH  22  23
ENDBRANCH   1  22
TORSDOF 9
ENDMDL
MODEL 5
REMARK VINA RESULT:      -6.6      1.390      2.078
REMARK  Name = 
REMARK  11 active torsions:
REMARK  status: ('A' for Active; 'I' for Inactive)
REMARK    1  A    between atoms: C_1  and  C_2
REMARK    2  A    between atoms: C_2  and  C_3
REMARK    3  A    between atoms: C_3  and  C_4
REMARK    4  A    between atoms: C_3  and  N_8
REMARK    5  A    between atoms: N_6  and  O_7
REMARK    6  A    between atoms: N_8  and  C_9
REMARK    7  A    between atoms: N_8  and  S_16
REMARK    8  A    between atoms: C_9  and  C_10
REMARK    9  A    between atoms: S_16  and  C_19
REMARK   10  A    between atoms: C_22  and  O_23
REMARK   11  A    between atoms: O_23  and  C_24
REMARK                            x       y       z     vdW  Elec       q    Type
REMARK                         _______ _______ _______ _____ _____    ______ ____
ROOT
ATOM      1  N   UNL     1       3.519   4.724  19.266  0.00  0.00    +0.000 NA
ENDROOT
BRANCH   1   2
ATOM      2  S   UNL     1       5.231   4.626  19.149  0.00  0.00    +0.000 S 
ATOM      3  O   UNL     1       5.805   5.864  19.629  0.00  0.00    +0.000 OA
ATOM      4  O   UNL     1       5.604   3.343  19.715  0.00  0.00    +0.000 OA
BRANCH   2   5
ATOM      5  C   UNL     1       5.682   4.579  17.438  0.00  0.00    +0.000 A 
ATOM      6  C   UNL     1       7.002   4.486  17.012  0.00  0.00    +0.000 A 
ATOM      7  C   UNL     1       7.274   4.496  15.642  0.00  0.00    +0.000 A 
ATOM      8  C   UNL     1       6.237   4.522  14.703  0.00  0.00    +0.000 A 
ATOM      9  C   UNL     1       4.914   4.565  15.138  0.00  0.00    +0.000 A 
ATOM     10  C   UNL     1       4.635   4.603  16.506  0.00  0.00    +0.000 A 
BRANCH   8  11
ATOM     11  O   UNL     1       6.635   4.543  13.396  0.00  0.00    +0.000 OA
ATOM     12  C   UNL     1       7.886   5.172  13.142  0.00  0.00    +0.000 C 
ENDBRANCH   8  11
ENDBRANCH   2   5
ENDBRANCH   1   2
BRANCH   1  13
ATOM     13  C   UNL     1       2.777   3.412  19.511  0.00  0.00    +0.000 C 
BRANCH  13  14
ATOM     14  C   UNL     1       2.966   2.402  18.370  0.00  0.00    +0.000 C 
ATOM     15  O   UNL     1       2.334   2.435  17.312  0.00  0.00    +0.000 OA
ATOM     16  N   UNL     1       3.908   1.424  18.608  0.00  0.00    +0.000 N 
ATOM     17  H   UNL     1       4.694   1.601  19.234  0.00  0.00    +0.000 HD
BRANCH  16  18
ATOM     18  O   UNL     1       4.180   0.590  17.490  0.00  0.00    +0.000 OA
ATOM     19  H   UNL     1       3.629   0.988  16.780  0.00  0.00    +0.000 HD
ENDBRANCH  16  18
ENDBRANCH  13  14
BRANCH  13  21
ATOM     20  C   UNL     1       0.632   2.784  20.767  0.00  0.00    +0.000 C 
ATOM     21  C   UNL     1       1.251   3.636  19.659  0.00  0.00    +0.000 C 
ENDBRANCH  13  21
ENDBRANCH   1  13
BRANCH   1  22
ATOM     22  C   UNL     1       3.080   5.879  20.126  0.00  0.00    +0.000 C 
BRANCH  22  23
ATOM     23  C   UNL     1       2.551   7.112  19.430  0.00  0.00    +0.000 A 
ATOM     24  C   UNL     1       2.846   7.392  18.090  0.00  0.00    +0.000 A 
ATOM     25  C   UNL     1       2.315   8.521  17.471  0.00  0.00    +0.000 A 
ATOM     26  C   UNL     1       1.487   9.342  18.211  0.00  0.00    +0.000 A 
ATOM     27  N   UNL     1       1.166   9.110  19.501  0.00  0.00    +0.000 NA
ATOM     28  C   UNL     1       1.699   8.005  20.073  0.00  0.00    +0.000 A 
ENDBRANCH  22  23
ENDBRANCH   1  22
TORSDOF 9
ENDMDL
MODEL 6
REMARK VINA RESULT:      -6.5      2.556      4.020
REMARK  Name = 
REMARK  11 active torsions:
REMARK  status: ('A' for Active; 'I' for Inactive)
REMARK    1  A    between atoms: C_1  and  C_2
REMARK    2  A    between atoms: C_2  and  C_3
REMARK    3  A    between atoms: C_3  and  C_4
REMARK    4  A    between atoms: C_3  and  N_8
REMARK    5  A    between atoms: N_6  and  O_7
REMARK    6  A    between atoms: N_8  and  C_9
REMARK    7  A    between atoms: N_8  and  S_16
REMARK    8  A    between atoms: C_9  and  C_10
REMARK    9  A    between atoms: S_16  and  C_19
REMARK   10  A    between atoms: C_22  and  O_23
REMARK   11  A    between atoms: O_23  and  C_24
REMARK                            x       y       z     vdW  Elec       q    Type
REMARK                         _______ _______ _______ _____ _____    ______ ____
ROOT
ATOM      1  N   UNL     1       5.034   5.288  17.055  0.00  0.00    +0.000 NA
ENDROOT
BRANCH   1   2
ATOM      2  S   UNL     1       5.890   6.133  15.826  0.00  0.00    +0.000 S 
ATOM      3  O   UNL     1       5.046   7.189  15.309  0.00  0.00    +0.000 OA
ATOM      4  O   UNL     1       7.209   6.406  16.363  0.00  0.00    +0.000 OA
BRANCH   2   5
ATOM      5  C   UNL     1       6.116   5.049  14.444  0.00  0.00    +0.000 A 
ATOM      6  C   UNL     1       5.168   4.105  14.068  0.00  0.00    +0.000 A 
ATOM      7  C   UNL     1       5.443   3.261  12.990  0.00  0.00    +0.000 A 
ATOM      8  C   UNL     1       6.618   3.407  12.244  0.00  0.00    +0.000 A 
ATOM      9  C   UNL     1       7.541   4.389  12.597  0.00  0.00    +0.000 A 
ATOM     10  C   UNL     1       7.296   5.205  13.704  0.00  0.00    +0.000 A 
BRANCH   8  11
ATOM     11  O   UNL     1       6.775   2.511  11.224  0.00  0.00    +0.000 OA
ATOM     12  C   UNL     1       5.973   1.339  11.303  0.00  0.00    +0.000 C 
ENDBRANCH   8  11
ENDBRANCH   2   5
ENDBRANCH   1   2
BRANCH   1  13
ATOM     13  C   UNL     1       5.881   4.535  18.078  0.00  0.00    +0.000 C 
BRANCH  13  14
ATOM     14  C   UNL     1       5.188   3.269  18.604  0.00  0.00    +0.000 C 
ATOM     15  O   UNL     1       5.118   2.972  19.798  0.00  0.00    +0.000 OA
ATOM     16  N   UNL     1       4.637   2.460  17.634  0.00  0.00    +0.000 N 
ATOM     17  H   UNL     1       4.319   2.853  16.748  0.00  0.00    +0.000 HD
BRANCH  16  18
ATOM     18  O   UNL     1       3.872   1.376  18.143  0.00  0.00    +0.000 OA
ATOM     19  H   UNL     1       3.217   1.822  18.724  0.00  0.00    +0.000 HD
ENDBRANCH  16  18
ENDBRANCH  13  14
BRANCH  13  21
ATOM     20  C   UNL     1       7.701   5.658  19.492  0.00  0.00    +0.000 C 
ATOM     21  C   UNL     1       6.203   5.413  19.313  0.00  0.00    +0.000 C 
ENDBRANCH  13  21
ENDBRANCH   1  13
BRANCH   1  22
ATOM     22  C   UNL     1       3.917   6.117  17.632  0.00  0.00    +0.000 C 
BRANCH  22  23
ATOM     23  C   UNL     1       2.848   5.400  18.423  0.00  0.00    +0.000 A 
ATOM     24  C   UNL     1       2.012   4.438  17.840  0.00  0.00    +0.000 A 
ATOM     25  C   UNL     1       1.058   3.773  18.607  0.00  0.00    +0.000 A 
ATOM     26  C   UNL     1       0.969   4.083  19.950  0.00  0.00    +0.000 A 
ATOM     27  N   UNL     1       1.757   4.995  20.558  0.00  0.00    +0.000 NA
ATOM     28  C   UNL     1       2.673   5.623  19.785  0.00  0.00    +0.000 A 
ENDBRANCH  22  23
ENDBRANCH   1  22
TORSDOF 9
ENDMDL
MODEL 7
REMARK VINA RESULT:      -6.5      1.476      2.154
REMARK  Name = 
REMARK  11 active torsions:
REMARK  status: ('A' for Active; 'I' for Inactive)
REMARK    1  A    between atoms: C_1  and  C_2
REMARK    2  A    between atoms: C_2  and  C_3
REMARK    3  A    between atoms: C_3  and  C_4
REMARK    4  A    between atoms: C_3  and  N_8
REMARK    5  A    between atoms: N_6  and  O_7
REMARK    6  A    between atoms: N_8  and  C_9
REMARK    7  A    between atoms: N_8  and  S_16
REMARK    8  A    between atoms: C_9  and  C_10
REMARK    9  A    between atoms: S_16  and  C_19
REMARK   10  A    between atoms: C_22  and  O_23
REMARK   11  A    between atoms: O_23  and  C_24
REMARK                            x       y       z     vdW  Elec       q    Type
REMARK                         _______ _______ _______ _____ _____    ______ ____
ROOT
ATOM      1  N   UNL     1       3.427   4.761  19.075  0.00  0.00    +0.000 NA
ENDROOT
BRANCH   1   2
ATOM      2  S   UNL     1       5.139   4.617  19.026  0.00  0.00    +0.000 S 
ATOM      3  O   UNL     1       5.727   5.831  19.549  0.00  0.00    +0.000 OA
ATOM      4  O   UNL     1       5.454   3.315  19.584  0.00  0.00    +0.000 OA
BRANCH   2   5
ATOM      5  C   UNL     1       5.658   4.584  17.333  0.00  0.00    +0.000 A 
ATOM      6  C   UNL     1       4.765   4.444  16.277  0.00  0.00    +0.000 A 
ATOM      7  C   UNL     1       5.262   4.386  14.973  0.00  0.00    +0.000 A 
ATOM      8  C   UNL     1       6.628   4.543  14.716  0.00  0.00    +0.000 A 
ATOM      9  C   UNL     1       7.512   4.732  15.777  0.00  0.00    +0.000 A 
ATOM     10  C   UNL     1       7.029   4.743  17.088  0.00  0.00    +0.000 A 
BRANCH   8  11
ATOM     11  O   UNL     1       6.988   4.453  13.401  0.00  0.00    +0.000 OA
ATOM     12  C   UNL     1       6.223   3.548  12.613  0.00  0.00    +0.000 C 
ENDBRANCH   8  11
ENDBRANCH   2   5
ENDBRANCH   1   2
BRANCH   1  13
ATOM     13  C   UNL     1       2.634   3.456  19.076  0.00  0.00    +0.000 C 
BRANCH  13  14
ATOM     14  C   UNL     1       1.691   3.336  20.282  0.00  0.00    +0.000 C 
ATOM     15  O   UNL     1       0.548   3.797  20.308  0.00  0.00    +0.000 OA
ATOM     16  N   UNL     1       2.215   2.667  21.367  0.00  0.00    +0.000 N 
ATOM     17  H   UNL     1       2.934   1.954  21.240  0.00  0.00    +0.000 HD
BRANCH  16  18
ATOM     18  O   UNL     1       1.284   2.432  22.414  0.00  0.00    +0.000 OA
ATOM     19  H   UNL     1       1.861   2.343  23.205  0.00  0.00    +0.000 HD
ENDBRANCH  16  18
ENDBRANCH  13  14
BRANCH  13  21
ATOM     20  C   UNL     1       3.473   1.367  17.848  0.00  0.00    +0.000 C 
ATOM     21  C   UNL     1       3.566   2.219  19.114  0.00  0.00    +0.000 C 
ENDBRANCH  13  21
ENDBRANCH   1  13
BRANCH   1  22
ATOM     22  C   UNL     1       2.978   5.785  20.084  0.00  0.00    +0.000 C 
BRANCH  22  23
ATOM     23  C   UNL     1       2.423   7.089  19.561  0.00  0.00    +0.000 A 
ATOM     24  C   UNL     1       2.570   7.475  18.222  0.00  0.00    +0.000 A 
ATOM     25  C   UNL     1       2.017   8.670  17.767  0.00  0.00    +0.000 A 
ATOM     26  C   UNL     1       1.318   9.450  18.668  0.00  0.00    +0.000 A 
ATOM     27  N   UNL     1       1.143   9.117  19.963  0.00  0.00    +0.000 NA
ATOM     28  C   UNL     1       1.692   7.950  20.373  0.00  0.00    +0.000 A 
ENDBRANCH  22  23
ENDBRANCH   1  22
TORSDOF 9
ENDMDL
MODEL 8
REMARK VINA RESULT:      -6.5      1.605      2.340
REMARK  Name = 
REMARK  11 active torsions:
REMARK  status: ('A' for Active; 'I' for Inactive)
REMARK    1  A    between atoms: C_1  and  C_2
REMARK    2  A    between atoms: C_2  and  C_3
REMARK    3  A    between atoms: C_3  and  C_4
REMARK    4  A    between atoms: C_3  and  N_8
REMARK    5  A    between atoms: N_6  and  O_7
REMARK    6  A    between atoms: N_8  and  C_9
REMARK    7  A    between atoms: N_8  and  S_16
REMARK    8  A    between atoms: C_9  and  C_10
REMARK    9  A    between atoms: S_16  and  C_19
REMARK   10  A    between atoms: C_22  and  O_23
REMARK   11  A    between atoms: O_23  and  C_24
REMARK                            x       y       z     vdW  Elec       q    Type
REMARK                         _______ _______ _______ _____ _____    ______ ____
ROOT
ATOM      1  N   UNL     1       3.256   4.826  18.358  0.00  0.00    +0.000 NA
ENDROOT
BRANCH   1   2
ATOM      2  S   UNL     1       4.537   3.701  18.135  0.00  0.00    +0.000 S 
ATOM      3  O   UNL     1       5.429   3.776  19.272  0.00  0.00    +0.000 OA
ATOM      4  O   UNL     1       3.916   2.453  17.734  0.00  0.00    +0.000 OA
BRANCH   2   5
ATOM      5  C   UNL     1       5.533   4.237  16.773  0.00  0.00    +0.000 A 
ATOM      6  C   UNL     1       5.250   3.893  15.456  0.00  0.00    +0.000 A 
ATOM      7  C   UNL     1       6.111   4.323  14.444  0.00  0.00    +0.000 A 
ATOM      8  C   UNL     1       7.201   5.152  14.731  0.00  0.00    +0.000 A 
ATOM      9  C   UNL     1       7.449   5.533  16.049  0.00  0.00    +0.000 A 
ATOM     10  C   UNL     1       6.621   5.067  17.072  0.00  0.00    +0.000 A 
BRANCH   8  11
ATOM     11  O   UNL     1       7.974   5.492  13.656  0.00  0.00    +0.000 OA
ATOM     12  C   UNL     1       7.553   4.965  12.403  0.00  0.00    +0.000 C 
ENDBRANCH   8  11
ENDBRANCH   2   5
ENDBRANCH   1   2
BRANCH   1  13
ATOM     13  C   UNL     1       1.957   4.272  18.937  0.00  0.00    +0.000 C 
BRANCH  13  14
ATOM     14  C   UNL     1       2.081   3.898  20.421  0.00  0.00    +0.000 C 
ATOM     15  O   UNL     1       1.541   4.526  21.335  0.00  0.00    +0.000 OA
ATOM     16  N   UNL     1       2.859   2.790  20.680  0.00  0.00    +0.000 N 
ATOM     17  H   UNL     1       2.958   2.051  19.984  0.00  0.00    +0.000 HD
BRANCH  16  18
ATOM     18  O   UNL     1       2.842   2.369  22.037  0.00  0.00    +0.000 OA
ATOM     19  H   UNL     1       2.893   1.390  21.964  0.00  0.00    +0.000 HD
ENDBRANCH  16  18
ENDBRANCH  13  14
BRANCH  13  21
ATOM     20  C   UNL     1       0.371   2.257  18.919  0.00  0.00    +0.000 C 
ATOM     21  C   UNL     1       1.496   2.993  18.193  0.00  0.00    +0.000 C 
ENDBRANCH  13  21
ENDBRANCH   1  13
BRANCH   1  22
ATOM     22  C   UNL     1       3.738   6.111  18.978  0.00  0.00    +0.000 C 
BRANCH  22  23
ATOM     23  C   UNL     1       2.809   7.302  18.940  0.00  0.00    +0.000 A 
ATOM     24  C   UNL     1       2.615   8.055  17.775  0.00  0.00    +0.000 A 
ATOM     25  C   UNL     1       1.726   9.127  17.767  0.00  0.00    +0.000 A 
ATOM     26  C   UNL     1       1.041   9.415  18.931  0.00  0.00    +0.000 A 
ATOM     27  N   UNL     1       1.187   8.714  20.074  0.00  0.00    +0.000 NA
ATOM     28  C   UNL     1       2.058   7.678  20.049  0.00  0.00    +0.000 A 
ENDBRANCH  22  23
ENDBRANCH   1  22
TORSDOF 9
ENDMDL
MODEL 9
REMARK VINA RESULT:      -6.4      1.138      1.531
REMARK  Name = 
REMARK  11 active torsions:
REMARK  status: ('A' for Active; 'I' for Inactive)
REMARK    1  A    between atoms: C_1  and  C_2
REMARK    2  A    between atoms: C_2  and  C_3
REMARK    3  A    between atoms: C_3  and  C_4
REMARK    4  A    between atoms: C_3  and  N_8
REMARK    5  A    between atoms: N_6  and  O_7
REMARK    6  A    between atoms: N_8  and  C_9
REMARK    7  A    between atoms: N_8  and  S_16
REMARK    8  A    between atoms: C_9  and  C_10
REMARK    9  A    between atoms: S_16  and  C_19
REMARK   10  A    between atoms: C_22  and  O_23
REMARK   11  A    between atoms: O_23  and  C_24
REMARK                            x       y       z     vdW  Elec       q    Type
REMARK                         _______ _______ _______ _____ _____    ______ ____
ROOT
ATOM      1  N   UNL     1       3.304   4.843  19.408  0.00  0.00    +0.000 NA
ENDROOT
BRANCH   1   2
ATOM      2  S   UNL     1       4.987   4.611  19.149  0.00  0.00    +0.000 S 
ATOM      3  O   UNL     1       5.705   5.746  19.688  0.00  0.00    +0.000 OA
ATOM      4  O   UNL     1       5.280   3.253  19.569  0.00  0.00    +0.000 OA
BRANCH   2   5
ATOM      5  C   UNL     1       5.309   4.687  17.409  0.00  0.00    +0.000 A 
ATOM      6  C   UNL     1       5.091   5.834  16.655  0.00  0.00    +0.000 A 
ATOM      7  C   UNL     1       5.332   5.797  15.280  0.00  0.00    +0.000 A 
ATOM      8  C   UNL     1       5.859   4.651  14.673  0.00  0.00    +0.000 A 
ATOM      9  C   UNL     1       6.122   3.521  15.445  0.00  0.00    +0.000 A 
ATOM     10  C   UNL     1       5.838   3.535  16.812  0.00  0.00    +0.000 A 
BRANCH   8  11
ATOM     11  O   UNL     1       6.036   4.738  13.321  0.00  0.00    +0.000 OA
ATOM     12  C   UNL     1       5.623   3.602  12.570  0.00  0.00    +0.000 C 
ENDBRANCH   8  11
ENDBRANCH   2   5
ENDBRANCH   1   2
BRANCH   1  13
ATOM     13  C   UNL     1       2.494   3.602  19.775  0.00  0.00    +0.000 C 
BRANCH  13  14
ATOM     14  C   UNL     1       1.580   3.131  18.635  0.00  0.00    +0.000 C 
ATOM     15  O   UNL     1       1.540   3.663  17.523  0.00  0.00    +0.000 OA
ATOM     16  N   UNL     1       0.779   2.052  18.938  0.00  0.00    +0.000 N 
ATOM     17  H   UNL     1       1.069   1.369  19.639  0.00  0.00    +0.000 HD
BRANCH  16  18
ATOM     18  O   UNL     1       0.052   1.535  17.832  0.00  0.00    +0.000 OA
ATOM     19  H   UNL     1      -0.428   2.324  17.496  0.00  0.00    +0.000 HD
ENDBRANCH  16  18
ENDBRANCH  13  14
BRANCH  13  21
ATOM     20  C   UNL     1       1.713   2.770  22.072  0.00  0.00    +0.000 C 
ATOM     21  C   UNL     1       1.582   3.854  21.002  0.00  0.00    +0.000 C 
ENDBRANCH  13  21
ENDBRANCH   1  13
BRANCH   1  22
ATOM     22  C   UNL     1       3.028   6.061  20.250  0.00  0.00    +0.000 C 
BRANCH  22  23
ATOM     23  C   UNL     1       2.390   7.252  19.575  0.00  0.00    +0.000 A 
ATOM     24  C   UNL     1       2.477   7.455  18.191  0.00  0.00    +0.000 A 
ATOM     25  C   UNL     1       1.849   8.548  17.597  0.00  0.00    +0.000 A 
ATOM     26  C   UNL     1       1.137   9.411  18.407  0.00  0.00    +0.000 A 
ATOM     27  N   UNL     1       1.017   9.252  19.742  0.00  0.00    +0.000 NA
ATOM     28  C   UNL     1       1.639   8.181  20.288  0.00  0.00    +0.000 A 
ENDBRANCH  22  23
ENDBRANCH   1  22
TORSDOF 9
ENDMDL
