MODEL 1
REMARK VINA RESULT:      -7.3      0.000      0.000
REMARK  Name = 
REMARK  7 active torsions:
REMARK  status: ('A' for Active; 'I' for Inactive)
REMARK    1  A    between atoms: C_1  and  C_2
REMARK    2  A    between atoms: C_4  and  C_5
REMARK    3  A    between atoms: C_5  and  N_6
REMARK    4  A    between atoms: C_9  and  C_10
REMARK    5  A    between atoms: C_10  and  C_11
REMARK    6  A    between atoms: C_10  and  C_12
REMARK    7  A    between atoms: C_10  and  C_13
REMARK                            x       y       z     vdW  Elec       q    Type
REMARK                         _______ _______ _______ _____ _____    ______ ____
ROOT
ATOM      1  N   UNL     1       5.169   4.728  18.435  0.00  0.00    +0.000 N 
ATOM      2  C   UNL     1       4.381   5.840  18.357  0.00  0.00    +0.000 A 
ATOM      3  C   UNL     1       3.170   5.482  18.897  0.00  0.00    +0.000 A 
ATOM      4  C   UNL     1       3.311   4.121  19.274  0.00  0.00    +0.000 A 
ATOM      5  N   UNL     1       4.529   3.659  18.951  0.00  0.00    +0.000 NA
ENDROOT
BRANCH   4   6
ATOM      6  C   UNL     1       2.279   3.207  19.918  0.00  0.00    +0.000 C 
ATOM      7  C   UNL     1       2.795   2.735  21.291  0.00  0.00    +0.000 C 
ATOM      8  C   UNL     1       0.930   3.934  20.118  0.00  0.00    +0.000 C 
ATOM      9  C   UNL     1       2.007   1.967  19.042  0.00  0.00    +0.000 C 
ENDBRANCH   4   6
BRANCH   1  10
ATOM     10  C   UNL     1       6.567   4.621  18.042  0.00  0.00    +0.000 C 
BRANCH  10  14
ATOM     11  C   UNL     1       6.391   3.862  12.998  0.00  0.00    +0.000 C 
ATOM     12  C   UNL     1       6.557   4.290  14.397  0.00  0.00    +0.000 A 
ATOM     13  C   UNL     1       6.082   3.831  15.600  0.00  0.00    +0.000 A 
ATOM     14  C   UNL     1       6.685   4.680  16.562  0.00  0.00    +0.000 A 
ATOM     15  N   UNL     1       7.439   5.618  15.971  0.00  0.00    +0.000 NA
ATOM     16  O   UNL     1       7.360   5.365  14.613  0.00  0.00    +0.000 OA
ENDBRANCH  10  14
ENDBRANCH   1  10
TORSDOF 3
ENDMDL
MODEL 2
REMARK VINA RESULT:      -7.3      0.361      1.191
REMARK  Name = 
REMARK  7 active torsions:
REMARK  status: ('A' for Active; 'I' for Inactive)
REMARK    1  A    between atoms: C_1  and  C_2
REMARK    2  A    between atoms: C_4  and  C_5
REMARK    3  A    between atoms: C_5  and  N_6
REMARK    4  A    between atoms: C_9  and  C_10
REMARK    5  A    between atoms: C_10  and  C_11
REMARK    6  A    between atoms: C_10  and  C_12
REMARK    7  A    between atoms: C_10  and  C_13
REMARK                            x       y       z     vdW  Elec       q    Type
REMARK                         _______ _______ _______ _____ _____    ______ ____
ROOT
ATOM      1  N   UNL     1       4.907   4.882  18.174  0.00  0.00    +0.000 N 
ATOM      2  C   UNL     1       4.014   5.856  17.833  0.00  0.00    +0.000 A 
ATOM      3  C   UNL     1       2.813   5.473  18.377  0.00  0.00    +0.000 A 
ATOM      4  C   UNL     1       3.068   4.238  19.029  0.00  0.00    +0.000 A 
ATOM      5  N   UNL     1       4.348   3.868  18.865  0.00  0.00    +0.000 NA
ENDROOT
BRANCH   4   6
ATOM      6  C   UNL     1       2.095   3.355  19.795  0.00  0.00    +0.000 C 
ATOM      7  C   UNL     1       1.570   2.243  18.866  0.00  0.00    +0.000 C 
ATOM      8  C   UNL     1       2.773   2.699  21.019  0.00  0.00    +0.000 C 
ATOM      9  C   UNL     1       0.893   4.169  20.315  0.00  0.00    +0.000 C 
ENDBRANCH   4   6
BRANCH   1  10
ATOM     10  C   UNL     1       6.332   4.863  17.878  0.00  0.00    +0.000 C 
BRANCH  10  14
ATOM     11  C   UNL     1       6.381   3.738  12.900  0.00  0.00    +0.000 C 
ATOM     12  C   UNL     1       6.508   4.252  14.274  0.00  0.00    +0.000 A 
ATOM     13  C   UNL     1       5.912   3.943  15.470  0.00  0.00    +0.000 A 
ATOM     14  C   UNL     1       6.546   4.794  16.409  0.00  0.00    +0.000 A 
ATOM     15  N   UNL     1       7.436   5.597  15.808  0.00  0.00    +0.000 NA
ATOM     16  O   UNL     1       7.412   5.249  14.469  0.00  0.00    +0.000 OA
ENDBRANCH  10  14
ENDBRANCH   1  10
TORSDOF 3
ENDMDL
MODEL 3
REMARK VINA RESULT:      -7.2      0.215      1.068
REMARK  Name = 
REMARK  7 active torsions:
REMARK  status: ('A' for Active; 'I' for Inactive)
REMARK    1  A    between atoms: C_1  and  C_2
REMARK    2  A    between atoms: C_4  and  C_5
REMARK    3  A    between atoms: C_5  and  N_6
REMARK    4  A    between atoms: C_9  and  C_10
REMARK    5  A    between atoms: C_10  and  C_11
REMARK    6  A    between atoms: C_10  and  C_12
REMARK    7  A    between atoms: C_10  and  C_13
REMARK                            x       y       z     vdW  Elec       q    Type
REMARK                         _______ _______ _______ _____ _____    ______ ____
ROOT
ATOM      1  N   UNL     1       5.202   4.783  18.292  0.00  0.00    +0.000 N 
ATOM      2  C   UNL     1       4.460   5.929  18.296  0.00  0.00    +0.000 A 
ATOM      3  C   UNL     1       3.254   5.594  18.859  0.00  0.00    +0.000 A 
ATOM      4  C   UNL     1       3.348   4.211  19.163  0.00  0.00    +0.000 A 
ATOM      5  N   UNL     1       4.534   3.717  18.777  0.00  0.00    +0.000 NA
ENDROOT
BRANCH   4   6
ATOM      6  C   UNL     1       2.298   3.309  19.796  0.00  0.00    +0.000 C 
ATOM      7  C   UNL     1       1.033   4.132  20.106  0.00  0.00    +0.000 C 
ATOM      8  C   UNL     1       1.913   2.146  18.854  0.00  0.00    +0.000 C 
ATOM      9  C   UNL     1       2.814   2.686  21.109  0.00  0.00    +0.000 C 
ENDBRANCH   4   6
BRANCH   1  10
ATOM     10  C   UNL     1       6.581   4.639  17.847  0.00  0.00    +0.000 C 
BRANCH  10  14
ATOM     11  C   UNL     1       6.181   3.708  12.845  0.00  0.00    +0.000 C 
ATOM     12  C   UNL     1       6.414   4.180  14.221  0.00  0.00    +0.000 A 
ATOM     13  C   UNL     1       5.979   3.775  15.457  0.00  0.00    +0.000 A 
ATOM     14  C   UNL     1       6.639   4.643  16.363  0.00  0.00    +0.000 A 
ATOM     15  N   UNL     1       7.388   5.542  15.709  0.00  0.00    +0.000 NA
ATOM     16  O   UNL     1       7.248   5.244  14.365  0.00  0.00    +0.000 OA
ENDBRANCH  10  14
ENDBRANCH   1  10
TORSDOF 3
ENDMDL
MODEL 4
REMARK VINA RESULT:      -6.9      1.168      1.471
REMARK  Name = 
REMARK  7 active torsions:
REMARK  status: ('A' for Active; 'I' for Inactive)
REMARK    1  A    between atoms: C_1  and  C_2
REMARK    2  A    between atoms: C_4  and  C_5
REMARK    3  A    between atoms: C_5  and  N_6
REMARK    4  A    between atoms: C_9  and  C_10
REMARK    5  A    between atoms: C_10  and  C_11
REMARK    6  A    between atoms: C_10  and  C_12
REMARK    7  A    between atoms: C_10  and  C_13
REMARK                            x       y       z     vdW  Elec       q    Type
REMARK                         _______ _______ _______ _____ _____    ______ ____
ROOT
ATOM      1  N   UNL     1       5.139   5.235  18.238  0.00  0.00    +0.000 N 
ATOM      2  C   UNL     1       5.632   4.271  19.069  0.00  0.00    +0.000 A 
ATOM      3  C   UNL     1       4.550   3.521  19.459  0.00  0.00    +0.000 A 
ATOM      4  C   UNL     1       3.428   4.111  18.819  0.00  0.00    +0.000 A 
ATOM      5  N   UNL     1       3.798   5.184  18.103  0.00  0.00    +0.000 NA
ENDROOT
BRANCH   4   6
ATOM      6  C   UNL     1       1.967   3.694  18.899  0.00  0.00    +0.000 C 
ATOM      7  C   UNL     1       1.331   4.294  20.168  0.00  0.00    +0.000 C 
ATOM      8  C   UNL     1       1.173   4.185  17.667  0.00  0.00    +0.000 C 
ATOM      9  C   UNL     1       1.826   2.160  18.956  0.00  0.00    +0.000 C 
ENDBRANCH   4   6
BRANCH   1  10
ATOM     10  C   UNL     1       5.906   6.242  17.520  0.00  0.00    +0.000 C 
BRANCH  10  14
ATOM     11  C   UNL     1       6.429   3.848  13.043  0.00  0.00    +0.000 C 
ATOM     12  C   UNL     1       6.490   4.646  14.279  0.00  0.00    +0.000 A 
ATOM     13  C   UNL     1       5.613   4.891  15.304  0.00  0.00    +0.000 A 
ATOM     14  C   UNL     1       6.342   5.707  16.204  0.00  0.00    +0.000 A 
ATOM     15  N   UNL     1       7.567   5.973  15.729  0.00  0.00    +0.000 NA
ATOM     16  O   UNL     1       7.657   5.301  14.522  0.00  0.00    +0.000 OA
ENDBRANCH  10  14
ENDBRANCH   1  10
TORSDOF 3
ENDMDL
MODEL 5
REMARK VINA RESULT:      -6.9      1.229      1.734
REMARK  Name = 
REMARK  7 active torsions:
REMARK  status: ('A' for Active; 'I' for Inactive)
REMARK    1  A    between atoms: C_1  and  C_2
REMARK    2  A    between atoms: C_4  and  C_5
REMARK    3  A    between atoms: C_5  and  N_6
REMARK    4  A    between atoms: C_9  and  C_10
REMARK    5  A    between atoms: C_10  and  C_11
REMARK    6  A    between atoms: C_10  and  C_12
REMARK    7  A    between atoms: C_10  and  C_13
REMARK                            x       y       z     vdW  Elec       q    Type
REMARK                         _______ _______ _______ _____ _____    ______ ____
ROOT
ATOM      1  N   UNL     1       4.835   4.530  19.062  0.00  0.00    +0.000 N 
ATOM      2  C   UNL     1       5.209   3.244  19.326  0.00  0.00    +0.000 A 
ATOM      3  C   UNL     1       4.087   2.617  19.810  0.00  0.00    +0.000 A 
ATOM      4  C   UNL     1       3.070   3.609  19.814  0.00  0.00    +0.000 A 
ATOM      5  N   UNL     1       3.551   4.787  19.388  0.00  0.00    +0.000 NA
ENDROOT
BRANCH   4   6
ATOM      6  C   UNL     1       1.622   3.475  20.258  0.00  0.00    +0.000 C 
ATOM      7  C   UNL     1       1.019   4.876  20.475  0.00  0.00    +0.000 C 
ATOM      8  C   UNL     1       0.775   2.730  19.202  0.00  0.00    +0.000 C 
ATOM      9  C   UNL     1       1.513   2.683  21.578  0.00  0.00    +0.000 C 
ENDBRANCH   4   6
BRANCH   1  10
ATOM     10  C   UNL     1       5.661   5.576  18.477  0.00  0.00    +0.000 C 
BRANCH  10  14
ATOM     11  C   UNL     1       6.187   3.906  13.683  0.00  0.00    +0.000 C 
ATOM     12  C   UNL     1       6.275   4.436  15.054  0.00  0.00    +0.000 A 
ATOM     13  C   UNL     1       5.352   4.757  16.016  0.00  0.00    +0.000 A 
ATOM     14  C   UNL     1       6.130   5.159  17.130  0.00  0.00    +0.000 A 
ATOM     15  N   UNL     1       7.439   5.124  16.841  0.00  0.00    +0.000 NA
ATOM     16  O   UNL     1       7.525   4.664  15.538  0.00  0.00    +0.000 OA
ENDBRANCH  10  14
ENDBRANCH   1  10
TORSDOF 3
ENDMDL
MODEL 6
REMARK VINA RESULT:      -6.8      1.095      1.751
REMARK  Name = 
REMARK  7 active torsions:
REMARK  status: ('A' for Active; 'I' for Inactive)
REMARK    1  A    between atoms: C_1  and  C_2
REMARK    2  A    between atoms: C_4  and  C_5
REMARK    3  A    between atoms: C_5  and  N_6
REMARK    4  A    between atoms: C_9  and  C_10
REMARK    5  A    between atoms: C_10  and  C_11
REMARK    6  A    between atoms: C_10  and  C_12
REMARK    7  A    between atoms: C_10  and  C_13
REMARK                            x       y       z     vdW  Elec       q    Type
REMARK                         _______ _______ _______ _____ _____    ______ ____
ROOT
ATOM      1  N   UNL     1       4.774   4.974  18.620  0.00  0.00    +0.000 N 
ATOM      2  C   UNL     1       5.297   3.748  18.912  0.00  0.00    +0.000 A 
ATOM      3  C   UNL     1       4.309   3.065  19.576  0.00  0.00    +0.000 A 
ATOM      4  C   UNL     1       3.212   3.963  19.652  0.00  0.00    +0.000 A 
ATOM      5  N   UNL     1       3.523   5.143  19.095  0.00  0.00    +0.000 NA
ENDROOT
BRANCH   4   6
ATOM      6  C   UNL     1       1.849   3.739  20.290  0.00  0.00    +0.000 C 
ATOM      7  C   UNL     1       0.972   2.895  19.346  0.00  0.00    +0.000 C 
ATOM      8  C   UNL     1       1.975   3.000  21.642  0.00  0.00    +0.000 C 
ATOM      9  C   UNL     1       1.133   5.077  20.563  0.00  0.00    +0.000 C 
ENDBRANCH   4   6
BRANCH   1  10
ATOM     10  C   UNL     1       5.418   6.040  17.867  0.00  0.00    +0.000 C 
BRANCH  10  14
ATOM     11  C   UNL     1       6.356   3.888  13.336  0.00  0.00    +0.000 C 
ATOM     12  C   UNL     1       6.324   4.562  14.645  0.00  0.00    +0.000 A 
ATOM     13  C   UNL     1       5.321   4.956  15.493  0.00  0.00    +0.000 A 
ATOM     14  C   UNL     1       6.001   5.498  16.613  0.00  0.00    +0.000 A 
ATOM     15  N   UNL     1       7.329   5.472  16.429  0.00  0.00    +0.000 NA
ATOM     16  O   UNL     1       7.527   4.878  15.195  0.00  0.00    +0.000 OA
ENDBRANCH  10  14
ENDBRANCH   1  10
TORSDOF 3
ENDMDL
MODEL 7
REMARK VINA RESULT:      -6.8      1.214      1.831
REMARK  Name = 
REMARK  7 active torsions:
REMARK  status: ('A' for Active; 'I' for Inactive)
REMARK    1  A    between atoms: C_1  and  C_2
REMARK    2  A    between atoms: C_4  and  C_5
REMARK    3  A    between atoms: C_5  and  N_6
REMARK    4  A    between atoms: C_9  and  C_10
REMARK    5  A    between atoms: C_10  and  C_11
REMARK    6  A    between atoms: C_10  and  C_12
REMARK    7  A    between atoms: C_10  and  C_13
REMARK                            x       y       z     vdW  Elec       q    Type
REMARK                         _______ _______ _______ _____ _____    ______ ____
ROOT
ATOM      1  N   UNL     1       4.876   5.584  18.142  0.00  0.00    +0.000 N 
ATOM      2  C   UNL     1       5.489   4.865  19.127  0.00  0.00    +0.000 A 
ATOM      3  C   UNL     1       4.530   4.020  19.629  0.00  0.00    +0.000 A 
ATOM      4  C   UNL     1       3.352   4.302  18.889  0.00  0.00    +0.000 A 
ATOM      5  N   UNL     1       3.567   5.289  18.006  0.00  0.00    +0.000 NA
ENDROOT
BRANCH   4   6
ATOM      6  C   UNL     1       1.976   3.668  19.026  0.00  0.00    +0.000 C 
ATOM      7  C   UNL     1       1.149   3.955  17.758  0.00  0.00    +0.000 C 
ATOM      8  C   UNL     1       2.077   2.137  19.215  0.00  0.00    +0.000 C 
ATOM      9  C   UNL     1       1.219   4.233  20.246  0.00  0.00    +0.000 C 
ENDBRANCH   4   6
BRANCH   1  10
ATOM     10  C   UNL     1       5.494   6.573  17.271  0.00  0.00    +0.000 C 
BRANCH  10  14
ATOM     11  C   UNL     1       6.528   3.842  13.085  0.00  0.00    +0.000 C 
ATOM     12  C   UNL     1       6.461   4.709  14.274  0.00  0.00    +0.000 A 
ATOM     13  C   UNL     1       5.447   5.121  15.100  0.00  0.00    +0.000 A 
ATOM     14  C   UNL     1       6.095   5.904  16.087  0.00  0.00    +0.000 A 
ATOM     15  N   UNL     1       7.410   5.994  15.845  0.00  0.00    +0.000 NA
ATOM     16  O   UNL     1       7.636   5.237  14.708  0.00  0.00    +0.000 OA
ENDBRANCH  10  14
ENDBRANCH   1  10
TORSDOF 3
ENDMDL
MODEL 8
REMARK VINA RESULT:      -6.8      1.253      1.514
REMARK  Name = 
REMARK  7 active torsions:
REMARK  status: ('A' for Active; 'I' for Inactive)
REMARK    1  A    between atoms: C_1  and  C_2
REMARK    2  A    between atoms: C_4  and  C_5
REMARK    3  A    between atoms: C_5  and  N_6
REMARK    4  A    between atoms: C_9  and  C_10
REMARK    5  A    between atoms: C_10  and  C_11
REMARK    6  A    between atoms: C_10  and  C_12
REMARK    7  A    between atoms: C_10  and  C_13
REMARK                            x       y       z     vdW  Elec       q    Type
REMARK                         _______ _______ _______ _____ _____    ______ ____
ROOT
ATOM      1  N   UNL     1       4.853   4.420  19.128  0.00  0.00    +0.000 N 
ATOM      2  C   UNL     1       5.171   3.109  19.336  0.00  0.00    +0.000 A 
ATOM      3  C   UNL     1       4.020   2.510  19.788  0.00  0.00    +0.000 A 
ATOM      4  C   UNL     1       3.048   3.543  19.833  0.00  0.00    +0.000 A 
ATOM      5  N   UNL     1       3.581   4.717  19.461  0.00  0.00    +0.000 NA
ENDROOT
BRANCH   4   6
ATOM      6  C   UNL     1       1.592   3.452  20.267  0.00  0.00    +0.000 C 
ATOM      7  C   UNL     1       1.498   2.665  21.588  0.00  0.00    +0.000 C 
ATOM      8  C   UNL     1       0.980   4.855  20.481  0.00  0.00    +0.000 C 
ATOM      9  C   UNL     1       0.736   2.734  19.204  0.00  0.00    +0.000 C 
ENDBRANCH   4   6
BRANCH   1  10
ATOM     10  C   UNL     1       5.727   5.454  18.591  0.00  0.00    +0.000 C 
BRANCH  10  14
ATOM     11  C   UNL     1       6.200   3.912  13.749  0.00  0.00    +0.000 C 
ATOM     12  C   UNL     1       6.302   4.409  15.132  0.00  0.00    +0.000 A 
ATOM     13  C   UNL     1       5.390   4.690  16.117  0.00  0.00    +0.000 A 
ATOM     14  C   UNL     1       6.180   5.079  17.227  0.00  0.00    +0.000 A 
ATOM     15  N   UNL     1       7.484   5.076  16.915  0.00  0.00    +0.000 NA
ATOM     16  O   UNL     1       7.555   4.650  15.600  0.00  0.00    +0.000 OA
ENDBRANCH  10  14
ENDBRANCH   1  10
TORSDOF 3
ENDMDL
MODEL 9
REMARK VINA RESULT:      -6.8      1.817      2.630
REMARK  Name = 
REMARK  7 active torsions:
REMARK  status: ('A' for Active; 'I' for Inactive)
REMARK    1  A    between atoms: C_1  and  C_2
REMARK    2  A    between atoms: C_4  and  C_5
REMARK    3  A    between atoms: C_5  and  N_6
REMARK    4  A    between atoms: C_9  and  C_10
REMARK    5  A    between atoms: C_10  and  C_11
REMARK    6  A    between atoms: C_10  and  C_12
REMARK    7  A    between atoms: C_10  and  C_13
REMARK                            x       y       z     vdW  Elec       q    Type
REMARK                         _______ _______ _______ _____ _____    ______ ____
ROOT
ATOM      1  N   UNL     1       4.949   4.366  18.029  0.00  0.00    +0.000 N 
ATOM      2  C   UNL     1       4.115   5.289  17.468  0.00  0.00    +0.000 A 
ATOM      3  C   UNL     1       2.887   5.090  18.050  0.00  0.00    +0.000 A 
ATOM      4  C   UNL     1       3.067   4.011  18.955  0.00  0.00    +0.000 A 
ATOM      5  N   UNL     1       4.327   3.551  18.905  0.00  0.00    +0.000 NA
ENDROOT
BRANCH   4   6
ATOM      6  C   UNL     1       2.037   3.360  19.866  0.00  0.00    +0.000 C 
ATOM      7  C   UNL     1       2.750   2.710  21.067  0.00  0.00    +0.000 C 
ATOM      8  C   UNL     1       1.019   4.395  20.395  0.00  0.00    +0.000 C 
ATOM      9  C   UNL     1       1.240   2.271  19.119  0.00  0.00    +0.000 C 
ENDBRANCH   4   6
BRANCH   1  10
ATOM     10  C   UNL     1       6.375   4.215  17.780  0.00  0.00    +0.000 C 
BRANCH  10  14
ATOM     11  C   UNL     1       8.332   8.914  18.142  0.00  0.00    +0.000 C 
ATOM     12  C   UNL     1       7.836   7.570  17.803  0.00  0.00    +0.000 A 
ATOM     13  C   UNL     1       7.347   6.518  18.535  0.00  0.00    +0.000 A 
ATOM     14  C   UNL     1       6.998   5.546  17.564  0.00  0.00    +0.000 A 
ATOM     15  N   UNL     1       7.300   5.970  16.329  0.00  0.00    +0.000 NA
ATOM     16  O   UNL     1       7.820   7.243  16.484  0.00  0.00    +0.000 OA
ENDBRANCH  10  14
ENDBRANCH   1  10
TORSDOF 3
ENDMDL
