MODEL 1
REMARK VINA RESULT:      -8.6      0.000      0.000
REMARK  Name = 
REMARK  5 active torsions:
REMARK  status: ('A' for Active; 'I' for Inactive)
REMARK    1  A    between atoms: C_1  and  C_2
REMARK    2  A    between atoms: C_2  and  C_4
REMARK    3  A    between atoms: C_7  and  S_8
REMARK    4  A    between atoms: S_8  and  N_11
REMARK    5  A    between atoms: N_14  and  C_15
REMARK                            x       y       z     vdW  Elec       q    Type
REMARK                         _______ _______ _______ _____ _____    ______ ____
ROOT
ATOM      1  N   UNL     1       7.846   6.497  18.485  0.00  0.00    +0.000 N 
ATOM      2  C   UNL     1       8.134   7.791  18.072  0.00  0.00    +0.000 C 
ATOM      3  O   UNL     1       8.053   8.087  16.891  0.00  0.00    +0.000 OA
ATOM      4  N   UNL     1       8.569   8.626  19.073  0.00  0.00    +0.000 N 
ATOM      5  H   UNL     1       7.937   6.175  19.438  0.00  0.00    +0.000 HD
ATOM      6  H   UNL     1       8.749   8.221  19.979  0.00  0.00    +0.000 HD
ENDROOT
BRANCH   4   7
ATOM      7  C   UNL     1       8.927   9.983  18.882  0.00  0.00    +0.000 A 
ATOM      8  C   UNL     1       8.324  10.792  17.912  0.00  0.00    +0.000 A 
ATOM      9  C   UNL     1       8.742  12.107  17.701  0.00  0.00    +0.000 A 
ATOM     10  C   UNL     1       9.761  12.636  18.478  0.00  0.00    +0.000 A 
ATOM     11 CL   UNL     1      10.289  14.248  18.201  0.00  0.00    +0.000 Cl
ATOM     12  C   UNL     1      10.350  11.864  19.478  0.00  0.00    +0.000 A 
ATOM     13  C   UNL     1       9.928  10.542  19.689  0.00  0.00    +0.000 A 
ENDBRANCH   4   7
BRANCH   1  14
ATOM     14  S   UNL     1       7.391   5.304  17.407  0.00  0.00    +0.000 S 
ATOM     15  O   UNL     1       8.204   4.128  17.640  0.00  0.00    +0.000 OA
ATOM     16  O   UNL     1       7.369   5.945  16.107  0.00  0.00    +0.000 OA
BRANCH  14  20
ATOM     17  C   UNL     1       3.045   4.352  18.487  0.00  0.00    +0.000 A 
ATOM     18  C   UNL     1       3.601   3.879  17.288  0.00  0.00    +0.000 A 
ATOM     19  C   UNL     1       4.931   4.162  16.964  0.00  0.00    +0.000 A 
ATOM     20  C   UNL     1       5.699   4.944  17.832  0.00  0.00    +0.000 A 
ATOM     21  C   UNL     1       5.147   5.439  19.020  0.00  0.00    +0.000 A 
ATOM     22  C   UNL     1       3.819   5.138  19.350  0.00  0.00    +0.000 A 
BRANCH  17  24
ATOM     23  C   UNL     1       1.183   4.005  20.234  0.00  0.00    +0.000 C 
ATOM     24  C   UNL     1       1.633   3.991  18.797  0.00  0.00    +0.000 C 
ATOM     25  O   UNL     1       0.878   3.657  17.887  0.00  0.00    +0.000 OA
ENDBRANCH  17  24
ENDBRANCH  14  20
ENDBRANCH   1  14
TORSDOF 4
ENDMDL
MODEL 2
REMARK VINA RESULT:      -8.6      5.132      6.884
REMARK  Name = 
REMARK  5 active torsions:
REMARK  status: ('A' for Active; 'I' for Inactive)
REMARK    1  A    between atoms: C_1  and  C_2
REMARK    2  A    between atoms: C_2  and  C_4
REMARK    3  A    between atoms: C_7  and  S_8
REMARK    4  A    between atoms: S_8  and  N_11
REMARK    5  A    between atoms: N_14  and  C_15
REMARK                            x       y       z     vdW  Elec       q    Type
REMARK                         _______ _______ _______ _____ _____    ______ ____
ROOT
ATOM      1  N   UNL     1       3.770   4.938  19.905  0.00  0.00    +0.000 N 
ATOM      2  C   UNL     1       2.816   5.815  19.406  0.00  0.00    +0.000 C 
ATOM      3  O   UNL     1       2.178   5.520  18.408  0.00  0.00    +0.000 OA
ATOM      4  N   UNL     1       2.734   7.011  20.077  0.00  0.00    +0.000 N 
ATOM      5  H   UNL     1       4.362   5.139  20.698  0.00  0.00    +0.000 HD
ATOM      6  H   UNL     1       3.426   7.202  20.787  0.00  0.00    +0.000 HD
ENDROOT
BRANCH   4   7
ATOM      7  C   UNL     1       1.841   8.058  19.741  0.00  0.00    +0.000 A 
ATOM      8  C   UNL     1       1.834   8.665  18.480  0.00  0.00    +0.000 A 
ATOM      9  C   UNL     1       0.990   9.739  18.195  0.00  0.00    +0.000 A 
ATOM     10  C   UNL     1       0.122  10.206  19.171  0.00  0.00    +0.000 A 
ATOM     11 CL   UNL     1      -0.902  11.543  18.825  0.00  0.00    +0.000 Cl
ATOM     12  C   UNL     1       0.080   9.592  20.421  0.00  0.00    +0.000 A 
ATOM     13  C   UNL     1       0.931   8.512  20.704  0.00  0.00    +0.000 A 
ENDBRANCH   4   7
BRANCH   1  14
ATOM     14  S   UNL     1       4.090   3.469  19.175  0.00  0.00    +0.000 S 
ATOM     15  O   UNL     1       2.834   2.835  18.830  0.00  0.00    +0.000 OA
ATOM     16  O   UNL     1       5.043   2.805  20.041  0.00  0.00    +0.000 OA
BRANCH  14  20
ATOM     17  C   UNL     1       6.358   4.563  15.351  0.00  0.00    +0.000 A 
ATOM     18  C   UNL     1       6.918   4.824  16.611  0.00  0.00    +0.000 A 
ATOM     19  C   UNL     1       6.229   4.480  17.777  0.00  0.00    +0.000 A 
ATOM     20  C   UNL     1       4.963   3.897  17.681  0.00  0.00    +0.000 A 
ATOM     21  C   UNL     1       4.385   3.653  16.429  0.00  0.00    +0.000 A 
ATOM     22  C   UNL     1       5.087   3.983  15.262  0.00  0.00    +0.000 A 
BRANCH  17  24
ATOM     23  C   UNL     1       6.773   4.303  12.821  0.00  0.00    +0.000 C 
ATOM     24  C   UNL     1       7.152   4.919  14.141  0.00  0.00    +0.000 C 
ATOM     25  O   UNL     1       8.116   5.673  14.248  0.00  0.00    +0.000 OA
ENDBRANCH  17  24
ENDBRANCH  14  20
ENDBRANCH   1  14
TORSDOF 4
ENDMDL
MODEL 3
REMARK VINA RESULT:      -8.5      5.223      6.910
REMARK  Name = 
REMARK  5 active torsions:
REMARK  status: ('A' for Active; 'I' for Inactive)
REMARK    1  A    between atoms: C_1  and  C_2
REMARK    2  A    between atoms: C_2  and  C_4
REMARK    3  A    between atoms: C_7  and  S_8
REMARK    4  A    between atoms: S_8  and  N_11
REMARK    5  A    between atoms: N_14  and  C_15
REMARK                            x       y       z     vdW  Elec       q    Type
REMARK                         _______ _______ _______ _____ _____    ______ ____
ROOT
ATOM      1  N   UNL     1       2.693   4.732  20.895  0.00  0.00    +0.000 N 
ATOM      2  C   UNL     1       2.073   5.778  20.224  0.00  0.00    +0.000 C 
ATOM      3  O   UNL     1       1.751   5.647  19.054  0.00  0.00    +0.000 OA
ATOM      4  N   UNL     1       1.945   6.931  20.960  0.00  0.00    +0.000 N 
ATOM      5  H   UNL     1       3.025   4.790  21.847  0.00  0.00    +0.000 HD
ATOM      6  H   UNL     1       2.395   6.967  21.862  0.00  0.00    +0.000 HD
ENDROOT
BRANCH   4   7
ATOM      7  C   UNL     1       1.354   8.125  20.479  0.00  0.00    +0.000 A 
ATOM      8  C   UNL     1       1.753   8.735  19.283  0.00  0.00    +0.000 A 
ATOM      9  C   UNL     1       1.201   9.946  18.866  0.00  0.00    +0.000 A 
ATOM     10  C   UNL     1       0.221  10.555  19.635  0.00  0.00    +0.000 A 
ATOM     11 CL   UNL     1      -0.443  12.058  19.130  0.00  0.00    +0.000 Cl
ATOM     12  C   UNL     1      -0.223   9.948  20.809  0.00  0.00    +0.000 A 
ATOM     13  C   UNL     1       0.334   8.729  21.226  0.00  0.00    +0.000 A 
ENDBRANCH   4   7
BRANCH   1  14
ATOM     14  S   UNL     1       3.028   3.275  20.146  0.00  0.00    +0.000 S 
ATOM     15  O   UNL     1       1.796   2.729  19.616  0.00  0.00    +0.000 OA
ATOM     16  O   UNL     1       3.823   2.526  21.097  0.00  0.00    +0.000 OA
BRANCH  14  20
ATOM     17  C   UNL     1       5.784   4.393  16.665  0.00  0.00    +0.000 A 
ATOM     18  C   UNL     1       4.551   3.767  16.425  0.00  0.00    +0.000 A 
ATOM     19  C   UNL     1       3.706   3.435  17.488  0.00  0.00    +0.000 A 
ATOM     20  C   UNL     1       4.109   3.708  18.798  0.00  0.00    +0.000 A 
ATOM     21  C   UNL     1       5.348   4.312  19.050  0.00  0.00    +0.000 A 
ATOM     22  C   UNL     1       6.184   4.658  17.981  0.00  0.00    +0.000 A 
BRANCH  17  24
ATOM     23  C   UNL     1       6.383   4.053  14.181  0.00  0.00    +0.000 C 
ATOM     24  C   UNL     1       6.629   4.754  15.492  0.00  0.00    +0.000 C 
ATOM     25  O   UNL     1       7.528   5.581  15.623  0.00  0.00    +0.000 OA
ENDBRANCH  17  24
ENDBRANCH  14  20
ENDBRANCH   1  14
TORSDOF 4
ENDMDL
MODEL 4
REMARK VINA RESULT:      -8.5      5.175      6.880
REMARK  Name = 
REMARK  5 active torsions:
REMARK  status: ('A' for Active; 'I' for Inactive)
REMARK    1  A    between atoms: C_1  and  C_2
REMARK    2  A    between atoms: C_2  and  C_4
REMARK    3  A    between atoms: C_7  and  S_8
REMARK    4  A    between atoms: S_8  and  N_11
REMARK    5  A    between atoms: N_14  and  C_15
REMARK                            x       y       z     vdW  Elec       q    Type
REMARK                         _______ _______ _______ _____ _____    ______ ____
ROOT
ATOM      1  N   UNL     1       2.739   4.707  20.790  0.00  0.00    +0.000 N 
ATOM      2  C   UNL     1       2.158   5.773  20.115  0.00  0.00    +0.000 C 
ATOM      3  O   UNL     1       1.893   5.672  18.928  0.00  0.00    +0.000 OA
ATOM      4  N   UNL     1       2.000   6.908  20.872  0.00  0.00    +0.000 N 
ATOM      5  H   UNL     1       3.024   4.740  21.759  0.00  0.00    +0.000 HD
ATOM      6  H   UNL     1       2.406   6.920  21.795  0.00  0.00    +0.000 HD
ENDROOT
BRANCH   4   7
ATOM      7  C   UNL     1       1.440   8.118  20.391  0.00  0.00    +0.000 A 
ATOM      8  C   UNL     1       0.506   8.859  21.125  0.00  0.00    +0.000 A 
ATOM      9  C   UNL     1      -0.080  10.012  20.601  0.00  0.00    +0.000 A 
ATOM     10  C   UNL     1       0.280  10.449  19.335  0.00  0.00    +0.000 A 
ATOM     11 CL   UNL     1      -0.460  11.857  18.682  0.00  0.00    +0.000 Cl
ATOM     12  C   UNL     1       1.236   9.751  18.600  0.00  0.00    +0.000 A 
ATOM     13  C   UNL     1       1.825   8.592  19.130  0.00  0.00    +0.000 A 
ENDBRANCH   4   7
BRANCH   1  14
ATOM     14  S   UNL     1       3.101   3.266  20.024  0.00  0.00    +0.000 S 
ATOM     15  O   UNL     1       1.883   2.709  19.474  0.00  0.00    +0.000 OA
ATOM     16  O   UNL     1       3.899   2.514  20.972  0.00  0.00    +0.000 OA
BRANCH  14  20
ATOM     17  C   UNL     1       5.873   4.473  16.585  0.00  0.00    +0.000 A 
ATOM     18  C   UNL     1       4.657   3.823  16.326  0.00  0.00    +0.000 A 
ATOM     19  C   UNL     1       3.807   3.464  17.375  0.00  0.00    +0.000 A 
ATOM     20  C   UNL     1       4.189   3.734  18.692  0.00  0.00    +0.000 A 
ATOM     21  C   UNL     1       5.411   4.363  18.964  0.00  0.00    +0.000 A 
ATOM     22  C   UNL     1       6.252   4.737  17.908  0.00  0.00    +0.000 A 
BRANCH  17  24
ATOM     23  C   UNL     1       6.481   4.197  14.096  0.00  0.00    +0.000 C 
ATOM     24  C   UNL     1       6.723   4.863  15.425  0.00  0.00    +0.000 C 
ATOM     25  O   UNL     1       7.623   5.685  15.581  0.00  0.00    +0.000 OA
ENDBRANCH  17  24
ENDBRANCH  14  20
ENDBRANCH   1  14
TORSDOF 4
ENDMDL
MODEL 5
REMARK VINA RESULT:      -8.5      0.541      1.059
REMARK  Name = 
REMARK  5 active torsions:
REMARK  status: ('A' for Active; 'I' for Inactive)
REMARK    1  A    between atoms: C_1  and  C_2
REMARK    2  A    between atoms: C_2  and  C_4
REMARK    3  A    between atoms: C_7  and  S_8
REMARK    4  A    between atoms: S_8  and  N_11
REMARK    5  A    between atoms: N_14  and  C_15
REMARK                            x       y       z     vdW  Elec       q    Type
REMARK                         _______ _______ _______ _____ _____    ______ ____
ROOT
ATOM      1  N   UNL     1       7.861   6.459  18.356  0.00  0.00    +0.000 N 
ATOM      2  C   UNL     1       8.094   7.808  18.124  0.00  0.00    +0.000 C 
ATOM      3  O   UNL     1       7.824   8.296  17.038  0.00  0.00    +0.000 OA
ATOM      4  N   UNL     1       8.699   8.469  19.165  0.00  0.00    +0.000 N 
ATOM      5  H   UNL     1       8.103   5.983  19.214  0.00  0.00    +0.000 HD
ATOM      6  H   UNL     1       9.021   7.921  19.949  0.00  0.00    +0.000 HD
ENDROOT
BRANCH   4   7
ATOM      7  C   UNL     1       9.040   9.844  19.148  0.00  0.00    +0.000 A 
ATOM      8  C   UNL     1       9.373  10.551  20.310  0.00  0.00    +0.000 A 
ATOM      9  C   UNL     1       9.640  11.920  20.275  0.00  0.00    +0.000 A 
ATOM     10  C   UNL     1       9.596  12.598  19.066  0.00  0.00    +0.000 A 
ATOM     11 CL   UNL     1       9.903  14.288  19.028  0.00  0.00    +0.000 Cl
ATOM     12  C   UNL     1       9.306  11.909  17.889  0.00  0.00    +0.000 A 
ATOM     13  C   UNL     1       9.039  10.531  17.927  0.00  0.00    +0.000 A 
ENDBRANCH   4   7
BRANCH   1  14
ATOM     14  S   UNL     1       7.218   5.457  17.183  0.00  0.00    +0.000 S 
ATOM     15  O   UNL     1       8.034   4.264  17.088  0.00  0.00    +0.000 OA
ATOM     16  O   UNL     1       7.005   6.303  16.026  0.00  0.00    +0.000 OA
BRANCH  14  20
ATOM     17  C   UNL     1       3.079   4.311  18.770  0.00  0.00    +0.000 A 
ATOM     18  C   UNL     1       3.495   3.892  17.497  0.00  0.00    +0.000 A 
ATOM     19  C   UNL     1       4.762   4.234  17.017  0.00  0.00    +0.000 A 
ATOM     20  C   UNL     1       5.607   5.021  17.806  0.00  0.00    +0.000 A 
ATOM     21  C   UNL     1       5.193   5.463  19.069  0.00  0.00    +0.000 A 
ATOM     22  C   UNL     1       3.929   5.103  19.553  0.00  0.00    +0.000 A 
BRANCH  17  24
ATOM     23  C   UNL     1       1.202   4.471  20.528  0.00  0.00    +0.000 C 
ATOM     24  C   UNL     1       1.731   3.889  19.243  0.00  0.00    +0.000 C 
ATOM     25  O   UNL     1       1.097   3.054  18.604  0.00  0.00    +0.000 OA
ENDBRANCH  17  24
ENDBRANCH  14  20
ENDBRANCH   1  14
TORSDOF 4
ENDMDL
MODEL 6
REMARK VINA RESULT:      -8.5      5.193      7.017
REMARK  Name = 
REMARK  5 active torsions:
REMARK  status: ('A' for Active; 'I' for Inactive)
REMARK    1  A    between atoms: C_1  and  C_2
REMARK    2  A    between atoms: C_2  and  C_4
REMARK    3  A    between atoms: C_7  and  S_8
REMARK    4  A    between atoms: S_8  and  N_11
REMARK    5  A    between atoms: N_14  and  C_15
REMARK                            x       y       z     vdW  Elec       q    Type
REMARK                         _______ _______ _______ _____ _____    ______ ____
ROOT
ATOM      1  N   UNL     1       2.764   4.641  20.799  0.00  0.00    +0.000 N 
ATOM      2  C   UNL     1       2.100   5.699  20.193  0.00  0.00    +0.000 C 
ATOM      3  O   UNL     1       1.737   5.606  19.031  0.00  0.00    +0.000 OA
ATOM      4  N   UNL     1       1.978   6.820  20.976  0.00  0.00    +0.000 N 
ATOM      5  H   UNL     1       3.130   4.669  21.740  0.00  0.00    +0.000 HD
ATOM      6  H   UNL     1       2.461   6.831  21.862  0.00  0.00    +0.000 HD
ENDROOT
BRANCH   4   7
ATOM      7  C   UNL     1       1.347   8.020  20.564  0.00  0.00    +0.000 A 
ATOM      8  C   UNL     1       1.681   8.675  19.372  0.00  0.00    +0.000 A 
ATOM      9  C   UNL     1       1.091   9.890  19.022  0.00  0.00    +0.000 A 
ATOM     10  C   UNL     1       0.140  10.457  19.856  0.00  0.00    +0.000 A 
ATOM     11 CL   UNL     1      -0.569  11.965  19.433  0.00  0.00    +0.000 Cl
ATOM     12  C   UNL     1      -0.239   9.805  21.029  0.00  0.00    +0.000 A 
ATOM     13  C   UNL     1       0.355   8.582  21.378  0.00  0.00    +0.000 A 
ENDBRANCH   4   7
BRANCH   1  14
ATOM     14  S   UNL     1       3.097   3.220  19.984  0.00  0.00    +0.000 S 
ATOM     15  O   UNL     1       1.859   2.682  19.457  0.00  0.00    +0.000 OA
ATOM     16  O   UNL     1       3.920   2.441  20.885  0.00  0.00    +0.000 OA
BRANCH  14  20
ATOM     17  C   UNL     1       5.812   4.500  16.526  0.00  0.00    +0.000 A 
ATOM     18  C   UNL     1       6.180   4.759  17.855  0.00  0.00    +0.000 A 
ATOM     19  C   UNL     1       5.356   4.359  18.910  0.00  0.00    +0.000 A 
ATOM     20  C   UNL     1       4.144   3.721  18.632  0.00  0.00    +0.000 A 
ATOM     21  C   UNL     1       3.756   3.477  17.308  0.00  0.00    +0.000 A 
ATOM     22  C   UNL     1       4.594   3.864  16.254  0.00  0.00    +0.000 A 
BRANCH  17  24
ATOM     23  C   UNL     1       6.621   4.268  14.090  0.00  0.00    +0.000 C 
ATOM     24  C   UNL     1       6.746   4.919  15.443  0.00  0.00    +0.000 C 
ATOM     25  O   UNL     1       7.616   5.752  15.681  0.00  0.00    +0.000 OA
ENDBRANCH  17  24
ENDBRANCH  14  20
ENDBRANCH   1  14
TORSDOF 4
ENDMDL
MODEL 7
REMARK VINA RESULT:      -8.5      0.990      1.059
REMARK  Name = 
REMARK  5 active torsions:
REMARK  status: ('A' for Active; 'I' for Inactive)
REMARK    1  A    between atoms: C_1  and  C_2
REMARK    2  A    between atoms: C_2  and  C_4
REMARK    3  A    between atoms: C_7  and  S_8
REMARK    4  A    between atoms: S_8  and  N_11
REMARK    5  A    between atoms: N_14  and  C_15
REMARK                            x       y       z     vdW  Elec       q    Type
REMARK                         _______ _______ _______ _____ _____    ______ ____
ROOT
ATOM      1  N   UNL     1       7.445   6.778  17.368  0.00  0.00    +0.000 N 
ATOM      2  C   UNL     1       8.101   7.748  18.114  0.00  0.00    +0.000 C 
ATOM      3  O   UNL     1       8.674   7.439  19.147  0.00  0.00    +0.000 OA
ATOM      4  N   UNL     1       7.972   9.026  17.628  0.00  0.00    +0.000 N 
ATOM      5  H   UNL     1       6.915   6.973  16.531  0.00  0.00    +0.000 HD
ATOM      6  H   UNL     1       7.339   9.175  16.857  0.00  0.00    +0.000 HD
ENDROOT
BRANCH   4   7
ATOM      7  C   UNL     1       8.548  10.172  18.230  0.00  0.00    +0.000 A 
ATOM      8  C   UNL     1       8.436  11.451  17.672  0.00  0.00    +0.000 A 
ATOM      9  C   UNL     1       9.069  12.553  18.249  0.00  0.00    +0.000 A 
ATOM     10  C   UNL     1       9.808  12.389  19.411  0.00  0.00    +0.000 A 
ATOM     11 CL   UNL     1      10.605  13.743  20.108  0.00  0.00    +0.000 Cl
ATOM     12  C   UNL     1       9.901  11.133  20.008  0.00  0.00    +0.000 A 
ATOM     13  C   UNL     1       9.263  10.026  19.426  0.00  0.00    +0.000 A 
ENDBRANCH   4   7
BRANCH   1  14
ATOM     14  S   UNL     1       7.402   5.175  17.841  0.00  0.00    +0.000 S 
ATOM     15  O   UNL     1       8.069   5.047  19.120  0.00  0.00    +0.000 OA
ATOM     16  O   UNL     1       7.854   4.420  16.690  0.00  0.00    +0.000 OA
BRANCH  14  20
ATOM     17  C   UNL     1       2.949   4.234  18.342  0.00  0.00    +0.000 A 
ATOM     18  C   UNL     1       3.633   3.847  17.179  0.00  0.00    +0.000 A 
ATOM     19  C   UNL     1       4.994   4.126  17.032  0.00  0.00    +0.000 A 
ATOM     20  C   UNL     1       5.668   4.819  18.042  0.00  0.00    +0.000 A 
ATOM     21  C   UNL     1       4.990   5.229  19.197  0.00  0.00    +0.000 A 
ATOM     22  C   UNL     1       3.629   4.932  19.348  0.00  0.00    +0.000 A 
BRANCH  17  24
ATOM     23  C   UNL     1       0.968   3.485  19.810  0.00  0.00    +0.000 C 
ATOM     24  C   UNL     1       1.506   3.880  18.460  0.00  0.00    +0.000 C 
ATOM     25  O   UNL     1       0.797   3.881  17.457  0.00  0.00    +0.000 OA
ENDBRANCH  17  24
ENDBRANCH  14  20
ENDBRANCH   1  14
TORSDOF 4
ENDMDL
MODEL 8
REMARK VINA RESULT:      -8.5      5.199      6.997
REMARK  Name = 
REMARK  5 active torsions:
REMARK  status: ('A' for Active; 'I' for Inactive)
REMARK    1  A    between atoms: C_1  and  C_2
REMARK    2  A    between atoms: C_2  and  C_4
REMARK    3  A    between atoms: C_7  and  S_8
REMARK    4  A    between atoms: S_8  and  N_11
REMARK    5  A    between atoms: N_14  and  C_15
REMARK                            x       y       z     vdW  Elec       q    Type
REMARK                         _______ _______ _______ _____ _____    ______ ____
ROOT
ATOM      1  N   UNL     1       2.720   4.702  20.899  0.00  0.00    +0.000 N 
ATOM      2  C   UNL     1       2.109   5.756  20.233  0.00  0.00    +0.000 C 
ATOM      3  O   UNL     1       1.810   5.642  19.055  0.00  0.00    +0.000 OA
ATOM      4  N   UNL     1       1.961   6.896  20.984  0.00  0.00    +0.000 N 
ATOM      5  H   UNL     1       3.033   4.746  21.858  0.00  0.00    +0.000 HD
ATOM      6  H   UNL     1       2.394   6.920  21.895  0.00  0.00    +0.000 HD
ENDROOT
BRANCH   4   7
ATOM      7  C   UNL     1       1.374   8.096  20.510  0.00  0.00    +0.000 A 
ATOM      8  C   UNL     1       0.402   8.796  21.234  0.00  0.00    +0.000 A 
ATOM      9  C   UNL     1      -0.208   9.938  20.715  0.00  0.00    +0.000 A 
ATOM     10  C   UNL     1       0.166  10.408  19.465  0.00  0.00    +0.000 A 
ATOM     11 CL   UNL     1      -0.602  11.803  18.818  0.00  0.00    +0.000 Cl
ATOM     12  C   UNL     1       1.161   9.752  18.741  0.00  0.00    +0.000 A 
ATOM     13  C   UNL     1       1.773   8.603  19.266  0.00  0.00    +0.000 A 
ENDBRANCH   4   7
BRANCH   1  14
ATOM     14  S   UNL     1       3.075   3.259  20.135  0.00  0.00    +0.000 S 
ATOM     15  O   UNL     1       1.845   2.680  19.634  0.00  0.00    +0.000 OA
ATOM     16  O   UNL     1       3.916   2.527  21.060  0.00  0.00    +0.000 OA
BRANCH  14  20
ATOM     17  C   UNL     1       5.754   4.459  16.621  0.00  0.00    +0.000 A 
ATOM     18  C   UNL     1       6.111   4.795  17.936  0.00  0.00    +0.000 A 
ATOM     19  C   UNL     1       5.297   4.420  19.009  0.00  0.00    +0.000 A 
ATOM     20  C   UNL     1       4.109   3.727  18.761  0.00  0.00    +0.000 A 
ATOM     21  C   UNL     1       3.732   3.406  17.450  0.00  0.00    +0.000 A 
ATOM     22  C   UNL     1       4.560   3.769  16.380  0.00  0.00    +0.000 A 
BRANCH  17  24
ATOM     23  C   UNL     1       6.486   4.235  14.160  0.00  0.00    +0.000 C 
ATOM     24  C   UNL     1       6.676   4.855  15.520  0.00  0.00    +0.000 C 
ATOM     25  O   UNL     1       7.590   5.644  15.747  0.00  0.00    +0.000 OA
ENDBRANCH  17  24
ENDBRANCH  14  20
ENDBRANCH   1  14
TORSDOF 4
ENDMDL
MODEL 9
REMARK VINA RESULT:      -8.4      5.446      7.437
REMARK  Name = 
REMARK  5 active torsions:
REMARK  status: ('A' for Active; 'I' for Inactive)
REMARK    1  A    between atoms: C_1  and  C_2
REMARK    2  A    between atoms: C_2  and  C_4
REMARK    3  A    between atoms: C_7  and  S_8
REMARK    4  A    between atoms: S_8  and  N_11
REMARK    5  A    between atoms: N_14  and  C_15
REMARK                            x       y       z     vdW  Elec       q    Type
REMARK                         _______ _______ _______ _____ _____    ______ ____
ROOT
ATOM      1  N   UNL     1       2.953   6.778  18.800  0.00  0.00    +0.000 N 
ATOM      2  C   UNL     1       2.091   7.253  19.779  0.00  0.00    +0.000 C 
ATOM      3  O   UNL     1       1.659   6.495  20.632  0.00  0.00    +0.000 OA
ATOM      4  N   UNL     1       1.741   8.574  19.637  0.00  0.00    +0.000 N 
ATOM      5  H   UNL     1       3.311   7.339  18.041  0.00  0.00    +0.000 HD
ATOM      6  H   UNL     1       2.035   9.053  18.799  0.00  0.00    +0.000 HD
ENDROOT
BRANCH   4   7
ATOM      7  C   UNL     1       0.868   9.268  20.511  0.00  0.00    +0.000 A 
ATOM      8  C   UNL     1      -0.042  10.230  20.059  0.00  0.00    +0.000 A 
ATOM      9  C   UNL     1      -0.844  10.947  20.948  0.00  0.00    +0.000 A 
ATOM     10  C   UNL     1      -0.757  10.691  22.308  0.00  0.00    +0.000 A 
ATOM     11 CL   UNL     1      -1.730  11.591  23.404  0.00  0.00    +0.000 Cl
ATOM     12  C   UNL     1       0.112   9.710  22.781  0.00  0.00    +0.000 A 
ATOM     13  C   UNL     1       0.917   8.990  21.884  0.00  0.00    +0.000 A 
ENDBRANCH   4   7
BRANCH   1  14
ATOM     14  S   UNL     1       3.427   5.175  18.740  0.00  0.00    +0.000 S 
ATOM     15  O   UNL     1       2.249   4.345  18.597  0.00  0.00    +0.000 OA
ATOM     16  O   UNL     1       4.329   4.996  19.859  0.00  0.00    +0.000 OA
BRANCH  14  20
ATOM     17  C   UNL     1       5.949   4.853  14.932  0.00  0.00    +0.000 A 
ATOM     18  C   UNL     1       5.643   3.708  15.683  0.00  0.00    +0.000 A 
ATOM     19  C   UNL     1       4.865   3.806  16.840  0.00  0.00    +0.000 A 
ATOM     20  C   UNL     1       4.413   5.060  17.260  0.00  0.00    +0.000 A 
ATOM     21  C   UNL     1       4.731   6.212  16.530  0.00  0.00    +0.000 A 
ATOM     22  C   UNL     1       5.497   6.107  15.362  0.00  0.00    +0.000 A 
BRANCH  17  24
ATOM     23  C   UNL     1       6.365   3.599  12.719  0.00  0.00    +0.000 C 
ATOM     24  C   UNL     1       6.753   4.684  13.689  0.00  0.00    +0.000 C 
ATOM     25  O   UNL     1       7.733   5.401  13.498  0.00  0.00    +0.000 OA
ENDBRANCH  17  24
ENDBRANCH  14  20
ENDBRANCH   1  14
TORSDOF 4
ENDMDL
