MODEL 1
REMARK VINA RESULT:      -8.9      0.000      0.000
REMARK  Name = 
REMARK  9 active torsions:
REMARK  status: ('A' for Active; 'I' for Inactive)
REMARK    1  A    between atoms: C_1  and  O_2
REMARK    2  A    between atoms: O_2  and  C_3
REMARK    3  A    between atoms: C_8  and  C_9
REMARK    4  A    between atoms: C_9  and  C_10
REMARK    5  A    between atoms: C_10  and  N_11
REMARK    6  A    between atoms: C_12  and  C_14
REMARK    7  A    between atoms: C_18  and  N_19
REMARK    8  A    between atoms: C_20  and  C_22
REMARK    9  A    between atoms: C_22  and  C_23
REMARK                            x       y       z     vdW  Elec       q    Type
REMARK                         _______ _______ _______ _____ _____    ______ ____
ROOT
ATOM      1  C   UNL     1       1.055   9.348  20.197  0.00  0.00    +0.000 A 
ATOM      2  C   UNL     1       1.128   9.747  18.862  0.00  0.00    +0.000 A 
ATOM      3  C   UNL     1       1.773   8.929  17.940  0.00  0.00    +0.000 A 
ATOM      4  C   UNL     1       2.338   7.718  18.349  0.00  0.00    +0.000 A 
ATOM      5  C   UNL     1       2.241   7.284  19.673  0.00  0.00    +0.000 A 
ATOM      6  C   UNL     1       1.598   8.111  20.600  0.00  0.00    +0.000 A 
ENDROOT
BRANCH   1   8
ATOM      7  N   UNL     1      -0.771  10.899  20.786  0.00  0.00    +0.000 N 
ATOM      8  C   UNL     1       0.345  10.178  21.200  0.00  0.00    +0.000 C 
ATOM      9  O   UNL     1       0.786  10.228  22.346  0.00  0.00    +0.000 OA
ATOM     10  H   UNL     1      -0.890  11.081  19.794  0.00  0.00    +0.000 HD
BRANCH   7  11
ATOM     11  C   UNL     1      -1.323  11.826  21.761  0.00  0.00    +0.000 C 
BRANCH  11  12
ATOM     12  C   UNL     1      -2.428  12.775  21.289  0.00  0.00    +0.000 C 
BRANCH  12  18
ATOM     13  C   UNL     1      -4.905  13.048  21.944  0.00  0.00    +0.000 A 
ATOM     14  C   UNL     1      -5.907  13.031  22.923  0.00  0.00    +0.000 A 
ATOM     15  C   UNL     1      -5.595  12.749  24.254  0.00  0.00    +0.000 A 
ATOM     16  C   UNL     1      -4.288  12.439  24.599  0.00  0.00    +0.000 A 
ATOM     17  C   UNL     1      -3.296  12.388  23.622  0.00  0.00    +0.000 A 
ATOM     18  C   UNL     1      -3.586  12.688  22.278  0.00  0.00    +0.000 A 
BRANCH  13  20
ATOM     19  C   UNL     1      -5.862  14.662  20.526  0.00  0.00    +0.000 C 
ATOM     20  O   UNL     1      -5.161  13.422  20.644  0.00  0.00    +0.000 OA
ENDBRANCH  13  20
ENDBRANCH  12  18
ENDBRANCH  11  12
ENDBRANCH   7  11
ENDBRANCH   1   8
BRANCH   5  21
ATOM     21  N   UNL     1       2.764   6.045  20.118  0.00  0.00    +0.000 N 
ATOM     22  C   UNL     1       2.024   4.903  20.370  0.00  0.00    +0.000 C 
ATOM     23  O   UNL     1       0.801   4.792  20.255  0.00  0.00    +0.000 OA
ATOM     24  H   UNL     1       3.750   6.042  20.381  0.00  0.00    +0.000 HD
BRANCH  22  25
ATOM     25  C   UNL     1       2.822   3.720  20.879  0.00  0.00    +0.000 C 
BRANCH  25  26
ATOM     26  C   UNL     1       3.779   3.156  19.842  0.00  0.00    +0.000 C 
ATOM     27  S   UNL     1       5.026   4.316  19.252  0.00  0.00    +0.000 S 
ATOM     28  C   UNL     1       4.513   4.075  17.589  0.00  0.00    +0.000 C 
ATOM     29  N   UNL     1       5.151   4.758  16.573  0.00  0.00    +0.000 N 
ATOM     30  C   UNL     1       4.739   4.578  15.176  0.00  0.00    +0.000 C 
ATOM     31  C   UNL     1       5.872   3.914  14.392  0.00  0.00    +0.000 C 
ATOM     32  C   UNL     1       7.177   4.697  14.533  0.00  0.00    +0.000 C 
ATOM     33  C   UNL     1       7.515   4.927  16.005  0.00  0.00    +0.000 C 
ATOM     34  C   UNL     1       6.347   5.586  16.734  0.00  0.00    +0.000 C 
ATOM     35  N   UNL     1       3.537   3.241  17.420  0.00  0.00    +0.000 NA
ATOM     36  C   UNL     1       3.055   2.719  18.595  0.00  0.00    +0.000 C 
ATOM     37  O   UNL     1       2.069   1.985  18.656  0.00  0.00    +0.000 OA
ENDBRANCH  25  26
ENDBRANCH  22  25
ENDBRANCH   5  21
TORSDOF 8
ENDMDL
MODEL 2
REMARK VINA RESULT:      -8.9      4.454      9.452
REMARK  Name = 
REMARK  9 active torsions:
REMARK  status: ('A' for Active; 'I' for Inactive)
REMARK    1  A    between atoms: C_1  and  O_2
REMARK    2  A    between atoms: O_2  and  C_3
REMARK    3  A    between atoms: C_8  and  C_9
REMARK    4  A    between atoms: C_9  and  C_10
REMARK    5  A    between atoms: C_10  and  N_11
REMARK    6  A    between atoms: C_12  and  C_14
REMARK    7  A    between atoms: C_18  and  N_19
REMARK    8  A    between atoms: C_20  and  C_22
REMARK    9  A    between atoms: C_22  and  C_23
REMARK                            x       y       z     vdW  Elec       q    Type
REMARK                         _______ _______ _______ _____ _____    ______ ____
ROOT
ATOM      1  C   UNL     1       6.963   5.662  16.992  0.00  0.00    +0.000 A 
ATOM      2  C   UNL     1       7.506   5.274  15.768  0.00  0.00    +0.000 A 
ATOM      3  C   UNL     1       6.868   4.291  15.019  0.00  0.00    +0.000 A 
ATOM      4  C   UNL     1       5.692   3.702  15.490  0.00  0.00    +0.000 A 
ATOM      5  C   UNL     1       5.111   4.105  16.694  0.00  0.00    +0.000 A 
ATOM      6  C   UNL     1       5.759   5.089  17.449  0.00  0.00    +0.000 A 
ENDROOT
BRANCH   1   8
ATOM      7  N   UNL     1       7.651   8.016  17.267  0.00  0.00    +0.000 N 
ATOM      8  C   UNL     1       7.597   6.732  17.801  0.00  0.00    +0.000 C 
ATOM      9  O   UNL     1       8.084   6.440  18.891  0.00  0.00    +0.000 OA
ATOM     10  H   UNL     1       7.542   8.129  16.264  0.00  0.00    +0.000 HD
BRANCH   7  11
ATOM     11  C   UNL     1       8.433   8.982  18.021  0.00  0.00    +0.000 C 
BRANCH  11  12
ATOM     12  C   UNL     1       7.908  10.419  18.088  0.00  0.00    +0.000 C 
BRANCH  12  18
ATOM     13  C   UNL     1       9.159  12.654  17.806  0.00  0.00    +0.000 A 
ATOM     14  C   UNL     1      10.313  13.427  17.989  0.00  0.00    +0.000 A 
ATOM     15  C   UNL     1      11.440  12.884  18.609  0.00  0.00    +0.000 A 
ATOM     16  C   UNL     1      11.398  11.583  19.087  0.00  0.00    +0.000 A 
ATOM     17  C   UNL     1      10.233  10.828  18.968  0.00  0.00    +0.000 A 
ATOM     18  C   UNL     1       9.092  11.349  18.330  0.00  0.00    +0.000 A 
BRANCH  13  20
ATOM     19  C   UNL     1       7.355  14.163  17.782  0.00  0.00    +0.000 C 
ATOM     20  O   UNL     1       8.069  13.124  17.108  0.00  0.00    +0.000 OA
ENDBRANCH  13  20
ENDBRANCH  12  18
ENDBRANCH  11  12
ENDBRANCH   7  11
ENDBRANCH   1   8
BRANCH   5  21
ATOM     21  N   UNL     1       3.899   3.562  17.185  0.00  0.00    +0.000 N 
ATOM     22  C   UNL     1       3.745   2.893  18.388  0.00  0.00    +0.000 C 
ATOM     23  O   UNL     1       4.637   2.661  19.207  0.00  0.00    +0.000 OA
ATOM     24  H   UNL     1       3.109   3.569  16.539  0.00  0.00    +0.000 HD
BRANCH  22  25
ATOM     25  C   UNL     1       2.349   2.373  18.659  0.00  0.00    +0.000 C 
BRANCH  25  26
ATOM     26  C   UNL     1       1.343   3.479  18.933  0.00  0.00    +0.000 C 
ATOM     27  S   UNL     1       1.754   5.075  18.200  0.00  0.00    +0.000 S 
ATOM     28  C   UNL     1       1.678   5.855  19.773  0.00  0.00    +0.000 C 
ATOM     29  N   UNL     1       1.924   7.209  19.873  0.00  0.00    +0.000 N 
ATOM     30  C   UNL     1       1.872   7.885  21.175  0.00  0.00    +0.000 C 
ATOM     31  C   UNL     1       0.711   8.882  21.185  0.00  0.00    +0.000 C 
ATOM     32  C   UNL     1       0.806   9.856  20.011  0.00  0.00    +0.000 C 
ATOM     33  C   UNL     1       0.942   9.101  18.691  0.00  0.00    +0.000 C 
ATOM     34  C   UNL     1       2.110   8.120  18.743  0.00  0.00    +0.000 C 
ATOM     35  N   UNL     1       1.383   5.081  20.767  0.00  0.00    +0.000 NA
ATOM     36  C   UNL     1       1.217   3.767  20.406  0.00  0.00    +0.000 C 
ATOM     37  O   UNL     1       1.030   2.859  21.217  0.00  0.00    +0.000 OA
ENDBRANCH  25  26
ENDBRANCH  22  25
ENDBRANCH   5  21
TORSDOF 8
ENDMDL
MODEL 3
REMARK VINA RESULT:      -8.7      1.200      1.412
REMARK  Name = 
REMARK  9 active torsions:
REMARK  status: ('A' for Active; 'I' for Inactive)
REMARK    1  A    between atoms: C_1  and  O_2
REMARK    2  A    between atoms: O_2  and  C_3
REMARK    3  A    between atoms: C_8  and  C_9
REMARK    4  A    between atoms: C_9  and  C_10
REMARK    5  A    between atoms: C_10  and  N_11
REMARK    6  A    between atoms: C_12  and  C_14
REMARK    7  A    between atoms: C_18  and  N_19
REMARK    8  A    between atoms: C_20  and  C_22
REMARK    9  A    between atoms: C_22  and  C_23
REMARK                            x       y       z     vdW  Elec       q    Type
REMARK                         _______ _______ _______ _____ _____    ______ ____
ROOT
ATOM      1  C   UNL     1       0.937   9.046  20.561  0.00  0.00    +0.000 A 
ATOM      2  C   UNL     1       1.093   9.565  19.276  0.00  0.00    +0.000 A 
ATOM      3  C   UNL     1       1.806   8.839  18.328  0.00  0.00    +0.000 A 
ATOM      4  C   UNL     1       2.359   7.600  18.662  0.00  0.00    +0.000 A 
ATOM      5  C   UNL     1       2.181   7.046  19.931  0.00  0.00    +0.000 A 
ATOM      6  C   UNL     1       1.469   7.781  20.885  0.00  0.00    +0.000 A 
ENDROOT
BRANCH   1   8
ATOM      7  N   UNL     1      -0.063  11.138  21.403  0.00  0.00    +0.000 N 
ATOM      8  C   UNL     1       0.153   9.776  21.586  0.00  0.00    +0.000 C 
ATOM      9  O   UNL     1      -0.245   9.163  22.575  0.00  0.00    +0.000 OA
ATOM     10  H   UNL     1       0.547  11.644  20.768  0.00  0.00    +0.000 HD
BRANCH   7  11
ATOM     11  C   UNL     1      -0.685  11.836  22.516  0.00  0.00    +0.000 C 
BRANCH  11  12
ATOM     12  C   UNL     1      -2.212  11.942  22.522  0.00  0.00    +0.000 C 
BRANCH  12  18
ATOM     13  C   UNL     1      -3.938  13.414  23.743  0.00  0.00    +0.000 A 
ATOM     14  C   UNL     1      -4.244  14.577  24.462  0.00  0.00    +0.000 A 
ATOM     15  C   UNL     1      -3.251  15.515  24.750  0.00  0.00    +0.000 A 
ATOM     16  C   UNL     1      -1.943  15.270  24.359  0.00  0.00    +0.000 A 
ATOM     17  C   UNL     1      -1.617  14.086  23.701  0.00  0.00    +0.000 A 
ATOM     18  C   UNL     1      -2.605  13.136  23.383  0.00  0.00    +0.000 A 
BRANCH  13  20
ATOM     19  C   UNL     1      -5.804  13.033  22.363  0.00  0.00    +0.000 C 
ATOM     20  O   UNL     1      -4.910  12.520  23.353  0.00  0.00    +0.000 OA
ENDBRANCH  13  20
ENDBRANCH  12  18
ENDBRANCH  11  12
ENDBRANCH   7  11
ENDBRANCH   1   8
BRANCH   5  21
ATOM     21  N   UNL     1       2.690   5.776  20.296  0.00  0.00    +0.000 N 
ATOM     22  C   UNL     1       1.943   4.618  20.432  0.00  0.00    +0.000 C 
ATOM     23  O   UNL     1       0.725   4.519  20.267  0.00  0.00    +0.000 OA
ATOM     24  H   UNL     1       3.666   5.750  20.592  0.00  0.00    +0.000 HD
BRANCH  22  25
ATOM     25  C   UNL     1       2.724   3.398  20.874  0.00  0.00    +0.000 C 
BRANCH  25  26
ATOM     26  C   UNL     1       3.675   2.880  19.808  0.00  0.00    +0.000 C 
ATOM     27  S   UNL     1       4.968   4.039  19.319  0.00  0.00    +0.000 S 
ATOM     28  C   UNL     1       4.468   3.940  17.638  0.00  0.00    +0.000 C 
ATOM     29  N   UNL     1       5.142   4.674  16.683  0.00  0.00    +0.000 N 
ATOM     30  C   UNL     1       4.743   4.614  15.272  0.00  0.00    +0.000 C 
ATOM     31  C   UNL     1       5.864   3.972  14.453  0.00  0.00    +0.000 C 
ATOM     32  C   UNL     1       7.192   4.698  14.666  0.00  0.00    +0.000 C 
ATOM     33  C   UNL     1       7.518   4.805  16.154  0.00  0.00    +0.000 C 
ATOM     34  C   UNL     1       6.363   5.447  16.919  0.00  0.00    +0.000 C 
ATOM     35  N   UNL     1       3.468   3.154  17.397  0.00  0.00    +0.000 NA
ATOM     36  C   UNL     1       2.954   2.563  18.524  0.00  0.00    +0.000 C 
ATOM     37  O   UNL     1       1.943   1.860  18.520  0.00  0.00    +0.000 OA
ENDBRANCH  25  26
ENDBRANCH  22  25
ENDBRANCH   5  21
TORSDOF 8
ENDMDL
MODEL 4
REMARK VINA RESULT:      -8.7      0.968      1.694
REMARK  Name = 
REMARK  9 active torsions:
REMARK  status: ('A' for Active; 'I' for Inactive)
REMARK    1  A    between atoms: C_1  and  O_2
REMARK    2  A    between atoms: O_2  and  C_3
REMARK    3  A    between atoms: C_8  and  C_9
REMARK    4  A    between atoms: C_9  and  C_10
REMARK    5  A    between atoms: C_10  and  N_11
REMARK    6  A    between atoms: C_12  and  C_14
REMARK    7  A    between atoms: C_18  and  N_19
REMARK    8  A    between atoms: C_20  and  C_22
REMARK    9  A    between atoms: C_22  and  C_23
REMARK                            x       y       z     vdW  Elec       q    Type
REMARK                         _______ _______ _______ _____ _____    ______ ____
ROOT
ATOM      1  C   UNL     1       1.094   8.976  20.876  0.00  0.00    +0.000 A 
ATOM      2  C   UNL     1       1.140   9.499  19.583  0.00  0.00    +0.000 A 
ATOM      3  C   UNL     1       1.692   8.737  18.559  0.00  0.00    +0.000 A 
ATOM      4  C   UNL     1       2.192   7.460  18.824  0.00  0.00    +0.000 A 
ATOM      5  C   UNL     1       2.119   6.905  20.103  0.00  0.00    +0.000 A 
ATOM      6  C   UNL     1       1.570   7.675  21.133  0.00  0.00    +0.000 A 
ENDROOT
BRANCH   1   8
ATOM      7  N   UNL     1      -0.694  10.447  21.730  0.00  0.00    +0.000 N 
ATOM      8  C   UNL     1       0.481   9.746  21.986  0.00  0.00    +0.000 C 
ATOM      9  O   UNL     1       1.049   9.768  23.075  0.00  0.00    +0.000 OA
ATOM     10  H   UNL     1      -0.931  10.661  20.766  0.00  0.00    +0.000 HD
BRANCH   7  11
ATOM     11  C   UNL     1      -1.156  11.319  22.797  0.00  0.00    +0.000 C 
BRANCH  11  12
ATOM     12  C   UNL     1      -1.517  12.761  22.427  0.00  0.00    +0.000 C 
BRANCH  12  18
ATOM     13  C   UNL     1      -4.062  12.912  22.061  0.00  0.00    +0.000 A 
ATOM     14  C   UNL     1      -5.174  12.784  21.218  0.00  0.00    +0.000 A 
ATOM     15  C   UNL     1      -5.015  12.387  19.889  0.00  0.00    +0.000 A 
ATOM     16  C   UNL     1      -3.740  12.162  19.390  0.00  0.00    +0.000 A 
ATOM     17  C   UNL     1      -2.624  12.350  20.202  0.00  0.00    +0.000 A 
ATOM     18  C   UNL     1      -2.763  12.731  21.550  0.00  0.00    +0.000 A 
BRANCH  13  20
ATOM     19  C   UNL     1      -5.472  12.867  23.943  0.00  0.00    +0.000 C 
ATOM     20  O   UNL     1      -4.193  13.200  23.401  0.00  0.00    +0.000 OA
ENDBRANCH  13  20
ENDBRANCH  12  18
ENDBRANCH  11  12
ENDBRANCH   7  11
ENDBRANCH   1   8
BRANCH   5  21
ATOM     21  N   UNL     1       2.577   5.598  20.403  0.00  0.00    +0.000 N 
ATOM     22  C   UNL     1       1.784   4.467  20.485  0.00  0.00    +0.000 C 
ATOM     23  O   UNL     1       0.563   4.425  20.320  0.00  0.00    +0.000 OA
ATOM     24  H   UNL     1       3.552   5.519  20.694  0.00  0.00    +0.000 HD
BRANCH  22  25
ATOM     25  C   UNL     1       2.516   3.196  20.865  0.00  0.00    +0.000 C 
BRANCH  25  26
ATOM     26  C   UNL     1       3.452   2.699  19.775  0.00  0.00    +0.000 C 
ATOM     27  S   UNL     1       4.839   3.793  19.411  0.00  0.00    +0.000 S 
ATOM     28  C   UNL     1       4.375   3.875  17.719  0.00  0.00    +0.000 C 
ATOM     29  N   UNL     1       5.124   4.634  16.843  0.00  0.00    +0.000 N 
ATOM     30  C   UNL     1       4.757   4.723  15.425  0.00  0.00    +0.000 C 
ATOM     31  C   UNL     1       5.847   4.070  14.574  0.00  0.00    +0.000 C 
ATOM     32  C   UNL     1       7.219   4.672  14.873  0.00  0.00    +0.000 C 
ATOM     33  C   UNL     1       7.515   4.628  16.370  0.00  0.00    +0.000 C 
ATOM     34  C   UNL     1       6.392   5.289  17.166  0.00  0.00    +0.000 C 
ATOM     35  N   UNL     1       3.326   3.190  17.393  0.00  0.00    +0.000 NA
ATOM     36  C   UNL     1       2.741   2.547  18.456  0.00  0.00    +0.000 C 
ATOM     37  O   UNL     1       1.681   1.926  18.373  0.00  0.00    +0.000 OA
ENDBRANCH  25  26
ENDBRANCH  22  25
ENDBRANCH   5  21
TORSDOF 8
ENDMDL
MODEL 5
REMARK VINA RESULT:      -8.7      1.720      2.583
REMARK  Name = 
REMARK  9 active torsions:
REMARK  status: ('A' for Active; 'I' for Inactive)
REMARK    1  A    between atoms: C_1  and  O_2
REMARK    2  A    between atoms: O_2  and  C_3
REMARK    3  A    between atoms: C_8  and  C_9
REMARK    4  A    between atoms: C_9  and  C_10
REMARK    5  A    between atoms: C_10  and  N_11
REMARK    6  A    between atoms: C_12  and  C_14
REMARK    7  A    between atoms: C_18  and  N_19
REMARK    8  A    between atoms: C_20  and  C_22
REMARK    9  A    between atoms: C_22  and  C_23
REMARK                            x       y       z     vdW  Elec       q    Type
REMARK                         _______ _______ _______ _____ _____    ______ ____
ROOT
ATOM      1  C   UNL     1       1.093   8.920  20.982  0.00  0.00    +0.000 A 
ATOM      2  C   UNL     1       1.144   9.477  19.704  0.00  0.00    +0.000 A 
ATOM      3  C   UNL     1       1.711   8.747  18.665  0.00  0.00    +0.000 A 
ATOM      4  C   UNL     1       2.220   7.468  18.900  0.00  0.00    +0.000 A 
ATOM      5  C   UNL     1       2.144   6.879  20.164  0.00  0.00    +0.000 A 
ATOM      6  C   UNL     1       1.580   7.617  21.210  0.00  0.00    +0.000 A 
ENDROOT
BRANCH   1   8
ATOM      7  N   UNL     1      -0.752  10.290  21.880  0.00  0.00    +0.000 N 
ATOM      8  C   UNL     1       0.465   9.655  22.108  0.00  0.00    +0.000 C 
ATOM      9  O   UNL     1       1.056   9.707  23.184  0.00  0.00    +0.000 OA
ATOM     10  H   UNL     1      -1.022  10.492  20.922  0.00  0.00    +0.000 HD
BRANCH   7  11
ATOM     11  C   UNL     1      -1.235  11.136  22.959  0.00  0.00    +0.000 C 
BRANCH  11  12
ATOM     12  C   UNL     1      -2.091  12.348  22.579  0.00  0.00    +0.000 C 
BRANCH  12  18
ATOM     13  C   UNL     1      -1.069  13.256  20.395  0.00  0.00    +0.000 A 
ATOM     14  C   UNL     1      -0.183  14.123  19.742  0.00  0.00    +0.000 A 
ATOM     15  C   UNL     1       0.627  14.993  20.473  0.00  0.00    +0.000 A 
ATOM     16  C   UNL     1       0.519  15.030  21.855  0.00  0.00    +0.000 A 
ATOM     17  C   UNL     1      -0.406  14.220  22.510  0.00  0.00    +0.000 A 
ATOM     18  C   UNL     1      -1.218  13.321  21.794  0.00  0.00    +0.000 A 
BRANCH  13  20
ATOM     19  C   UNL     1      -1.467  12.207  18.328  0.00  0.00    +0.000 C 
ATOM     20  O   UNL     1      -1.806  12.315  19.712  0.00  0.00    +0.000 OA
ENDBRANCH  13  20
ENDBRANCH  12  18
ENDBRANCH  11  12
ENDBRANCH   7  11
ENDBRANCH   1   8
BRANCH   5  21
ATOM     21  N   UNL     1       2.612   5.569  20.433  0.00  0.00    +0.000 N 
ATOM     22  C   UNL     1       1.825   4.431  20.500  0.00  0.00    +0.000 C 
ATOM     23  O   UNL     1       0.603   4.386  20.345  0.00  0.00    +0.000 OA
ATOM     24  H   UNL     1       3.589   5.490  20.713  0.00  0.00    +0.000 HD
BRANCH  22  25
ATOM     25  C   UNL     1       2.568   3.157  20.846  0.00  0.00    +0.000 C 
BRANCH  25  26
ATOM     26  C   UNL     1       3.492   2.685  19.736  0.00  0.00    +0.000 C 
ATOM     27  S   UNL     1       4.869   3.791  19.374  0.00  0.00    +0.000 S 
ATOM     28  C   UNL     1       4.383   3.902  17.690  0.00  0.00    +0.000 C 
ATOM     29  N   UNL     1       5.118   4.680  16.819  0.00  0.00    +0.000 N 
ATOM     30  C   UNL     1       4.731   4.793  15.408  0.00  0.00    +0.000 C 
ATOM     31  C   UNL     1       5.813   4.160  14.530  0.00  0.00    +0.000 C 
ATOM     32  C   UNL     1       7.186   4.762  14.823  0.00  0.00    +0.000 C 
ATOM     33  C   UNL     1       7.502   4.693  16.315  0.00  0.00    +0.000 C 
ATOM     34  C   UNL     1       6.387   5.334  17.137  0.00  0.00    +0.000 C 
ATOM     35  N   UNL     1       3.332   3.219  17.365  0.00  0.00    +0.000 NA
ATOM     36  C   UNL     1       2.764   2.553  18.423  0.00  0.00    +0.000 C 
ATOM     37  O   UNL     1       1.706   1.929  18.343  0.00  0.00    +0.000 OA
ENDBRANCH  25  26
ENDBRANCH  22  25
ENDBRANCH   5  21
TORSDOF 8
ENDMDL
MODEL 6
REMARK VINA RESULT:      -8.5      2.822     11.851
REMARK  Name = 
REMARK  9 active torsions:
REMARK  status: ('A' for Active; 'I' for Inactive)
REMARK    1  A    between atoms: C_1  and  O_2
REMARK    2  A    between atoms: O_2  and  C_3
REMARK    3  A    between atoms: C_8  and  C_9
REMARK    4  A    between atoms: C_9  and  C_10
REMARK    5  A    between atoms: C_10  and  N_11
REMARK    6  A    between atoms: C_12  and  C_14
REMARK    7  A    between atoms: C_18  and  N_19
REMARK    8  A    between atoms: C_20  and  C_22
REMARK    9  A    between atoms: C_22  and  C_23
REMARK                            x       y       z     vdW  Elec       q    Type
REMARK                         _______ _______ _______ _____ _____    ______ ____
ROOT
ATOM      1  C   UNL     1       2.131   7.490  19.295  0.00  0.00    +0.000 A 
ATOM      2  C   UNL     1       2.692   7.828  18.063  0.00  0.00    +0.000 A 
ATOM      3  C   UNL     1       2.454   9.090  17.528  0.00  0.00    +0.000 A 
ATOM      4  C   UNL     1       1.664  10.010  18.221  0.00  0.00    +0.000 A 
ATOM      5  C   UNL     1       1.126   9.704  19.473  0.00  0.00    +0.000 A 
ATOM      6  C   UNL     1       1.361   8.432  20.006  0.00  0.00    +0.000 A 
ENDROOT
BRANCH   1   8
ATOM      7  N   UNL     1       3.466   5.420  19.437  0.00  0.00    +0.000 N 
ATOM      8  C   UNL     1       2.392   6.167  19.911  0.00  0.00    +0.000 C 
ATOM      9  O   UNL     1       1.633   5.763  20.789  0.00  0.00    +0.000 OA
ATOM     10  H   UNL     1       3.842   5.641  18.520  0.00  0.00    +0.000 HD
BRANCH   7  11
ATOM     11  C   UNL     1       3.571   4.065  19.952  0.00  0.00    +0.000 C 
BRANCH  11  12
ATOM     12  C   UNL     1       4.581   3.129  19.282  0.00  0.00    +0.000 C 
BRANCH  12  18
ATOM     13  C   UNL     1       6.257   4.735  18.165  0.00  0.00    +0.000 A 
ATOM     14  C   UNL     1       6.693   5.433  17.031  0.00  0.00    +0.000 A 
ATOM     15  C   UNL     1       6.001   5.328  15.823  0.00  0.00    +0.000 A 
ATOM     16  C   UNL     1       4.900   4.490  15.736  0.00  0.00    +0.000 A 
ATOM     17  C   UNL     1       4.497   3.741  16.840  0.00  0.00    +0.000 A 
ATOM     18  C   UNL     1       5.168   3.848  18.073  0.00  0.00    +0.000 A 
BRANCH  13  20
ATOM     19  C   UNL     1       7.879   5.891  19.416  0.00  0.00    +0.000 C 
ATOM     20  O   UNL     1       6.853   4.897  19.396  0.00  0.00    +0.000 OA
ENDBRANCH  13  20
ENDBRANCH  12  18
ENDBRANCH  11  12
ENDBRANCH   7  11
ENDBRANCH   1   8
BRANCH   5  21
ATOM     21  N   UNL     1       0.354  10.623  20.226  0.00  0.00    +0.000 N 
ATOM     22  C   UNL     1       0.738  11.910  20.562  0.00  0.00    +0.000 C 
ATOM     23  O   UNL     1       1.807  12.447  20.267  0.00  0.00    +0.000 OA
ATOM     24  H   UNL     1      -0.499  10.254  20.647  0.00  0.00    +0.000 HD
BRANCH  22  25
ATOM     25  C   UNL     1      -0.256  12.675  21.412  0.00  0.00    +0.000 C 
BRANCH  25  26
ATOM     26  C   UNL     1      -1.614  11.997  21.497  0.00  0.00    +0.000 C 
ATOM     27  S   UNL     1      -3.009  13.030  21.008  0.00  0.00    +0.000 S 
ATOM     28  C   UNL     1      -3.790  12.770  22.560  0.00  0.00    +0.000 C 
ATOM     29  N   UNL     1      -5.011  13.361  22.815  0.00  0.00    +0.000 N 
ATOM     30  C   UNL     1      -5.683  13.164  24.105  0.00  0.00    +0.000 C 
ATOM     31  C   UNL     1      -6.980  12.382  23.889  0.00  0.00    +0.000 C 
ATOM     32  C   UNL     1      -7.871  13.062  22.850  0.00  0.00    +0.000 C 
ATOM     33  C   UNL     1      -7.098  13.317  21.558  0.00  0.00    +0.000 C 
ATOM     34  C   UNL     1      -5.814  14.095  21.837  0.00  0.00    +0.000 C 
ATOM     35  N   UNL     1      -3.147  12.011  23.389  0.00  0.00    +0.000 NA
ATOM     36  C   UNL     1      -1.939  11.574  22.906  0.00  0.00    +0.000 C 
ATOM     37  O   UNL     1      -1.136  10.925  23.576  0.00  0.00    +0.000 OA
ENDBRANCH  25  26
ENDBRANCH  22  25
ENDBRANCH   5  21
TORSDOF 8
ENDMDL
MODEL 7
REMARK VINA RESULT:      -8.5      6.485      8.369
REMARK  Name = 
REMARK  9 active torsions:
REMARK  status: ('A' for Active; 'I' for Inactive)
REMARK    1  A    between atoms: C_1  and  O_2
REMARK    2  A    between atoms: O_2  and  C_3
REMARK    3  A    between atoms: C_8  and  C_9
REMARK    4  A    between atoms: C_9  and  C_10
REMARK    5  A    between atoms: C_10  and  N_11
REMARK    6  A    between atoms: C_12  and  C_14
REMARK    7  A    between atoms: C_18  and  N_19
REMARK    8  A    between atoms: C_20  and  C_22
REMARK    9  A    between atoms: C_22  and  C_23
REMARK                            x       y       z     vdW  Elec       q    Type
REMARK                         _______ _______ _______ _____ _____    ______ ____
ROOT
ATOM      1  C   UNL     1       9.363  11.970  20.705  0.00  0.00    +0.000 A 
ATOM      2  C   UNL     1       9.757  12.811  19.664  0.00  0.00    +0.000 A 
ATOM      3  C   UNL     1       9.897  12.289  18.382  0.00  0.00    +0.000 A 
ATOM      4  C   UNL     1       9.643  10.936  18.142  0.00  0.00    +0.000 A 
ATOM      5  C   UNL     1       9.212  10.088  19.164  0.00  0.00    +0.000 A 
ATOM      6  C   UNL     1       9.077  10.613  20.453  0.00  0.00    +0.000 A 
ENDROOT
BRANCH   1   8
ATOM      7  N   UNL     1       8.850  11.600  23.090  0.00  0.00    +0.000 N 
ATOM      8  C   UNL     1       9.170  12.499  22.077  0.00  0.00    +0.000 C 
ATOM      9  O   UNL     1       9.261  13.710  22.263  0.00  0.00    +0.000 OA
ATOM     10  H   UNL     1       8.470  10.694  22.831  0.00  0.00    +0.000 HD
BRANCH   7  11
ATOM     11  C   UNL     1       8.502  12.189  24.373  0.00  0.00    +0.000 C 
BRANCH  11  12
ATOM     12  C   UNL     1       7.021  12.466  24.646  0.00  0.00    +0.000 C 
BRANCH  12  18
ATOM     13  C   UNL     1       5.774  14.713  24.456  0.00  0.00    +0.000 A 
ATOM     14  C   UNL     1       5.730  16.095  24.681  0.00  0.00    +0.000 A 
ATOM     15  C   UNL     1       6.797  16.749  25.298  0.00  0.00    +0.000 A 
ATOM     16  C   UNL     1       7.891  16.015  25.731  0.00  0.00    +0.000 A 
ATOM     17  C   UNL     1       7.916  14.630  25.572  0.00  0.00    +0.000 A 
ATOM     18  C   UNL     1       6.859  13.954  24.935  0.00  0.00    +0.000 A 
BRANCH  13  20
ATOM     19  C   UNL     1       4.637  14.498  22.408  0.00  0.00    +0.000 C 
ATOM     20  O   UNL     1       4.786  14.055  23.759  0.00  0.00    +0.000 OA
ENDBRANCH  13  20
ENDBRANCH  12  18
ENDBRANCH  11  12
ENDBRANCH   7  11
ENDBRANCH   1   8
BRANCH   5  21
ATOM     21  N   UNL     1       8.905   8.721  18.953  0.00  0.00    +0.000 N 
ATOM     22  C   UNL     1       7.997   8.234  18.028  0.00  0.00    +0.000 C 
ATOM     23  O   UNL     1       7.314   8.912  17.257  0.00  0.00    +0.000 OA
ATOM     24  H   UNL     1       9.304   8.062  19.621  0.00  0.00    +0.000 HD
BRANCH  22  25
ATOM     25  C   UNL     1       7.821   6.729  18.032  0.00  0.00    +0.000 C 
BRANCH  25  26
ATOM     26  C   UNL     1       6.496   6.282  17.438  0.00  0.00    +0.000 C 
ATOM     27  S   UNL     1       5.161   6.078  18.632  0.00  0.00    +0.000 S 
ATOM     28  C   UNL     1       4.917   4.413  18.127  0.00  0.00    +0.000 C 
ATOM     29  N   UNL     1       3.936   3.654  18.733  0.00  0.00    +0.000 N 
ATOM     30  C   UNL     1       3.714   2.259  18.334  0.00  0.00    +0.000 C 
ATOM     31  C   UNL     1       2.332   2.127  17.692  0.00  0.00    +0.000 C 
ATOM     32  C   UNL     1       1.239   2.664  18.615  0.00  0.00    +0.000 C 
ATOM     33  C   UNL     1       1.561   4.087  19.066  0.00  0.00    +0.000 C 
ATOM     34  C   UNL     1       2.952   4.157  19.692  0.00  0.00    +0.000 C 
ATOM     35  N   UNL     1       5.698   3.995  17.183  0.00  0.00    +0.000 NA
ATOM     36  C   UNL     1       6.610   4.935  16.772  0.00  0.00    +0.000 C 
ATOM     37  O   UNL     1       7.502   4.703  15.955  0.00  0.00    +0.000 OA
ENDBRANCH  25  26
ENDBRANCH  22  25
ENDBRANCH   5  21
TORSDOF 8
ENDMDL
MODEL 8
REMARK VINA RESULT:      -8.3      1.864      2.845
REMARK  Name = 
REMARK  9 active torsions:
REMARK  status: ('A' for Active; 'I' for Inactive)
REMARK    1  A    between atoms: C_1  and  O_2
REMARK    2  A    between atoms: O_2  and  C_3
REMARK    3  A    between atoms: C_8  and  C_9
REMARK    4  A    between atoms: C_9  and  C_10
REMARK    5  A    between atoms: C_10  and  N_11
REMARK    6  A    between atoms: C_12  and  C_14
REMARK    7  A    between atoms: C_18  and  N_19
REMARK    8  A    between atoms: C_20  and  C_22
REMARK    9  A    between atoms: C_22  and  C_23
REMARK                            x       y       z     vdW  Elec       q    Type
REMARK                         _______ _______ _______ _____ _____    ______ ____
ROOT
ATOM      1  C   UNL     1       0.809   9.134  20.773  0.00  0.00    +0.000 A 
ATOM      2  C   UNL     1       0.977   9.641  19.484  0.00  0.00    +0.000 A 
ATOM      3  C   UNL     1       1.683   8.897  18.545  0.00  0.00    +0.000 A 
ATOM      4  C   UNL     1       2.215   7.652  18.891  0.00  0.00    +0.000 A 
ATOM      5  C   UNL     1       2.024   7.111  20.164  0.00  0.00    +0.000 A 
ATOM      6  C   UNL     1       1.320   7.865  21.109  0.00  0.00    +0.000 A 
ENDROOT
BRANCH   1   8
ATOM      7  N   UNL     1      -0.650  11.028  21.385  0.00  0.00    +0.000 N 
ATOM      8  C   UNL     1       0.033   9.885  21.790  0.00  0.00    +0.000 C 
ATOM      9  O   UNL     1       0.049   9.494  22.955  0.00  0.00    +0.000 OA
ATOM     10  H   UNL     1      -0.369  11.479  20.519  0.00  0.00    +0.000 HD
BRANCH   7  11
ATOM     11  C   UNL     1      -1.248  11.818  22.449  0.00  0.00    +0.000 C 
BRANCH  11  12
ATOM     12  C   UNL     1      -0.725  13.243  22.653  0.00  0.00    +0.000 C 
BRANCH  12  18
ATOM     13  C   UNL     1      -0.895  14.318  20.317  0.00  0.00    +0.000 A 
ATOM     14  C   UNL     1      -0.300  14.658  19.095  0.00  0.00    +0.000 A 
ATOM     15  C   UNL     1       1.033  14.331  18.839  0.00  0.00    +0.000 A 
ATOM     16  C   UNL     1       1.785  13.704  19.822  0.00  0.00    +0.000 A 
ATOM     17  C   UNL     1       1.221  13.421  21.064  0.00  0.00    +0.000 A 
ATOM     18  C   UNL     1      -0.126  13.724  21.336  0.00  0.00    +0.000 A 
BRANCH  13  20
ATOM     19  C   UNL     1      -2.563  15.901  20.810  0.00  0.00    +0.000 C 
ATOM     20  O   UNL     1      -2.233  14.532  20.563  0.00  0.00    +0.000 OA
ENDBRANCH  13  20
ENDBRANCH  12  18
ENDBRANCH  11  12
ENDBRANCH   7  11
ENDBRANCH   1   8
BRANCH   5  21
ATOM     21  N   UNL     1       2.512   5.836  20.540  0.00  0.00    +0.000 N 
ATOM     22  C   UNL     1       1.760   4.675  20.611  0.00  0.00    +0.000 C 
ATOM     23  O   UNL     1       0.555   4.577  20.367  0.00  0.00    +0.000 OA
ATOM     24  H   UNL     1       3.467   5.807  20.897  0.00  0.00    +0.000 HD
BRANCH  22  25
ATOM     25  C   UNL     1       2.514   3.449  21.083  0.00  0.00    +0.000 C 
BRANCH  25  26
ATOM     26  C   UNL     1       3.494   2.918  20.050  0.00  0.00    +0.000 C 
ATOM     27  S   UNL     1       4.807   4.065  19.590  0.00  0.00    +0.000 S 
ATOM     28  C   UNL     1       4.357   3.955  17.895  0.00  0.00    +0.000 C 
ATOM     29  N   UNL     1       5.062   4.677  16.955  0.00  0.00    +0.000 N 
ATOM     30  C   UNL     1       4.705   4.607  15.533  0.00  0.00    +0.000 C 
ATOM     31  C   UNL     1       5.846   3.952  14.752  0.00  0.00    +0.000 C 
ATOM     32  C   UNL     1       7.171   4.673  14.999  0.00  0.00    +0.000 C 
ATOM     33  C   UNL     1       7.453   4.792  16.495  0.00  0.00    +0.000 C 
ATOM     34  C   UNL     1       6.279   5.446  17.219  0.00  0.00    +0.000 C 
ATOM     35  N   UNL     1       3.360   3.172  17.631  0.00  0.00    +0.000 NA
ATOM     36  C   UNL     1       2.809   2.593  18.748  0.00  0.00    +0.000 C 
ATOM     37  O   UNL     1       1.796   1.895  18.719  0.00  0.00    +0.000 OA
ENDBRANCH  25  26
ENDBRANCH  22  25
ENDBRANCH   5  21
TORSDOF 8
ENDMDL
MODEL 9
REMARK VINA RESULT:      -8.3      1.659      2.138
REMARK  Name = 
REMARK  9 active torsions:
REMARK  status: ('A' for Active; 'I' for Inactive)
REMARK    1  A    between atoms: C_1  and  O_2
REMARK    2  A    between atoms: O_2  and  C_3
REMARK    3  A    between atoms: C_8  and  C_9
REMARK    4  A    between atoms: C_9  and  C_10
REMARK    5  A    between atoms: C_10  and  N_11
REMARK    6  A    between atoms: C_12  and  C_14
REMARK    7  A    between atoms: C_18  and  N_19
REMARK    8  A    between atoms: C_20  and  C_22
REMARK    9  A    between atoms: C_22  and  C_23
REMARK                            x       y       z     vdW  Elec       q    Type
REMARK                         _______ _______ _______ _____ _____    ______ ____
ROOT
ATOM      1  C   UNL     1       0.801   9.267  19.948  0.00  0.00    +0.000 A 
ATOM      2  C   UNL     1       1.016   9.732  18.651  0.00  0.00    +0.000 A 
ATOM      3  C   UNL     1       1.841   9.009  17.795  0.00  0.00    +0.000 A 
ATOM      4  C   UNL     1       2.445   7.828  18.232  0.00  0.00    +0.000 A 
ATOM      5  C   UNL     1       2.211   7.326  19.514  0.00  0.00    +0.000 A 
ATOM      6  C   UNL     1       1.386   8.058  20.375  0.00  0.00    +0.000 A 
ENDROOT
BRANCH   1   8
ATOM      7  N   UNL     1      -0.725  11.148  20.417  0.00  0.00    +0.000 N 
ATOM      8  C   UNL     1      -0.100   9.993  20.876  0.00  0.00    +0.000 C 
ATOM      9  O   UNL     1      -0.233   9.571  22.022  0.00  0.00    +0.000 OA
ATOM     10  H   UNL     1      -0.336  11.620  19.606  0.00  0.00    +0.000 HD
BRANCH   7  11
ATOM     11  C   UNL     1      -1.456  11.911  21.415  0.00  0.00    +0.000 C 
BRANCH  11  12
ATOM     12  C   UNL     1      -0.640  12.634  22.490  0.00  0.00    +0.000 C 
BRANCH  12  18
ATOM     13  C   UNL     1      -1.199  14.787  23.791  0.00  0.00    +0.000 A 
ATOM     14  C   UNL     1      -2.086  15.524  24.588  0.00  0.00    +0.000 A 
ATOM     15  C   UNL     1      -3.318  14.987  24.963  0.00  0.00    +0.000 A 
ATOM     16  C   UNL     1      -3.685  13.731  24.504  0.00  0.00    +0.000 A 
ATOM     17  C   UNL     1      -2.839  13.017  23.657  0.00  0.00    +0.000 A 
ATOM     18  C   UNL     1      -1.584  13.532  23.283  0.00  0.00    +0.000 A 
BRANCH  13  20
ATOM     19  C   UNL     1       0.220  16.657  23.641  0.00  0.00    +0.000 C 
ATOM     20  O   UNL     1       0.064  15.244  23.489  0.00  0.00    +0.000 OA
ENDBRANCH  13  20
ENDBRANCH  12  18
ENDBRANCH  11  12
ENDBRANCH   7  11
ENDBRANCH   1   8
BRANCH   5  21
ATOM     21  N   UNL     1       2.771   6.112  19.981  0.00  0.00    +0.000 N 
ATOM     22  C   UNL     1       2.068   4.945  20.230  0.00  0.00    +0.000 C 
ATOM     23  O   UNL     1       0.853   4.788  20.094  0.00  0.00    +0.000 OA
ATOM     24  H   UNL     1       3.751   6.147  20.262  0.00  0.00    +0.000 HD
BRANCH  22  25
ATOM     25  C   UNL     1       2.899   3.797  20.765  0.00  0.00    +0.000 C 
BRANCH  25  26
ATOM     26  C   UNL     1       3.887   3.251  19.748  0.00  0.00    +0.000 C 
ATOM     27  S   UNL     1       5.070   4.458  19.117  0.00  0.00    +0.000 S 
ATOM     28  C   UNL     1       4.573   4.133  17.464  0.00  0.00    +0.000 C 
ATOM     29  N   UNL     1       5.174   4.815  16.426  0.00  0.00    +0.000 N 
ATOM     30  C   UNL     1       4.775   4.566  15.035  0.00  0.00    +0.000 C 
ATOM     31  C   UNL     1       5.944   3.939  14.274  0.00  0.00    +0.000 C 
ATOM     32  C   UNL     1       7.203   4.797  14.388  0.00  0.00    +0.000 C 
ATOM     33  C   UNL     1       7.526   5.094  15.850  0.00  0.00    +0.000 C 
ATOM     34  C   UNL     1       6.322   5.712  16.558  0.00  0.00    +0.000 C 
ATOM     35  N   UNL     1       3.645   3.241  17.324  0.00  0.00    +0.000 NA
ATOM     36  C   UNL     1       3.191   2.734  18.516  0.00  0.00    +0.000 C 
ATOM     37  O   UNL     1       2.246   1.949  18.603  0.00  0.00    +0.000 OA
ENDBRANCH  25  26
ENDBRANCH  22  25
ENDBRANCH   5  21
TORSDOF 8
ENDMDL
