MODEL 1
REMARK VINA RESULT:      -6.2      0.000      0.000
REMARK  Name = 
REMARK  6 active torsions:
REMARK  status: ('A' for Active; 'I' for Inactive)
REMARK    1  A    between atoms: C_1  and  C_2
REMARK    2  A    between atoms: C_2  and  C_3
REMARK    3  A    between atoms: C_4  and  O_5
REMARK    4  A    between atoms: C_8  and  C_9
REMARK    5  A    between atoms: C_9  and  C_10
REMARK    6  A    between atoms: N_14  and  C_15
REMARK                            x       y       z     vdW  Elec       q    Type
REMARK                         _______ _______ _______ _____ _____    ______ ____
ROOT
ATOM      1  C   UNL     1       5.614   5.780  17.091  0.00  0.00    +0.000 C 
ATOM      2  C   UNL     1       6.407   4.509  17.406  0.00  0.00    +0.000 C 
ATOM      3  O   UNL     1       6.218   4.258  18.804  0.00  0.00    +0.000 OA
ATOM      4  C   UNL     1       5.157   5.107  19.272  0.00  0.00    +0.000 C 
ATOM      5  C   UNL     1       4.418   5.619  18.037  0.00  0.00    +0.000 C 
ENDROOT
BRANCH   1   7
ATOM      6  C   UNL     1       5.593   4.676  14.803  0.00  0.00    +0.000 C 
ATOM      7  C   UNL     1       5.350   5.954  15.595  0.00  0.00    +0.000 C 
ENDBRANCH   1   7
BRANCH   2   8
ATOM      8  O   UNL     1       7.778   4.635  17.103  0.00  0.00    +0.000 OA
ATOM      9  H   UNL     1       7.843   4.664  16.136  0.00  0.00    +0.000 HD
ENDBRANCH   2   8
BRANCH   5  10
ATOM     10  C   UNL     1       3.350   4.620  17.549  0.00  0.00    +0.000 C 
BRANCH  10  11
ATOM     11  C   UNL     1       2.582   3.977  18.662  0.00  0.00    +0.000 A 
ATOM     12  C   UNL     1       1.649   4.523  19.526  0.00  0.00    +0.000 A 
ATOM     13  N   UNL     1       1.112   3.566  20.345  0.00  0.00    +0.000 NA
ATOM     14  C   UNL     1       1.703   2.445  20.000  0.00  0.00    +0.000 A 
ATOM     15  N   UNL     1       2.635   2.650  19.018  0.00  0.00    +0.000 N 
ATOM     16  C   UNL     1       3.498   1.611  18.507  0.00  0.00    +0.000 C 
ENDBRANCH  10  11
ENDBRANCH   5  10
TORSDOF 4
ENDMDL
MODEL 2
REMARK VINA RESULT:      -6.2      1.496      2.072
REMARK  Name = 
REMARK  6 active torsions:
REMARK  status: ('A' for Active; 'I' for Inactive)
REMARK    1  A    between atoms: C_1  and  C_2
REMARK    2  A    between atoms: C_2  and  C_3
REMARK    3  A    between atoms: C_4  and  O_5
REMARK    4  A    between atoms: C_8  and  C_9
REMARK    5  A    between atoms: C_9  and  C_10
REMARK    6  A    between atoms: N_14  and  C_15
REMARK                            x       y       z     vdW  Elec       q    Type
REMARK                         _______ _______ _______ _____ _____    ______ ____
ROOT
ATOM      1  C   UNL     1       5.490   5.158  15.914  0.00  0.00    +0.000 C 
ATOM      2  C   UNL     1       6.613   5.752  16.766  0.00  0.00    +0.000 C 
ATOM      3  O   UNL     1       6.000   6.744  17.599  0.00  0.00    +0.000 OA
ATOM      4  C   UNL     1       4.574   6.583  17.511  0.00  0.00    +0.000 C 
ATOM      5  C   UNL     1       4.317   5.206  16.902  0.00  0.00    +0.000 C 
ENDROOT
BRANCH   1   7
ATOM      6  C   UNL     1       6.148   3.921  13.794  0.00  0.00    +0.000 C 
ATOM      7  C   UNL     1       5.870   3.815  15.289  0.00  0.00    +0.000 C 
ENDBRANCH   1   7
BRANCH   2   8
ATOM      8  O   UNL     1       7.642   6.321  15.988  0.00  0.00    +0.000 OA
ATOM      9  H   UNL     1       7.209   6.751  15.235  0.00  0.00    +0.000 HD
ENDBRANCH   2   8
BRANCH   5  10
ATOM     10  C   UNL     1       4.338   4.091  17.967  0.00  0.00    +0.000 C 
BRANCH  10  11
ATOM     11  C   UNL     1       2.976   3.576  18.316  0.00  0.00    +0.000 A 
ATOM     12  C   UNL     1       2.253   2.535  17.759  0.00  0.00    +0.000 A 
ATOM     13  N   UNL     1       1.079   2.330  18.435  0.00  0.00    +0.000 NA
ATOM     14  C   UNL     1       1.071   3.229  19.393  0.00  0.00    +0.000 A 
ATOM     15  N   UNL     1       2.174   4.036  19.334  0.00  0.00    +0.000 N 
ATOM     16  C   UNL     1       2.385   5.167  20.209  0.00  0.00    +0.000 C 
ENDBRANCH  10  11
ENDBRANCH   5  10
TORSDOF 4
ENDMDL
MODEL 3
REMARK VINA RESULT:      -6.1      1.776      2.305
REMARK  Name = 
REMARK  6 active torsions:
REMARK  status: ('A' for Active; 'I' for Inactive)
REMARK    1  A    between atoms: C_1  and  C_2
REMARK    2  A    between atoms: C_2  and  C_3
REMARK    3  A    between atoms: C_4  and  O_5
REMARK    4  A    between atoms: C_8  and  C_9
REMARK    5  A    between atoms: C_9  and  C_10
REMARK    6  A    between atoms: N_14  and  C_15
REMARK                            x       y       z     vdW  Elec       q    Type
REMARK                         _______ _______ _______ _____ _____    ______ ____
ROOT
ATOM      1  C   UNL     1       5.747   4.868  14.895  0.00  0.00    +0.000 C 
ATOM      2  C   UNL     1       7.138   5.229  15.419  0.00  0.00    +0.000 C 
ATOM      3  O   UNL     1       6.945   6.280  16.374  0.00  0.00    +0.000 OA
ATOM      4  C   UNL     1       5.540   6.369  16.662  0.00  0.00    +0.000 C 
ATOM      5  C   UNL     1       4.897   5.080  16.154  0.00  0.00    +0.000 C 
ENDROOT
BRANCH   1   7
ATOM      6  C   UNL     1       5.952   3.599  12.704  0.00  0.00    +0.000 C 
ATOM      7  C   UNL     1       5.712   3.504  14.205  0.00  0.00    +0.000 C 
ENDBRANCH   1   7
BRANCH   2   8
ATOM      8  O   UNL     1       8.014   5.641  14.394  0.00  0.00    +0.000 OA
ATOM      9  H   UNL     1       8.881   5.261  14.605  0.00  0.00    +0.000 HD
ENDBRANCH   2   8
BRANCH   5  10
ATOM     10  C   UNL     1       4.997   3.940  17.188  0.00  0.00    +0.000 C 
BRANCH  10  11
ATOM     11  C   UNL     1       3.669   3.507  17.728  0.00  0.00    +0.000 A 
ATOM     12  C   UNL     1       2.401   3.670  17.198  0.00  0.00    +0.000 A 
ATOM     13  N   UNL     1       1.458   3.043  17.967  0.00  0.00    +0.000 NA
ATOM     14  C   UNL     1       2.127   2.501  18.960  0.00  0.00    +0.000 A 
ATOM     15  N   UNL     1       3.461   2.794  18.886  0.00  0.00    +0.000 N 
ATOM     16  C   UNL     1       4.422   2.405  19.892  0.00  0.00    +0.000 C 
ENDBRANCH  10  11
ENDBRANCH   5  10
TORSDOF 4
ENDMDL
MODEL 4
REMARK VINA RESULT:      -6.1      0.972      1.129
REMARK  Name = 
REMARK  6 active torsions:
REMARK  status: ('A' for Active; 'I' for Inactive)
REMARK    1  A    between atoms: C_1  and  C_2
REMARK    2  A    between atoms: C_2  and  C_3
REMARK    3  A    between atoms: C_4  and  O_5
REMARK    4  A    between atoms: C_8  and  C_9
REMARK    5  A    between atoms: C_9  and  C_10
REMARK    6  A    between atoms: N_14  and  C_15
REMARK                            x       y       z     vdW  Elec       q    Type
REMARK                         _______ _______ _______ _____ _____    ______ ____
ROOT
ATOM      1  C   UNL     1       5.598   4.906  16.447  0.00  0.00    +0.000 C 
ATOM      2  C   UNL     1       6.492   4.534  17.631  0.00  0.00    +0.000 C 
ATOM      3  O   UNL     1       5.892   5.129  18.787  0.00  0.00    +0.000 OA
ATOM      4  C   UNL     1       4.574   5.577  18.427  0.00  0.00    +0.000 C 
ATOM      5  C   UNL     1       4.215   4.891  17.110  0.00  0.00    +0.000 C 
ENDROOT
BRANCH   1   7
ATOM      6  C   UNL     1       6.735   4.676  14.186  0.00  0.00    +0.000 C 
ATOM      7  C   UNL     1       5.836   4.017  15.225  0.00  0.00    +0.000 C 
ENDBRANCH   1   7
BRANCH   2   8
ATOM      8  O   UNL     1       7.819   4.982  17.470  0.00  0.00    +0.000 OA
ATOM      9  H   UNL     1       8.390   4.223  17.663  0.00  0.00    +0.000 HD
ENDBRANCH   2   8
BRANCH   5  10
ATOM     10  C   UNL     1       3.632   3.481  17.335  0.00  0.00    +0.000 C 
BRANCH  10  11
ATOM     11  C   UNL     1       2.728   3.393  18.526  0.00  0.00    +0.000 A 
ATOM     12  C   UNL     1       1.420   3.819  18.679  0.00  0.00    +0.000 A 
ATOM     13  N   UNL     1       0.924   3.464  19.904  0.00  0.00    +0.000 NA
ATOM     14  C   UNL     1       1.906   2.831  20.505  0.00  0.00    +0.000 A 
ATOM     15  N   UNL     1       3.033   2.804  19.730  0.00  0.00    +0.000 N 
ATOM     16  C   UNL     1       4.293   2.251  20.172  0.00  0.00    +0.000 C 
ENDBRANCH  10  11
ENDBRANCH   5  10
TORSDOF 4
ENDMDL
MODEL 5
REMARK VINA RESULT:      -6.1      1.683      2.612
REMARK  Name = 
REMARK  6 active torsions:
REMARK  status: ('A' for Active; 'I' for Inactive)
REMARK    1  A    between atoms: C_1  and  C_2
REMARK    2  A    between atoms: C_2  and  C_3
REMARK    3  A    between atoms: C_4  and  O_5
REMARK    4  A    between atoms: C_8  and  C_9
REMARK    5  A    between atoms: C_9  and  C_10
REMARK    6  A    between atoms: N_14  and  C_15
REMARK                            x       y       z     vdW  Elec       q    Type
REMARK                         _______ _______ _______ _____ _____    ______ ____
ROOT
ATOM      1  C   UNL     1       5.769   4.983  14.741  0.00  0.00    +0.000 C 
ATOM      2  C   UNL     1       7.199   5.136  15.262  0.00  0.00    +0.000 C 
ATOM      3  O   UNL     1       7.160   6.189  16.233  0.00  0.00    +0.000 OA
ATOM      4  C   UNL     1       5.782   6.471  16.530  0.00  0.00    +0.000 C 
ATOM      5  C   UNL     1       4.962   5.293  16.008  0.00  0.00    +0.000 C 
ENDROOT
BRANCH   1   7
ATOM      6  C   UNL     1       6.037   3.655  12.591  0.00  0.00    +0.000 C 
ATOM      7  C   UNL     1       5.539   3.648  14.031  0.00  0.00    +0.000 C 
ENDBRANCH   1   7
BRANCH   2   8
ATOM      8  O   UNL     1       8.121   5.436  14.239  0.00  0.00    +0.000 OA
ATOM      9  H   UNL     1       8.794   4.738  14.263  0.00  0.00    +0.000 HD
ENDBRANCH   2   8
BRANCH   5  10
ATOM     10  C   UNL     1       4.904   4.135  17.024  0.00  0.00    +0.000 C 
BRANCH  10  11
ATOM     11  C   UNL     1       3.543   3.927  17.614  0.00  0.00    +0.000 A 
ATOM     12  C   UNL     1       2.510   3.108  17.192  0.00  0.00    +0.000 A 
ATOM     13  N   UNL     1       1.460   3.144  18.070  0.00  0.00    +0.000 NA
ATOM     14  C   UNL     1       1.831   3.973  19.019  0.00  0.00    +0.000 A 
ATOM     15  N   UNL     1       3.064   4.509  18.764  0.00  0.00    +0.000 N 
ATOM     16  C   UNL     1       3.683   5.518  19.592  0.00  0.00    +0.000 C 
ENDBRANCH  10  11
ENDBRANCH   5  10
TORSDOF 4
ENDMDL
MODEL 6
REMARK VINA RESULT:      -6.0      3.199      5.471
REMARK  Name = 
REMARK  6 active torsions:
REMARK  status: ('A' for Active; 'I' for Inactive)
REMARK    1  A    between atoms: C_1  and  C_2
REMARK    2  A    between atoms: C_2  and  C_3
REMARK    3  A    between atoms: C_4  and  O_5
REMARK    4  A    between atoms: C_8  and  C_9
REMARK    5  A    between atoms: C_9  and  C_10
REMARK    6  A    between atoms: N_14  and  C_15
REMARK                            x       y       z     vdW  Elec       q    Type
REMARK                         _______ _______ _______ _____ _____    ______ ____
ROOT
ATOM      1  C   UNL     1       2.043   3.646  19.760  0.00  0.00    +0.000 C 
ATOM      2  C   UNL     1       1.273   2.906  18.665  0.00  0.00    +0.000 C 
ATOM      3  O   UNL     1       1.198   3.806  17.552  0.00  0.00    +0.000 OA
ATOM      4  C   UNL     1       2.101   4.897  17.798  0.00  0.00    +0.000 C 
ATOM      5  C   UNL     1       3.039   4.456  18.920  0.00  0.00    +0.000 C 
ENDROOT
BRANCH   1   7
ATOM      6  C   UNL     1       1.629   2.549  22.014  0.00  0.00    +0.000 C 
ATOM      7  C   UNL     1       2.585   2.706  20.838  0.00  0.00    +0.000 C 
ENDBRANCH   1   7
BRANCH   2   8
ATOM      8  O   UNL     1      -0.017   2.516  19.078  0.00  0.00    +0.000 OA
ATOM      9  H   UNL     1      -0.430   3.303  19.467  0.00  0.00    +0.000 HD
ENDBRANCH   2   8
BRANCH   5  10
ATOM     10  C   UNL     1       4.233   3.638  18.385  0.00  0.00    +0.000 C 
BRANCH  10  11
ATOM     11  C   UNL     1       5.492   4.438  18.258  0.00  0.00    +0.000 A 
ATOM     12  C   UNL     1       6.149   5.213  19.197  0.00  0.00    +0.000 A 
ATOM     13  N   UNL     1       7.325   5.706  18.698  0.00  0.00    +0.000 NA
ATOM     14  C   UNL     1       7.398   5.249  17.469  0.00  0.00    +0.000 A 
ATOM     15  N   UNL     1       6.290   4.516  17.140  0.00  0.00    +0.000 N 
ATOM     16  C   UNL     1       6.058   3.965  15.825  0.00  0.00    +0.000 C 
ENDBRANCH  10  11
ENDBRANCH   5  10
TORSDOF 4
ENDMDL
MODEL 7
REMARK VINA RESULT:      -6.0      1.377      1.747
REMARK  Name = 
REMARK  6 active torsions:
REMARK  status: ('A' for Active; 'I' for Inactive)
REMARK    1  A    between atoms: C_1  and  C_2
REMARK    2  A    between atoms: C_2  and  C_3
REMARK    3  A    between atoms: C_4  and  O_5
REMARK    4  A    between atoms: C_8  and  C_9
REMARK    5  A    between atoms: C_9  and  C_10
REMARK    6  A    between atoms: N_14  and  C_15
REMARK                            x       y       z     vdW  Elec       q    Type
REMARK                         _______ _______ _______ _____ _____    ______ ____
ROOT
ATOM      1  C   UNL     1       5.225   4.757  17.099  0.00  0.00    +0.000 C 
ATOM      2  C   UNL     1       6.313   4.805  18.174  0.00  0.00    +0.000 C 
ATOM      3  O   UNL     1       5.690   5.339  19.349  0.00  0.00    +0.000 OA
ATOM      4  C   UNL     1       4.268   5.341  19.139  0.00  0.00    +0.000 C 
ATOM      5  C   UNL     1       3.991   4.425  17.948  0.00  0.00    +0.000 C 
ENDROOT
BRANCH   1   7
ATOM      6  C   UNL     1       5.631   4.563  14.599  0.00  0.00    +0.000 C 
ATOM      7  C   UNL     1       5.586   3.833  15.935  0.00  0.00    +0.000 C 
ENDBRANCH   1   7
BRANCH   2   8
ATOM      8  O   UNL     1       7.418   5.594  17.793  0.00  0.00    +0.000 OA
ATOM      9  H   UNL     1       8.186   5.236  18.265  0.00  0.00    +0.000 HD
ENDBRANCH   2   8
BRANCH   5  10
ATOM     10  C   UNL     1       3.888   2.945  18.370  0.00  0.00    +0.000 C 
BRANCH  10  11
ATOM     11  C   UNL     1       3.156   2.744  19.660  0.00  0.00    +0.000 A 
ATOM     12  C   UNL     1       3.648   2.614  20.947  0.00  0.00    +0.000 A 
ATOM     13  N   UNL     1       2.631   2.537  21.861  0.00  0.00    +0.000 NA
ATOM     14  C   UNL     1       1.526   2.614  21.155  0.00  0.00    +0.000 A 
ATOM     15  N   UNL     1       1.790   2.692  19.815  0.00  0.00    +0.000 N 
ATOM     16  C   UNL     1       0.765   2.698  18.797  0.00  0.00    +0.000 C 
ENDBRANCH  10  11
ENDBRANCH   5  10
TORSDOF 4
ENDMDL
MODEL 8
REMARK VINA RESULT:      -5.9      3.176      5.034
REMARK  Name = 
REMARK  6 active torsions:
REMARK  status: ('A' for Active; 'I' for Inactive)
REMARK    1  A    between atoms: C_1  and  C_2
REMARK    2  A    between atoms: C_2  and  C_3
REMARK    3  A    between atoms: C_4  and  O_5
REMARK    4  A    between atoms: C_8  and  C_9
REMARK    5  A    between atoms: C_9  and  C_10
REMARK    6  A    between atoms: N_14  and  C_15
REMARK                            x       y       z     vdW  Elec       q    Type
REMARK                         _______ _______ _______ _____ _____    ______ ____
ROOT
ATOM      1  C   UNL     1       2.371   2.831  19.456  0.00  0.00    +0.000 C 
ATOM      2  C   UNL     1       1.026   3.556  19.375  0.00  0.00    +0.000 C 
ATOM      3  O   UNL     1       1.025   4.516  20.439  0.00  0.00    +0.000 OA
ATOM      4  C   UNL     1       2.363   4.610  20.957  0.00  0.00    +0.000 C 
ATOM      5  C   UNL     1       3.288   3.968  19.924  0.00  0.00    +0.000 C 
ENDROOT
BRANCH   1   7
ATOM      6  C   UNL     1       3.923   1.168  18.323  0.00  0.00    +0.000 C 
ATOM      7  C   UNL     1       2.720   2.090  18.164  0.00  0.00    +0.000 C 
ENDBRANCH   1   7
BRANCH   2   8
ATOM      8  O   UNL     1      -0.071   2.679  19.493  0.00  0.00    +0.000 OA
ATOM      9  H   UNL     1      -0.759   3.019  18.900  0.00  0.00    +0.000 HD
ENDBRANCH   2   8
BRANCH   5  10
ATOM     10  C   UNL     1       3.689   4.961  18.814  0.00  0.00    +0.000 C 
BRANCH  10  11
ATOM     11  C   UNL     1       5.154   4.948  18.505  0.00  0.00    +0.000 A 
ATOM     12  C   UNL     1       6.231   5.285  19.305  0.00  0.00    +0.000 A 
ATOM     13  N   UNL     1       7.418   5.045  18.666  0.00  0.00    +0.000 NA
ATOM     14  C   UNL     1       7.085   4.570  17.487  0.00  0.00    +0.000 A 
ATOM     15  N   UNL     1       5.727   4.537  17.324  0.00  0.00    +0.000 N 
ATOM     16  C   UNL     1       5.079   4.144  16.094  0.00  0.00    +0.000 C 
ENDBRANCH  10  11
ENDBRANCH   5  10
TORSDOF 4
ENDMDL
MODEL 9
REMARK VINA RESULT:      -5.9      1.174      1.301
REMARK  Name = 
REMARK  6 active torsions:
REMARK  status: ('A' for Active; 'I' for Inactive)
REMARK    1  A    between atoms: C_1  and  C_2
REMARK    2  A    between atoms: C_2  and  C_3
REMARK    3  A    between atoms: C_4  and  O_5
REMARK    4  A    between atoms: C_8  and  C_9
REMARK    5  A    between atoms: C_9  and  C_10
REMARK    6  A    between atoms: N_14  and  C_15
REMARK                            x       y       z     vdW  Elec       q    Type
REMARK                         _______ _______ _______ _____ _____    ______ ____
ROOT
ATOM      1  C   UNL     1       5.705   4.957  17.251  0.00  0.00    +0.000 C 
ATOM      2  C   UNL     1       7.070   4.300  17.466  0.00  0.00    +0.000 C 
ATOM      3  O   UNL     1       7.582   4.833  18.693  0.00  0.00    +0.000 OA
ATOM      4  C   UNL     1       6.514   5.529  19.358  0.00  0.00    +0.000 C 
ATOM      5  C   UNL     1       5.211   5.081  18.698  0.00  0.00    +0.000 C 
ENDROOT
BRANCH   1   7
ATOM      6  C   UNL     1       5.296   4.415  14.803  0.00  0.00    +0.000 C 
ATOM      7  C   UNL     1       4.840   4.202  16.241  0.00  0.00    +0.000 C 
ENDBRANCH   1   7
BRANCH   2   8
ATOM      8  O   UNL     1       7.964   4.546  16.404  0.00  0.00    +0.000 OA
ATOM      9  H   UNL     1       8.843   4.641  16.802  0.00  0.00    +0.000 HD
ENDBRANCH   2   8
BRANCH   5  10
ATOM     10  C   UNL     1       4.680   3.766  19.304  0.00  0.00    +0.000 C 
BRANCH  10  11
ATOM     11  C   UNL     1       3.227   3.818  19.661  0.00  0.00    +0.000 A 
ATOM     12  C   UNL     1       2.581   4.554  20.639  0.00  0.00    +0.000 A 
ATOM     13  N   UNL     1       1.224   4.381  20.573  0.00  0.00    +0.000 NA
ATOM     14  C   UNL     1       1.029   3.550  19.574  0.00  0.00    +0.000 A 
ATOM     15  N   UNL     1       2.213   3.144  19.021  0.00  0.00    +0.000 N 
ATOM     16  C   UNL     1       2.307   2.163  17.965  0.00  0.00    +0.000 C 
ENDBRANCH  10  11
ENDBRANCH   5  10
TORSDOF 4
ENDMDL
