MODEL 1
REMARK VINA RESULT:      -7.5      0.000      0.000
REMARK  Name = 
REMARK  5 active torsions:
REMARK  status: ('A' for Active; 'I' for Inactive)
REMARK    1  A    between atoms: C_3  and  C_4
REMARK    2  A    between atoms: C_3  and  C_5
REMARK    3  A    between atoms: C_5  and  O_6
REMARK    4  A    between atoms: C_5  and  C_7
REMARK    5  A    between atoms: C_5  and  C_18
REMARK                            x       y       z     vdW  Elec       q    Type
REMARK                         _______ _______ _______ _____ _____    ______ ____
ROOT
ATOM      1  C   UNL     1       3.816   5.472  18.542  0.00  0.00    +0.000 A 
ATOM      2  N   UNL     1       3.543   6.481  17.739  0.00  0.00    +0.000 NA
ATOM      3  C   UNL     1       2.741   7.329  18.447  0.00  0.00    +0.000 A 
ATOM      4  C   UNL     1       2.149   8.530  18.043  0.00  0.00    +0.000 A 
ATOM      5  C   UNL     1       1.349   9.220  18.961  0.00  0.00    +0.000 A 
ATOM      6 CL   UNL     1       0.618  10.691  18.415  0.00  0.00    +0.000 Cl
ATOM      7  C   UNL     1       1.155   8.724  20.259  0.00  0.00    +0.000 A 
ATOM      8 CL   UNL     1       0.178   9.557  21.420  0.00  0.00    +0.000 Cl
ATOM      9  C   UNL     1       1.748   7.519  20.673  0.00  0.00    +0.000 A 
ATOM     10  C   UNL     1       2.530   6.851  19.734  0.00  0.00    +0.000 A 
ATOM     11  N   UNL     1       3.230   5.669  19.776  0.00  0.00    +0.000 N 
ATOM     12  H   UNL     1       3.307   5.036  20.561  0.00  0.00    +0.000 HD
ENDROOT
BRANCH   1  13
ATOM     13  C   UNL     1       4.614   4.216  18.214  0.00  0.00    +0.000 C 
BRANCH  13  16
ATOM     14  C   UNL     1       5.456   4.360  14.607  0.00  0.00    +0.000 C 
ATOM     15  C   UNL     1       5.598   4.428  15.896  0.00  0.00    +0.000 C 
ATOM     16  C   UNL     1       5.761   4.469  17.194  0.00  0.00    +0.000 C 
ATOM     17  C   UNL     1       7.150   4.712  17.753  0.00  0.00    +0.000 C 
ENDBRANCH  13  16
BRANCH  13  18
ATOM     18  C   UNL     1       3.612   3.078  17.765  0.00  0.00    +0.000 C 
ATOM     19  F   UNL     1       4.230   1.957  17.324  0.00  0.00    +0.000 F 
ATOM     20  F   UNL     1       2.812   2.688  18.795  0.00  0.00    +0.000 F 
ATOM     21  F   UNL     1       2.770   3.474  16.776  0.00  0.00    +0.000 F 
ENDBRANCH  13  18
BRANCH  13  22
ATOM     22  O   UNL     1       5.193   3.850  19.506  0.00  0.00    +0.000 OA
ATOM     23  H   UNL     1       4.963   2.922  19.679  0.00  0.00    +0.000 HD
ENDBRANCH  13  22
ENDBRANCH   1  13
TORSDOF 4
ENDMDL
MODEL 2
REMARK VINA RESULT:      -7.3      0.178      1.625
REMARK  Name = 
REMARK  5 active torsions:
REMARK  status: ('A' for Active; 'I' for Inactive)
REMARK    1  A    between atoms: C_3  and  C_4
REMARK    2  A    between atoms: C_3  and  C_5
REMARK    3  A    between atoms: C_5  and  O_6
REMARK    4  A    between atoms: C_5  and  C_7
REMARK    5  A    between atoms: C_5  and  C_18
REMARK                            x       y       z     vdW  Elec       q    Type
REMARK                         _______ _______ _______ _____ _____    ______ ____
ROOT
ATOM      1  C   UNL     1       3.647   5.265  18.633  0.00  0.00    +0.000 A 
ATOM      2  N   UNL     1       3.046   5.491  19.783  0.00  0.00    +0.000 NA
ATOM      3  C   UNL     1       2.460   6.719  19.675  0.00  0.00    +0.000 A 
ATOM      4  C   UNL     1       1.727   7.436  20.627  0.00  0.00    +0.000 A 
ATOM      5  C   UNL     1       1.232   8.697  20.274  0.00  0.00    +0.000 A 
ATOM      6 CL   UNL     1       0.349   9.561  21.487  0.00  0.00    +0.000 Cl
ATOM      7  C   UNL     1       1.456   9.224  18.994  0.00  0.00    +0.000 A 
ATOM      8 CL   UNL     1       0.852  10.777  18.524  0.00  0.00    +0.000 Cl
ATOM      9  C   UNL     1       2.190   8.509  18.031  0.00  0.00    +0.000 A 
ATOM     10  C   UNL     1       2.678   7.262  18.416  0.00  0.00    +0.000 A 
ATOM     11  N   UNL     1       3.431   6.315  17.764  0.00  0.00    +0.000 N 
ATOM     12  H   UNL     1       3.783   6.365  16.818  0.00  0.00    +0.000 HD
ENDROOT
BRANCH   1  13
ATOM     13  C   UNL     1       4.511   4.067  18.258  0.00  0.00    +0.000 C 
BRANCH  13  16
ATOM     14  C   UNL     1       5.439   4.332  14.679  0.00  0.00    +0.000 C 
ATOM     15  C   UNL     1       5.539   4.392  15.972  0.00  0.00    +0.000 C 
ATOM     16  C   UNL     1       5.662   4.427  17.275  0.00  0.00    +0.000 C 
ATOM     17  C   UNL     1       7.011   4.774  17.877  0.00  0.00    +0.000 C 
ENDBRANCH  13  16
BRANCH  13  18
ATOM     18  C   UNL     1       3.576   2.906  17.733  0.00  0.00    +0.000 C 
ATOM     19  F   UNL     1       4.255   1.827  17.280  0.00  0.00    +0.000 F 
ATOM     20  F   UNL     1       2.754   2.449  18.718  0.00  0.00    +0.000 F 
ATOM     21  F   UNL     1       2.755   3.302  16.726  0.00  0.00    +0.000 F 
ENDBRANCH  13  18
BRANCH  13  22
ATOM     22  O   UNL     1       5.086   3.665  19.541  0.00  0.00    +0.000 OA
ATOM     23  H   UNL     1       5.621   4.407  19.869  0.00  0.00    +0.000 HD
ENDBRANCH  13  22
ENDBRANCH   1  13
TORSDOF 4
ENDMDL
MODEL 3
REMARK VINA RESULT:      -7.3      1.435      2.665
REMARK  Name = 
REMARK  5 active torsions:
REMARK  status: ('A' for Active; 'I' for Inactive)
REMARK    1  A    between atoms: C_3  and  C_4
REMARK    2  A    between atoms: C_3  and  C_5
REMARK    3  A    between atoms: C_5  and  O_6
REMARK    4  A    between atoms: C_5  and  C_7
REMARK    5  A    between atoms: C_5  and  C_18
REMARK                            x       y       z     vdW  Elec       q    Type
REMARK                         _______ _______ _______ _____ _____    ______ ____
ROOT
ATOM      1  C   UNL     1       4.438   5.737  18.137  0.00  0.00    +0.000 A 
ATOM      2  N   UNL     1       3.796   5.698  19.287  0.00  0.00    +0.000 NA
ATOM      3  C   UNL     1       2.954   6.773  19.293  0.00  0.00    +0.000 A 
ATOM      4  C   UNL     1       2.077   7.203  20.294  0.00  0.00    +0.000 A 
ATOM      5  C   UNL     1       1.318   8.356  20.064  0.00  0.00    +0.000 A 
ATOM      6 CL   UNL     1       0.261   8.867  21.336  0.00  0.00    +0.000 Cl
ATOM      7  C   UNL     1       1.427   9.058  18.854  0.00  0.00    +0.000 A 
ATOM      8 CL   UNL     1       0.497  10.482  18.535  0.00  0.00    +0.000 Cl
ATOM      9  C   UNL     1       2.304   8.630  17.842  0.00  0.00    +0.000 A 
ATOM     10  C   UNL     1       3.053   7.486  18.105  0.00  0.00    +0.000 A 
ATOM     11  N   UNL     1       4.000   6.804  17.379  0.00  0.00    +0.000 N 
ATOM     12  H   UNL     1       4.336   7.034  16.453  0.00  0.00    +0.000 HD
ENDROOT
BRANCH   1  13
ATOM     13  C   UNL     1       5.546   4.806  17.662  0.00  0.00    +0.000 C 
BRANCH  13  16
ATOM     14  C   UNL     1       7.476   7.966  17.468  0.00  0.00    +0.000 C 
ATOM     15  C   UNL     1       7.213   6.706  17.643  0.00  0.00    +0.000 C 
ATOM     16  C   UNL     1       6.966   5.429  17.793  0.00  0.00    +0.000 C 
ATOM     17  C   UNL     1       8.123   4.481  18.044  0.00  0.00    +0.000 C 
ENDBRANCH  13  16
BRANCH  13  18
ATOM     18  C   UNL     1       5.208   4.314  16.198  0.00  0.00    +0.000 C 
ATOM     19  F   UNL     1       3.934   3.881  16.053  0.00  0.00    +0.000 F 
ATOM     20  F   UNL     1       5.373   5.315  15.289  0.00  0.00    +0.000 F 
ATOM     21  F   UNL     1       6.014   3.304  15.779  0.00  0.00    +0.000 F 
ENDBRANCH  13  18
BRANCH  13  22
ATOM     22  O   UNL     1       5.435   3.671  18.577  0.00  0.00    +0.000 OA
ATOM     23  H   UNL     1       6.226   3.120  18.459  0.00  0.00    +0.000 HD
ENDBRANCH  13  22
ENDBRANCH   1  13
TORSDOF 4
ENDMDL
MODEL 4
REMARK VINA RESULT:      -7.2      4.269      5.067
REMARK  Name = 
REMARK  5 active torsions:
REMARK  status: ('A' for Active; 'I' for Inactive)
REMARK    1  A    between atoms: C_3  and  C_4
REMARK    2  A    between atoms: C_3  and  C_5
REMARK    3  A    between atoms: C_5  and  O_6
REMARK    4  A    between atoms: C_5  and  C_7
REMARK    5  A    between atoms: C_5  and  C_18
REMARK                            x       y       z     vdW  Elec       q    Type
REMARK                         _______ _______ _______ _____ _____    ______ ____
ROOT
ATOM      1  C   UNL     1       5.900   4.385  18.082  0.00  0.00    +0.000 A 
ATOM      2  N   UNL     1       5.558   4.310  19.352  0.00  0.00    +0.000 NA
ATOM      3  C   UNL     1       4.318   3.741  19.383  0.00  0.00    +0.000 A 
ATOM      4  C   UNL     1       3.498   3.468  20.482  0.00  0.00    +0.000 A 
ATOM      5  C   UNL     1       2.248   2.881  20.251  0.00  0.00    +0.000 A 
ATOM      6 CL   UNL     1       1.254   2.579  21.635  0.00  0.00    +0.000 Cl
ATOM      7  C   UNL     1       1.833   2.565  18.948  0.00  0.00    +0.000 A 
ATOM      8 CL   UNL     1       0.298   1.833  18.629  0.00  0.00    +0.000 Cl
ATOM      9  C   UNL     1       2.653   2.834  17.838  0.00  0.00    +0.000 A 
ATOM     10  C   UNL     1       3.886   3.427  18.100  0.00  0.00    +0.000 A 
ATOM     11  N   UNL     1       4.913   3.841  17.286  0.00  0.00    +0.000 N 
ATOM     12  H   UNL     1       4.953   3.774  16.278  0.00  0.00    +0.000 HD
ENDROOT
BRANCH   1  13
ATOM     13  C   UNL     1       7.160   5.011  17.496  0.00  0.00    +0.000 C 
BRANCH  13  16
ATOM     14  C   UNL     1       7.825   8.658  17.562  0.00  0.00    +0.000 C 
ATOM     15  C   UNL     1       7.757   7.424  17.960  0.00  0.00    +0.000 C 
ATOM     16  C   UNL     1       7.721   6.178  18.360  0.00  0.00    +0.000 C 
ATOM     17  C   UNL     1       8.314   5.823  19.711  0.00  0.00    +0.000 C 
ENDBRANCH  13  16
BRANCH  13  18
ATOM     18  C   UNL     1       6.879   5.419  15.996  0.00  0.00    +0.000 C 
ATOM     19  F   UNL     1       7.916   6.056  15.404  0.00  0.00    +0.000 F 
ATOM     20  F   UNL     1       6.618   4.326  15.226  0.00  0.00    +0.000 F 
ATOM     21  F   UNL     1       5.796   6.228  15.861  0.00  0.00    +0.000 F 
ENDBRANCH  13  18
BRANCH  13  22
ATOM     22  O   UNL     1       8.113   3.902  17.512  0.00  0.00    +0.000 OA
ATOM     23  H   UNL     1       7.716   3.181  18.028  0.00  0.00    +0.000 HD
ENDBRANCH  13  22
ENDBRANCH   1  13
TORSDOF 4
ENDMDL
MODEL 5
REMARK VINA RESULT:      -7.2      1.412      1.964
REMARK  Name = 
REMARK  5 active torsions:
REMARK  status: ('A' for Active; 'I' for Inactive)
REMARK    1  A    between atoms: C_3  and  C_4
REMARK    2  A    between atoms: C_3  and  C_5
REMARK    3  A    between atoms: C_5  and  O_6
REMARK    4  A    between atoms: C_5  and  C_7
REMARK    5  A    between atoms: C_5  and  C_18
REMARK                            x       y       z     vdW  Elec       q    Type
REMARK                         _______ _______ _______ _____ _____    ______ ____
ROOT
ATOM      1  C   UNL     1       4.456   5.941  18.079  0.00  0.00    +0.000 A 
ATOM      2  N   UNL     1       4.017   6.985  17.404  0.00  0.00    +0.000 NA
ATOM      3  C   UNL     1       3.050   7.562  18.177  0.00  0.00    +0.000 A 
ATOM      4  C   UNL     1       2.252   8.677  17.906  0.00  0.00    +0.000 A 
ATOM      5  C   UNL     1       1.312   9.072  18.866  0.00  0.00    +0.000 A 
ATOM      6 CL   UNL     1       0.328  10.444  18.483  0.00  0.00    +0.000 Cl
ATOM      7  C   UNL     1       1.182   8.371  20.074  0.00  0.00    +0.000 A 
ATOM      8 CL   UNL     1       0.035   8.837  21.284  0.00  0.00    +0.000 Cl
ATOM      9  C   UNL     1       1.983   7.250  20.354  0.00  0.00    +0.000 A 
ATOM     10  C   UNL     1       2.901   6.877  19.376  0.00  0.00    +0.000 A 
ATOM     11  N   UNL     1       3.812   5.851  19.295  0.00  0.00    +0.000 N 
ATOM     12  H   UNL     1       3.988   5.139  19.992  0.00  0.00    +0.000 HD
ENDROOT
BRANCH   1  13
ATOM     13  C   UNL     1       5.486   4.913  17.628  0.00  0.00    +0.000 C 
BRANCH  13  16
ATOM     14  C   UNL     1       7.613   7.946  17.486  0.00  0.00    +0.000 C 
ATOM     15  C   UNL     1       7.275   6.699  17.614  0.00  0.00    +0.000 C 
ATOM     16  C   UNL     1       6.949   5.434  17.714  0.00  0.00    +0.000 C 
ATOM     17  C   UNL     1       8.051   4.402  17.858  0.00  0.00    +0.000 C 
ENDBRANCH  13  16
BRANCH  13  18
ATOM     18  C   UNL     1       5.089   4.389  16.190  0.00  0.00    +0.000 C 
ATOM     19  F   UNL     1       5.822   3.327  15.780  0.00  0.00    +0.000 F 
ATOM     20  F   UNL     1       3.788   3.988  16.151  0.00  0.00    +0.000 F 
ATOM     21  F   UNL     1       5.207   5.340  15.228  0.00  0.00    +0.000 F 
ENDBRANCH  13  18
BRANCH  13  22
ATOM     22  O   UNL     1       5.307   3.827  18.590  0.00  0.00    +0.000 OA
ATOM     23  H   UNL     1       6.130   3.749  19.102  0.00  0.00    +0.000 HD
ENDBRANCH  13  22
ENDBRANCH   1  13
TORSDOF 4
ENDMDL
MODEL 6
REMARK VINA RESULT:      -7.2      1.936      2.921
REMARK  Name = 
REMARK  5 active torsions:
REMARK  status: ('A' for Active; 'I' for Inactive)
REMARK    1  A    between atoms: C_3  and  C_4
REMARK    2  A    between atoms: C_3  and  C_5
REMARK    3  A    between atoms: C_5  and  O_6
REMARK    4  A    between atoms: C_5  and  C_7
REMARK    5  A    between atoms: C_5  and  C_18
REMARK                            x       y       z     vdW  Elec       q    Type
REMARK                         _______ _______ _______ _____ _____    ______ ____
ROOT
ATOM      1  C   UNL     1       2.341   6.668  19.706  0.00  0.00    +0.000 A 
ATOM      2  N   UNL     1       2.231   7.562  18.744  0.00  0.00    +0.000 NA
ATOM      3  C   UNL     1       1.639   8.657  19.305  0.00  0.00    +0.000 A 
ATOM      4  C   UNL     1       1.270   9.866  18.707  0.00  0.00    +0.000 A 
ATOM      5  C   UNL     1       0.659  10.843  19.501  0.00  0.00    +0.000 A 
ATOM      6 CL   UNL     1       0.200  12.317  18.718  0.00  0.00    +0.000 Cl
ATOM      7  C   UNL     1       0.432  10.618  20.867  0.00  0.00    +0.000 A 
ATOM      8 CL   UNL     1      -0.314  11.809  21.878  0.00  0.00    +0.000 Cl
ATOM      9  C   UNL     1       0.801   9.407  21.476  0.00  0.00    +0.000 A 
ATOM     10  C   UNL     1       1.397   8.451  20.657  0.00  0.00    +0.000 A 
ATOM     11  N   UNL     1       1.860   7.178  20.893  0.00  0.00    +0.000 N 
ATOM     12  H   UNL     1       1.849   6.683  21.775  0.00  0.00    +0.000 HD
ENDROOT
BRANCH   1  13
ATOM     13  C   UNL     1       2.868   5.242  19.590  0.00  0.00    +0.000 C 
BRANCH  13  16
ATOM     14  C   UNL     1       4.942   4.567  16.592  0.00  0.00    +0.000 C 
ATOM     15  C   UNL     1       3.903   4.620  17.369  0.00  0.00    +0.000 C 
ATOM     16  C   UNL     1       2.842   4.698  18.133  0.00  0.00    +0.000 C 
ATOM     17  C   UNL     1       1.494   4.300  17.560  0.00  0.00    +0.000 C 
ENDBRANCH  13  16
BRANCH  13  18
ATOM     18  C   UNL     1       2.091   4.326  20.618  0.00  0.00    +0.000 C 
ATOM     19  F   UNL     1       0.750   4.511  20.602  0.00  0.00    +0.000 F 
ATOM     20  F   UNL     1       2.292   3.005  20.353  0.00  0.00    +0.000 F 
ATOM     21  F   UNL     1       2.496   4.507  21.901  0.00  0.00    +0.000 F 
ENDBRANCH  13  18
BRANCH  13  22
ATOM     22  O   UNL     1       4.256   5.370  20.029  0.00  0.00    +0.000 OA
ATOM     23  H   UNL     1       4.256   5.865  20.865  0.00  0.00    +0.000 HD
ENDBRANCH  13  22
ENDBRANCH   1  13
TORSDOF 4
ENDMDL
MODEL 7
REMARK VINA RESULT:      -7.2      4.225      6.188
REMARK  Name = 
REMARK  5 active torsions:
REMARK  status: ('A' for Active; 'I' for Inactive)
REMARK    1  A    between atoms: C_3  and  C_4
REMARK    2  A    between atoms: C_3  and  C_5
REMARK    3  A    between atoms: C_5  and  O_6
REMARK    4  A    between atoms: C_5  and  C_7
REMARK    5  A    between atoms: C_5  and  C_18
REMARK                            x       y       z     vdW  Elec       q    Type
REMARK                         _______ _______ _______ _____ _____    ______ ____
ROOT
ATOM      1  C   UNL     1       4.390   4.526  17.887  0.00  0.00    +0.000 A 
ATOM      2  N   UNL     1       4.113   3.764  16.849  0.00  0.00    +0.000 NA
ATOM      3  C   UNL     1       5.042   4.062  15.894  0.00  0.00    +0.000 A 
ATOM      4  C   UNL     1       5.172   3.556  14.598  0.00  0.00    +0.000 A 
ATOM      5  C   UNL     1       6.215   4.034  13.796  0.00  0.00    +0.000 A 
ATOM      6 CL   UNL     1       6.328   3.397  12.191  0.00  0.00    +0.000 Cl
ATOM      7  C   UNL     1       7.115   4.992  14.287  0.00  0.00    +0.000 A 
ATOM      8 CL   UNL     1       8.420   5.598  13.325  0.00  0.00    +0.000 Cl
ATOM      9  C   UNL     1       6.993   5.504  15.590  0.00  0.00    +0.000 A 
ATOM     10  C   UNL     1       5.939   5.016  16.358  0.00  0.00    +0.000 A 
ATOM     11  N   UNL     1       5.509   5.293  17.634  0.00  0.00    +0.000 N 
ATOM     12  H   UNL     1       5.922   5.947  18.285  0.00  0.00    +0.000 HD
ENDROOT
BRANCH   1  13
ATOM     13  C   UNL     1       3.609   4.637  19.191  0.00  0.00    +0.000 C 
BRANCH  13  16
ATOM     14  C   UNL     1       1.529   2.709  21.578  0.00  0.00    +0.000 C 
ATOM     15  C   UNL     1       2.487   2.993  20.750  0.00  0.00    +0.000 C 
ATOM     16  C   UNL     1       3.475   3.279  19.940  0.00  0.00    +0.000 C 
ATOM     17  C   UNL     1       4.593   2.270  19.759  0.00  0.00    +0.000 C 
ENDBRANCH  13  16
BRANCH  13  18
ATOM     18  C   UNL     1       2.221   5.333  18.898  0.00  0.00    +0.000 C 
ATOM     19  F   UNL     1       1.635   5.858  20.000  0.00  0.00    +0.000 F 
ATOM     20  F   UNL     1       2.360   6.363  18.018  0.00  0.00    +0.000 F 
ATOM     21  F   UNL     1       1.314   4.492  18.337  0.00  0.00    +0.000 F 
ENDBRANCH  13  18
BRANCH  13  22
ATOM     22  O   UNL     1       4.432   5.544  19.989  0.00  0.00    +0.000 OA
ATOM     23  H   UNL     1       4.395   5.241  20.912  0.00  0.00    +0.000 HD
ENDBRANCH  13  22
ENDBRANCH   1  13
TORSDOF 4
ENDMDL
MODEL 8
REMARK VINA RESULT:      -7.1      0.570      1.277
REMARK  Name = 
REMARK  5 active torsions:
REMARK  status: ('A' for Active; 'I' for Inactive)
REMARK    1  A    between atoms: C_3  and  C_4
REMARK    2  A    between atoms: C_3  and  C_5
REMARK    3  A    between atoms: C_5  and  O_6
REMARK    4  A    between atoms: C_5  and  C_7
REMARK    5  A    between atoms: C_5  and  C_18
REMARK                            x       y       z     vdW  Elec       q    Type
REMARK                         _______ _______ _______ _____ _____    ______ ____
ROOT
ATOM      1  C   UNL     1       3.413   5.496  18.733  0.00  0.00    +0.000 A 
ATOM      2  N   UNL     1       3.181   6.498  17.911  0.00  0.00    +0.000 NA
ATOM      3  C   UNL     1       2.459   7.416  18.617  0.00  0.00    +0.000 A 
ATOM      4  C   UNL     1       1.934   8.642  18.197  0.00  0.00    +0.000 A 
ATOM      5  C   UNL     1       1.210   9.408  19.118  0.00  0.00    +0.000 A 
ATOM      6 CL   UNL     1       0.559  10.909  18.552  0.00  0.00    +0.000 Cl
ATOM      7  C   UNL     1       1.025   8.961  20.435  0.00  0.00    +0.000 A 
ATOM      8 CL   UNL     1       0.143   9.887  21.601  0.00  0.00    +0.000 Cl
ATOM      9  C   UNL     1       1.552   7.731  20.866  0.00  0.00    +0.000 A 
ATOM     10  C   UNL     1       2.258   6.988  19.923  0.00  0.00    +0.000 A 
ATOM     11  N   UNL     1       2.881   5.764  19.978  0.00  0.00    +0.000 N 
ATOM     12  H   UNL     1       2.941   5.148  20.778  0.00  0.00    +0.000 HD
ENDROOT
BRANCH   1  13
ATOM     13  C   UNL     1       4.116   4.181  18.418  0.00  0.00    +0.000 C 
BRANCH  13  16
ATOM     14  C   UNL     1       7.724   4.967  18.082  0.00  0.00    +0.000 C 
ATOM     15  C   UNL     1       6.511   4.641  17.752  0.00  0.00    +0.000 C 
ATOM     16  C   UNL     1       5.285   4.341  17.403  0.00  0.00    +0.000 C 
ATOM     17  C   UNL     1       4.954   4.203  15.930  0.00  0.00    +0.000 C 
ENDBRANCH  13  16
BRANCH  13  18
ATOM     18  C   UNL     1       3.035   3.119  17.969  0.00  0.00    +0.000 C 
ATOM     19  F   UNL     1       3.569   1.946  17.555  0.00  0.00    +0.000 F 
ATOM     20  F   UNL     1       2.191   2.809  18.992  0.00  0.00    +0.000 F 
ATOM     21  F   UNL     1       2.241   3.564  16.962  0.00  0.00    +0.000 F 
ENDBRANCH  13  18
BRANCH  13  22
ATOM     22  O   UNL     1       4.659   3.782  19.715  0.00  0.00    +0.000 OA
ATOM     23  H   UNL     1       4.021   4.051  20.397  0.00  0.00    +0.000 HD
ENDBRANCH  13  22
ENDBRANCH   1  13
TORSDOF 4
ENDMDL
MODEL 9
REMARK VINA RESULT:      -7.1      0.498      2.047
REMARK  Name = 
REMARK  5 active torsions:
REMARK  status: ('A' for Active; 'I' for Inactive)
REMARK    1  A    between atoms: C_3  and  C_4
REMARK    2  A    between atoms: C_3  and  C_5
REMARK    3  A    between atoms: C_5  and  O_6
REMARK    4  A    between atoms: C_5  and  C_7
REMARK    5  A    between atoms: C_5  and  C_18
REMARK                            x       y       z     vdW  Elec       q    Type
REMARK                         _______ _______ _______ _____ _____    ______ ____
ROOT
ATOM      1  C   UNL     1       3.434   5.165  18.753  0.00  0.00    +0.000 A 
ATOM      2  N   UNL     1       2.874   5.435  19.915  0.00  0.00    +0.000 NA
ATOM      3  C   UNL     1       2.328   6.681  19.798  0.00  0.00    +0.000 A 
ATOM      4  C   UNL     1       1.649   7.442  20.754  0.00  0.00    +0.000 A 
ATOM      5  C   UNL     1       1.189   8.713  20.390  0.00  0.00    +0.000 A 
ATOM      6 CL   UNL     1       0.371   9.631  21.609  0.00  0.00    +0.000 Cl
ATOM      7  C   UNL     1       1.396   9.207  19.093  0.00  0.00    +0.000 A 
ATOM      8 CL   UNL     1       0.834  10.771  18.609  0.00  0.00    +0.000 Cl
ATOM      9  C   UNL     1       2.076   8.447  18.126  0.00  0.00    +0.000 A 
ATOM     10  C   UNL     1       2.530   7.192  18.522  0.00  0.00    +0.000 A 
ATOM     11  N   UNL     1       3.231   6.206  17.870  0.00  0.00    +0.000 N 
ATOM     12  H   UNL     1       3.558   6.225  16.913  0.00  0.00    +0.000 HD
ENDROOT
BRANCH   1  13
ATOM     13  C   UNL     1       4.244   3.930  18.379  0.00  0.00    +0.000 C 
BRANCH  13  16
ATOM     14  C   UNL     1       7.761   5.071  18.100  0.00  0.00    +0.000 C 
ATOM     15  C   UNL     1       6.587   4.640  17.749  0.00  0.00    +0.000 C 
ATOM     16  C   UNL     1       5.398   4.235  17.381  0.00  0.00    +0.000 C 
ATOM     17  C   UNL     1       5.090   4.113  15.900  0.00  0.00    +0.000 C 
ENDBRANCH  13  16
BRANCH  13  18
ATOM     18  C   UNL     1       3.256   2.804  17.874  0.00  0.00    +0.000 C 
ATOM     19  F   UNL     1       3.882   1.666  17.492  0.00  0.00    +0.000 F 
ATOM     20  F   UNL     1       2.377   2.443  18.849  0.00  0.00    +0.000 F 
ATOM     21  F   UNL     1       2.493   3.202  16.823  0.00  0.00    +0.000 F 
ENDBRANCH  13  18
BRANCH  13  22
ATOM     22  O   UNL     1       4.816   3.515  19.659  0.00  0.00    +0.000 OA
ATOM     23  H   UNL     1       5.704   3.160  19.483  0.00  0.00    +0.000 HD
ENDBRANCH  13  22
ENDBRANCH   1  13
TORSDOF 4
ENDMDL
