MODEL 1
REMARK VINA RESULT:      -8.8      0.000      0.000
REMARK  Name = 
REMARK  7 active torsions:
REMARK  status: ('A' for Active; 'I' for Inactive)
REMARK    1  A    between atoms: C_2  and  C_13
REMARK    2  A    between atoms: N_3  and  C_4
REMARK    3  A    between atoms: C_4  and  C_5
REMARK    4  A    between atoms: C_5  and  C_6
REMARK    5  A    between atoms: C_6  and  C_7
REMARK    6  A    between atoms: N_18  and  C_19
REMARK    7  A    between atoms: C_19  and  C_20
REMARK                            x       y       z     vdW  Elec       q    Type
REMARK                         _______ _______ _______ _____ _____    ______ ____
ROOT
ATOM      1  C   UNL     1       7.632   5.753  18.641  0.00  0.00    +0.000 C 
ATOM      2  C   UNL     1       7.864   4.568  17.710  0.00  0.00    +0.000 C 
ATOM      3  C   UNL     1       6.799   4.444  16.637  0.00  0.00    +0.000 C 
ATOM      4  C   UNL     1       5.446   5.060  16.970  0.00  0.00    +0.000 C 
ATOM      5  O   UNL     1       4.657   5.246  16.044  0.00  0.00    +0.000 OA
ATOM      6  N   UNL     1       5.180   5.376  18.299  0.00  0.00    +0.000 N 
ATOM      7  C   UNL     1       6.248   5.574  19.261  0.00  0.00    +0.000 C 
ENDROOT
BRANCH   1   9
ATOM      8  O   UNL     1       7.543   7.330  16.816  0.00  0.00    +0.000 OA
ATOM      9  C   UNL     1       7.826   7.133  17.975  0.00  0.00    +0.000 C 
ATOM     10  N   UNL     1       8.404   8.108  18.774  0.00  0.00    +0.000 N 
ATOM     11  H   UNL     1       8.959   7.840  19.572  0.00  0.00    +0.000 HD
BRANCH  10  12
ATOM     12  C   UNL     1       8.661   9.459  18.293  0.00  0.00    +0.000 C 
BRANCH  12  13
ATOM     13  C   UNL     1       9.332  10.303  19.372  0.00  0.00    +0.000 C 
BRANCH  13  14
ATOM     14  C   UNL     1      10.474  11.136  18.793  0.00  0.00    +0.000 C 
BRANCH  14  15
ATOM     15  C   UNL     1      10.258  12.614  18.993  0.00  0.00    +0.000 A 
ATOM     16  C   UNL     1      10.780  13.268  20.112  0.00  0.00    +0.000 A 
ATOM     17  C   UNL     1      10.550  14.627  20.255  0.00  0.00    +0.000 A 
ATOM     18  N   UNL     1       9.849  15.370  19.373  0.00  0.00    +0.000 NA
ATOM     19  C   UNL     1       9.362  14.723  18.292  0.00  0.00    +0.000 A 
ATOM     20  C   UNL     1       9.541  13.368  18.059  0.00  0.00    +0.000 A 
ENDBRANCH  14  15
ENDBRANCH  13  14
ENDBRANCH  12  13
ENDBRANCH  10  12
ENDBRANCH   1   9
BRANCH   6  21
ATOM     21  C   UNL     1       3.843   5.753  18.771  0.00  0.00    +0.000 C 
BRANCH  21  22
ATOM     22  C   UNL     1       2.919   4.599  19.112  0.00  0.00    +0.000 A 
ATOM     23  C   UNL     1       2.067   4.068  18.131  0.00  0.00    +0.000 A 
ATOM     24  C   UNL     1       1.004   3.235  18.485  0.00  0.00    +0.000 A 
ATOM     25  C   UNL     1       0.813   2.879  19.820  0.00  0.00    +0.000 A 
ATOM     26  C   UNL     1       1.703   3.333  20.786  0.00  0.00    +0.000 A 
ATOM     27  F   UNL     1       1.515   2.993  22.068  0.00  0.00    +0.000 F 
ATOM     28  C   UNL     1       2.747   4.195  20.450  0.00  0.00    +0.000 A 
ENDBRANCH  21  22
ENDBRANCH   6  21
TORSDOF 7
ENDMDL
MODEL 2
REMARK VINA RESULT:      -8.7      1.534      1.994
REMARK  Name = 
REMARK  7 active torsions:
REMARK  status: ('A' for Active; 'I' for Inactive)
REMARK    1  A    between atoms: C_2  and  C_13
REMARK    2  A    between atoms: N_3  and  C_4
REMARK    3  A    between atoms: C_4  and  C_5
REMARK    4  A    between atoms: C_5  and  C_6
REMARK    5  A    between atoms: C_6  and  C_7
REMARK    6  A    between atoms: N_18  and  C_19
REMARK    7  A    between atoms: C_19  and  C_20
REMARK                            x       y       z     vdW  Elec       q    Type
REMARK                         _______ _______ _______ _____ _____    ______ ____
ROOT
ATOM      1  C   UNL     1       6.289   5.863  16.532  0.00  0.00    +0.000 C 
ATOM      2  C   UNL     1       5.071   6.714  16.188  0.00  0.00    +0.000 C 
ATOM      3  C   UNL     1       4.137   6.907  17.367  0.00  0.00    +0.000 C 
ATOM      4  C   UNL     1       4.194   5.831  18.444  0.00  0.00    +0.000 C 
ATOM      5  O   UNL     1       3.688   6.085  19.537  0.00  0.00    +0.000 OA
ATOM      6  N   UNL     1       4.814   4.625  18.132  0.00  0.00    +0.000 N 
ATOM      7  C   UNL     1       5.772   4.522  17.046  0.00  0.00    +0.000 C 
ENDROOT
BRANCH   1   9
ATOM      8  O   UNL     1       7.826   5.933  18.390  0.00  0.00    +0.000 OA
ATOM      9  C   UNL     1       7.287   6.541  17.496  0.00  0.00    +0.000 C 
ATOM     10  N   UNL     1       7.473   7.903  17.306  0.00  0.00    +0.000 N 
ATOM     11  H   UNL     1       6.767   8.445  16.832  0.00  0.00    +0.000 HD
BRANCH  10  12
ATOM     12  C   UNL     1       8.375   8.689  18.137  0.00  0.00    +0.000 C 
BRANCH  12  13
ATOM     13  C   UNL     1       8.174  10.182  17.896  0.00  0.00    +0.000 C 
BRANCH  13  14
ATOM     14  C   UNL     1       9.500  10.938  17.970  0.00  0.00    +0.000 C 
BRANCH  14  15
ATOM     15  C   UNL     1       9.304  12.433  17.948  0.00  0.00    +0.000 A 
ATOM     16  C   UNL     1      10.391  13.299  18.086  0.00  0.00    +0.000 A 
ATOM     17  C   UNL     1      10.160  14.665  18.066  0.00  0.00    +0.000 A 
ATOM     18  N   UNL     1       8.939  15.221  17.915  0.00  0.00    +0.000 NA
ATOM     19  C   UNL     1       7.902  14.368  17.772  0.00  0.00    +0.000 A 
ATOM     20  C   UNL     1       8.032  12.988  17.777  0.00  0.00    +0.000 A 
ENDBRANCH  14  15
ENDBRANCH  13  14
ENDBRANCH  12  13
ENDBRANCH  10  12
ENDBRANCH   1   9
BRANCH   6  21
ATOM     21  C   UNL     1       4.727   3.443  18.997  0.00  0.00    +0.000 C 
BRANCH  21  22
ATOM     22  C   UNL     1       3.324   2.953  19.298  0.00  0.00    +0.000 A 
ATOM     23  C   UNL     1       2.399   2.785  18.256  0.00  0.00    +0.000 A 
ATOM     24  C   UNL     1       1.037   2.641  18.527  0.00  0.00    +0.000 A 
ATOM     25  C   UNL     1       0.590   2.610  19.848  0.00  0.00    +0.000 A 
ATOM     26  C   UNL     1       1.509   2.691  20.886  0.00  0.00    +0.000 A 
ATOM     27  F   UNL     1       1.075   2.665  22.154  0.00  0.00    +0.000 F 
ATOM     28  C   UNL     1       2.868   2.872  20.629  0.00  0.00    +0.000 A 
ENDBRANCH  21  22
ENDBRANCH   6  21
TORSDOF 7
ENDMDL
MODEL 3
REMARK VINA RESULT:      -8.7      1.605      2.030
REMARK  Name = 
REMARK  7 active torsions:
REMARK  status: ('A' for Active; 'I' for Inactive)
REMARK    1  A    between atoms: C_2  and  C_13
REMARK    2  A    between atoms: N_3  and  C_4
REMARK    3  A    between atoms: C_4  and  C_5
REMARK    4  A    between atoms: C_5  and  C_6
REMARK    5  A    between atoms: C_6  and  C_7
REMARK    6  A    between atoms: N_18  and  C_19
REMARK    7  A    between atoms: C_19  and  C_20
REMARK                            x       y       z     vdW  Elec       q    Type
REMARK                         _______ _______ _______ _____ _____    ______ ____
ROOT
ATOM      1  C   UNL     1       6.738   5.921  16.810  0.00  0.00    +0.000 C 
ATOM      2  C   UNL     1       5.545   6.632  16.180  0.00  0.00    +0.000 C 
ATOM      3  C   UNL     1       4.414   6.866  17.163  0.00  0.00    +0.000 C 
ATOM      4  C   UNL     1       4.355   5.911  18.348  0.00  0.00    +0.000 C 
ATOM      5  O   UNL     1       3.654   6.231  19.308  0.00  0.00    +0.000 OA
ATOM      6  N   UNL     1       5.093   4.734  18.277  0.00  0.00    +0.000 N 
ATOM      7  C   UNL     1       6.226   4.601  17.380  0.00  0.00    +0.000 C 
ENDROOT
BRANCH   1   9
ATOM      8  O   UNL     1       7.915   6.304  18.882  0.00  0.00    +0.000 OA
ATOM      9  C   UNL     1       7.513   6.770  17.842  0.00  0.00    +0.000 C 
ATOM     10  N   UNL     1       7.659   8.113  17.525  0.00  0.00    +0.000 N 
ATOM     11  H   UNL     1       7.022   8.548  16.876  0.00  0.00    +0.000 HD
BRANCH  10  12
ATOM     12  C   UNL     1       8.357   9.048  18.396  0.00  0.00    +0.000 C 
BRANCH  12  13
ATOM     13  C   UNL     1       9.017  10.159  17.586  0.00  0.00    +0.000 C 
BRANCH  13  14
ATOM     14  C   UNL     1       8.694  11.535  18.166  0.00  0.00    +0.000 C 
BRANCH  14  15
ATOM     15  C   UNL     1       9.803  12.528  17.927  0.00  0.00    +0.000 A 
ATOM     16  C   UNL     1      11.079  12.098  17.554  0.00  0.00    +0.000 A 
ATOM     17  C   UNL     1      12.068  13.048  17.351  0.00  0.00    +0.000 A 
ATOM     18  N   UNL     1      11.875  14.377  17.487  0.00  0.00    +0.000 NA
ATOM     19  C   UNL     1      10.633  14.773  17.836  0.00  0.00    +0.000 A 
ATOM     20  C   UNL     1       9.579  13.901  18.060  0.00  0.00    +0.000 A 
ENDBRANCH  14  15
ENDBRANCH  13  14
ENDBRANCH  12  13
ENDBRANCH  10  12
ENDBRANCH   1   9
BRANCH   6  21
ATOM     21  C   UNL     1       4.935   3.640  19.243  0.00  0.00    +0.000 C 
BRANCH  21  22
ATOM     22  C   UNL     1       3.530   3.084  19.379  0.00  0.00    +0.000 A 
ATOM     23  C   UNL     1       2.732   2.906  18.239  0.00  0.00    +0.000 A 
ATOM     24  C   UNL     1       1.355   2.698  18.357  0.00  0.00    +0.000 A 
ATOM     25  C   UNL     1       0.771   2.613  19.620  0.00  0.00    +0.000 A 
ATOM     26  C   UNL     1       1.568   2.704  20.754  0.00  0.00    +0.000 A 
ATOM     27  F   UNL     1       1.002   2.625  21.966  0.00  0.00    +0.000 F 
ATOM     28  C   UNL     1       2.938   2.948  20.650  0.00  0.00    +0.000 A 
ENDBRANCH  21  22
ENDBRANCH   6  21
TORSDOF 7
ENDMDL
MODEL 4
REMARK VINA RESULT:      -8.6      1.112      1.450
REMARK  Name = 
REMARK  7 active torsions:
REMARK  status: ('A' for Active; 'I' for Inactive)
REMARK    1  A    between atoms: C_2  and  C_13
REMARK    2  A    between atoms: N_3  and  C_4
REMARK    3  A    between atoms: C_4  and  C_5
REMARK    4  A    between atoms: C_5  and  C_6
REMARK    5  A    between atoms: C_6  and  C_7
REMARK    6  A    between atoms: N_18  and  C_19
REMARK    7  A    between atoms: C_19  and  C_20
REMARK                            x       y       z     vdW  Elec       q    Type
REMARK                         _______ _______ _______ _____ _____    ______ ____
ROOT
ATOM      1  C   UNL     1       7.357   5.861  18.563  0.00  0.00    +0.000 C 
ATOM      2  C   UNL     1       7.741   4.594  17.805  0.00  0.00    +0.000 C 
ATOM      3  C   UNL     1       6.945   4.409  16.528  0.00  0.00    +0.000 C 
ATOM      4  C   UNL     1       5.582   5.089  16.490  0.00  0.00    +0.000 C 
ATOM      5  O   UNL     1       5.035   5.216  15.395  0.00  0.00    +0.000 OA
ATOM      6  N   UNL     1       5.034   5.525  17.692  0.00  0.00    +0.000 N 
ATOM      7  C   UNL     1       5.862   5.775  18.858  0.00  0.00    +0.000 C 
ENDROOT
BRANCH   1   9
ATOM      8  O   UNL     1       7.719   7.292  16.653  0.00  0.00    +0.000 OA
ATOM      9  C   UNL     1       7.763   7.173  17.856  0.00  0.00    +0.000 C 
ATOM     10  N   UNL     1       8.240   8.179  18.684  0.00  0.00    +0.000 N 
ATOM     11  H   UNL     1       8.614   7.947  19.591  0.00  0.00    +0.000 HD
BRANCH  10  12
ATOM     12  C   UNL     1       8.670   9.472  18.172  0.00  0.00    +0.000 C 
BRANCH  12  13
ATOM     13  C   UNL     1       9.255  10.332  19.287  0.00  0.00    +0.000 C 
BRANCH  13  14
ATOM     14  C   UNL     1      10.505  11.075  18.816  0.00  0.00    +0.000 C 
BRANCH  14  15
ATOM     15  C   UNL     1      10.217  12.516  18.481  0.00  0.00    +0.000 A 
ATOM     16  C   UNL     1       8.990  13.097  18.813  0.00  0.00    +0.000 A 
ATOM     17  C   UNL     1       8.770  14.424  18.478  0.00  0.00    +0.000 A 
ATOM     18  N   UNL     1       9.675  15.202  17.849  0.00  0.00    +0.000 NA
ATOM     19  C   UNL     1      10.858  14.627  17.546  0.00  0.00    +0.000 A 
ATOM     20  C   UNL     1      11.174  13.309  17.840  0.00  0.00    +0.000 A 
ENDBRANCH  14  15
ENDBRANCH  13  14
ENDBRANCH  12  13
ENDBRANCH  10  12
ENDBRANCH   1   9
BRANCH   6  21
ATOM     21  C   UNL     1       3.643   5.978  17.811  0.00  0.00    +0.000 C 
BRANCH  21  22
ATOM     22  C   UNL     1       2.751   5.130  18.697  0.00  0.00    +0.000 A 
ATOM     23  C   UNL     1       2.337   5.616  19.946  0.00  0.00    +0.000 A 
ATOM     24  C   UNL     1       1.788   4.756  20.901  0.00  0.00    +0.000 A 
ATOM     25  C   UNL     1       1.598   3.409  20.596  0.00  0.00    +0.000 A 
ATOM     26  C   UNL     1       1.928   2.938  19.331  0.00  0.00    +0.000 A 
ATOM     27  F   UNL     1       1.748   1.642  19.042  0.00  0.00    +0.000 F 
ATOM     28  C   UNL     1       2.511   3.778  18.382  0.00  0.00    +0.000 A 
ENDBRANCH  21  22
ENDBRANCH   6  21
TORSDOF 7
ENDMDL
MODEL 5
REMARK VINA RESULT:      -8.5      4.857      7.074
REMARK  Name = 
REMARK  7 active torsions:
REMARK  status: ('A' for Active; 'I' for Inactive)
REMARK    1  A    between atoms: C_2  and  C_13
REMARK    2  A    between atoms: N_3  and  C_4
REMARK    3  A    between atoms: C_4  and  C_5
REMARK    4  A    between atoms: C_5  and  C_6
REMARK    5  A    between atoms: C_6  and  C_7
REMARK    6  A    between atoms: N_18  and  C_19
REMARK    7  A    between atoms: C_19  and  C_20
REMARK                            x       y       z     vdW  Elec       q    Type
REMARK                         _______ _______ _______ _____ _____    ______ ____
ROOT
ATOM      1  C   UNL     1       1.479   3.591  18.225  0.00  0.00    +0.000 C 
ATOM      2  C   UNL     1       1.356   2.314  19.050  0.00  0.00    +0.000 C 
ATOM      3  C   UNL     1       2.631   1.970  19.795  0.00  0.00    +0.000 C 
ATOM      4  C   UNL     1       3.920   2.521  19.198  0.00  0.00    +0.000 C 
ATOM      5  O   UNL     1       4.926   2.522  19.907  0.00  0.00    +0.000 OA
ATOM      6  N   UNL     1       3.886   2.989  17.888  0.00  0.00    +0.000 N 
ATOM      7  C   UNL     1       2.643   3.391  17.257  0.00  0.00    +0.000 C 
ENDROOT
BRANCH   1   9
ATOM      8  O   UNL     1       1.140   4.965  20.179  0.00  0.00    +0.000 OA
ATOM      9  C   UNL     1       1.600   4.881  19.065  0.00  0.00    +0.000 C 
ATOM     10  N   UNL     1       2.214   5.953  18.432  0.00  0.00    +0.000 N 
ATOM     11  H   UNL     1       2.247   5.990  17.425  0.00  0.00    +0.000 HD
BRANCH  10  12
ATOM     12  C   UNL     1       2.399   7.241  19.085  0.00  0.00    +0.000 C 
BRANCH  12  13
ATOM     13  C   UNL     1       2.521   8.360  18.056  0.00  0.00    +0.000 C 
BRANCH  13  14
ATOM     14  C   UNL     1       1.231   9.175  17.968  0.00  0.00    +0.000 C 
BRANCH  14  15
ATOM     15  C   UNL     1       1.158  10.241  19.031  0.00  0.00    +0.000 A 
ATOM     16  C   UNL     1       1.613  11.537  18.777  0.00  0.00    +0.000 A 
ATOM     17  C   UNL     1       1.531  12.481  19.788  0.00  0.00    +0.000 A 
ATOM     18  N   UNL     1       1.031  12.229  21.016  0.00  0.00    +0.000 NA
ATOM     19  C   UNL     1       0.585  10.974  21.239  0.00  0.00    +0.000 A 
ATOM     20  C   UNL     1       0.623   9.962  20.292  0.00  0.00    +0.000 A 
ENDBRANCH  14  15
ENDBRANCH  13  14
ENDBRANCH  12  13
ENDBRANCH  10  12
ENDBRANCH   1   9
BRANCH   6  21
ATOM     21  C   UNL     1       5.100   3.322  17.135  0.00  0.00    +0.000 C 
BRANCH  21  22
ATOM     22  C   UNL     1       5.665   4.708  17.382  0.00  0.00    +0.000 A 
ATOM     23  C   UNL     1       5.267   5.783  16.573  0.00  0.00    +0.000 A 
ATOM     24  C   UNL     1       5.988   6.979  16.570  0.00  0.00    +0.000 A 
ATOM     25  C   UNL     1       7.084   7.133  17.418  0.00  0.00    +0.000 A 
ATOM     26  C   UNL     1       7.433   6.103  18.283  0.00  0.00    +0.000 A 
ATOM     27  F   UNL     1       8.490   6.253  19.094  0.00  0.00    +0.000 F 
ATOM     28  C   UNL     1       6.744   4.890  18.269  0.00  0.00    +0.000 A 
ENDBRANCH  21  22
ENDBRANCH   6  21
TORSDOF 7
ENDMDL
MODEL 6
REMARK VINA RESULT:      -8.4      4.777      6.925
REMARK  Name = 
REMARK  7 active torsions:
REMARK  status: ('A' for Active; 'I' for Inactive)
REMARK    1  A    between atoms: C_2  and  C_13
REMARK    2  A    between atoms: N_3  and  C_4
REMARK    3  A    between atoms: C_4  and  C_5
REMARK    4  A    between atoms: C_5  and  C_6
REMARK    5  A    between atoms: C_6  and  C_7
REMARK    6  A    between atoms: N_18  and  C_19
REMARK    7  A    between atoms: C_19  and  C_20
REMARK                            x       y       z     vdW  Elec       q    Type
REMARK                         _______ _______ _______ _____ _____    ______ ____
ROOT
ATOM      1  C   UNL     1       1.438   3.567  18.353  0.00  0.00    +0.000 C 
ATOM      2  C   UNL     1       1.370   2.292  19.187  0.00  0.00    +0.000 C 
ATOM      3  C   UNL     1       2.679   1.974  19.883  0.00  0.00    +0.000 C 
ATOM      4  C   UNL     1       3.933   2.543  19.232  0.00  0.00    +0.000 C 
ATOM      5  O   UNL     1       4.967   2.565  19.900  0.00  0.00    +0.000 OA
ATOM      6  N   UNL     1       3.840   3.003  17.922  0.00  0.00    +0.000 N 
ATOM      7  C   UNL     1       2.566   3.382  17.339  0.00  0.00    +0.000 C 
ENDROOT
BRANCH   1   9
ATOM      8  O   UNL     1       1.090   4.970  20.285  0.00  0.00    +0.000 OA
ATOM      9  C   UNL     1       1.571   4.863  19.181  0.00  0.00    +0.000 C 
ATOM     10  N   UNL     1       2.222   5.914  18.550  0.00  0.00    +0.000 N 
ATOM     11  H   UNL     1       2.278   5.939  17.544  0.00  0.00    +0.000 HD
BRANCH  10  12
ATOM     12  C   UNL     1       2.423   7.205  19.194  0.00  0.00    +0.000 C 
BRANCH  12  13
ATOM     13  C   UNL     1       2.664   8.298  18.157  0.00  0.00    +0.000 C 
BRANCH  13  14
ATOM     14  C   UNL     1       1.376   9.058  17.843  0.00  0.00    +0.000 C 
BRANCH  14  15
ATOM     15  C   UNL     1       1.362  10.432  18.463  0.00  0.00    +0.000 A 
ATOM     16  C   UNL     1       0.435  10.760  19.455  0.00  0.00    +0.000 A 
ATOM     17  C   UNL     1       0.457  12.039  19.989  0.00  0.00    +0.000 A 
ATOM     18  N   UNL     1       1.328  12.998  19.613  0.00  0.00    +0.000 NA
ATOM     19  C   UNL     1       2.224  12.659  18.661  0.00  0.00    +0.000 A 
ATOM     20  C   UNL     1       2.282  11.407  18.067  0.00  0.00    +0.000 A 
ENDBRANCH  14  15
ENDBRANCH  13  14
ENDBRANCH  12  13
ENDBRANCH  10  12
ENDBRANCH   1   9
BRANCH   6  21
ATOM     21  C   UNL     1       5.017   3.353  17.120  0.00  0.00    +0.000 C 
BRANCH  21  22
ATOM     22  C   UNL     1       5.597   4.732  17.372  0.00  0.00    +0.000 A 
ATOM     23  C   UNL     1       5.188   5.820  16.587  0.00  0.00    +0.000 A 
ATOM     24  C   UNL     1       5.916   7.012  16.584  0.00  0.00    +0.000 A 
ATOM     25  C   UNL     1       7.032   7.147  17.408  0.00  0.00    +0.000 A 
ATOM     26  C   UNL     1       7.393   6.104  18.252  0.00  0.00    +0.000 A 
ATOM     27  F   UNL     1       8.469   6.236  19.040  0.00  0.00    +0.000 F 
ATOM     28  C   UNL     1       6.696   4.896  18.237  0.00  0.00    +0.000 A 
ENDBRANCH  21  22
ENDBRANCH   6  21
TORSDOF 7
ENDMDL
MODEL 7
REMARK VINA RESULT:      -8.4      1.110      1.418
REMARK  Name = 
REMARK  7 active torsions:
REMARK  status: ('A' for Active; 'I' for Inactive)
REMARK    1  A    between atoms: C_2  and  C_13
REMARK    2  A    between atoms: N_3  and  C_4
REMARK    3  A    between atoms: C_4  and  C_5
REMARK    4  A    between atoms: C_5  and  C_6
REMARK    5  A    between atoms: C_6  and  C_7
REMARK    6  A    between atoms: N_18  and  C_19
REMARK    7  A    between atoms: C_19  and  C_20
REMARK                            x       y       z     vdW  Elec       q    Type
REMARK                         _______ _______ _______ _____ _____    ______ ____
ROOT
ATOM      1  C   UNL     1       7.334   5.901  18.626  0.00  0.00    +0.000 C 
ATOM      2  C   UNL     1       8.014   4.734  17.918  0.00  0.00    +0.000 C 
ATOM      3  C   UNL     1       7.428   4.456  16.547  0.00  0.00    +0.000 C 
ATOM      4  C   UNL     1       5.988   4.906  16.336  0.00  0.00    +0.000 C 
ATOM      5  O   UNL     1       5.571   4.972  15.180  0.00  0.00    +0.000 OA
ATOM      6  N   UNL     1       5.227   5.215  17.459  0.00  0.00    +0.000 N 
ATOM      7  C   UNL     1       5.848   5.564  18.724  0.00  0.00    +0.000 C 
ENDROOT
BRANCH   1   9
ATOM      8  O   UNL     1       7.134   7.592  16.917  0.00  0.00    +0.000 OA
ATOM      9  C   UNL     1       7.605   7.279  17.985  0.00  0.00    +0.000 C 
ATOM     10  N   UNL     1       8.473   8.106  18.685  0.00  0.00    +0.000 N 
ATOM     11  H   UNL     1       9.125   7.708  19.342  0.00  0.00    +0.000 HD
BRANCH  10  12
ATOM     12  C   UNL     1       8.836   9.434  18.210  0.00  0.00    +0.000 C 
BRANCH  12  13
ATOM     13  C   UNL     1       9.038  10.393  19.379  0.00  0.00    +0.000 C 
BRANCH  13  14
ATOM     14  C   UNL     1      10.500  10.826  19.493  0.00  0.00    +0.000 C 
BRANCH  14  15
ATOM     15  C   UNL     1      10.741  12.181  18.879  0.00  0.00    +0.000 A 
ATOM     16  C   UNL     1      10.896  12.323  17.498  0.00  0.00    +0.000 A 
ATOM     17  C   UNL     1      11.122  13.590  16.981  0.00  0.00    +0.000 A 
ATOM     18  N   UNL     1      11.198  14.708  17.733  0.00  0.00    +0.000 NA
ATOM     19  C   UNL     1      11.034  14.552  19.064  0.00  0.00    +0.000 A 
ATOM     20  C   UNL     1      10.802  13.329  19.675  0.00  0.00    +0.000 A 
ENDBRANCH  14  15
ENDBRANCH  13  14
ENDBRANCH  12  13
ENDBRANCH  10  12
ENDBRANCH   1   9
BRANCH   6  21
ATOM     21  C   UNL     1       3.778   5.432  17.399  0.00  0.00    +0.000 C 
BRANCH  21  22
ATOM     22  C   UNL     1       2.931   4.413  18.138  0.00  0.00    +0.000 A 
ATOM     23  C   UNL     1       2.791   3.114  17.628  0.00  0.00    +0.000 A 
ATOM     24  C   UNL     1       1.789   2.265  18.103  0.00  0.00    +0.000 A 
ATOM     25  C   UNL     1       0.949   2.687  19.132  0.00  0.00    +0.000 A 
ATOM     26  C   UNL     1       1.137   3.941  19.701  0.00  0.00    +0.000 A 
ATOM     27  F   UNL     1       0.326   4.346  20.688  0.00  0.00    +0.000 F 
ATOM     28  C   UNL     1       2.110   4.813  19.211  0.00  0.00    +0.000 A 
ENDBRANCH  21  22
ENDBRANCH   6  21
TORSDOF 7
ENDMDL
MODEL 8
REMARK VINA RESULT:      -8.3      0.946      1.244
REMARK  Name = 
REMARK  7 active torsions:
REMARK  status: ('A' for Active; 'I' for Inactive)
REMARK    1  A    between atoms: C_2  and  C_13
REMARK    2  A    between atoms: N_3  and  C_4
REMARK    3  A    between atoms: C_4  and  C_5
REMARK    4  A    between atoms: C_5  and  C_6
REMARK    5  A    between atoms: C_6  and  C_7
REMARK    6  A    between atoms: N_18  and  C_19
REMARK    7  A    between atoms: C_19  and  C_20
REMARK                            x       y       z     vdW  Elec       q    Type
REMARK                         _______ _______ _______ _____ _____    ______ ____
ROOT
ATOM      1  C   UNL     1       7.287   5.845  18.537  0.00  0.00    +0.000 C 
ATOM      2  C   UNL     1       7.733   4.612  17.757  0.00  0.00    +0.000 C 
ATOM      3  C   UNL     1       7.002   4.455  16.438  0.00  0.00    +0.000 C 
ATOM      4  C   UNL     1       5.628   5.108  16.356  0.00  0.00    +0.000 C 
ATOM      5  O   UNL     1       5.131   5.262  15.241  0.00  0.00    +0.000 OA
ATOM      6  N   UNL     1       5.015   5.492  17.545  0.00  0.00    +0.000 N 
ATOM      7  C   UNL     1       5.781   5.718  18.757  0.00  0.00    +0.000 C 
ENDROOT
BRANCH   1   9
ATOM      8  O   UNL     1       7.583   7.391  16.708  0.00  0.00    +0.000 OA
ATOM      9  C   UNL     1       7.697   7.187  17.894  0.00  0.00    +0.000 C 
ATOM     10  N   UNL     1       8.263   8.116  18.755  0.00  0.00    +0.000 N 
ATOM     11  H   UNL     1       8.684   7.810  19.619  0.00  0.00    +0.000 HD
BRANCH  10  12
ATOM     12  C   UNL     1       8.709   9.427  18.303  0.00  0.00    +0.000 C 
BRANCH  12  13
ATOM     13  C   UNL     1       9.396  10.188  19.433  0.00  0.00    +0.000 C 
BRANCH  13  14
ATOM     14  C   UNL     1      10.382  11.219  18.887  0.00  0.00    +0.000 C 
BRANCH  14  15
ATOM     15  C   UNL     1      10.076  12.613  19.375  0.00  0.00    +0.000 A 
ATOM     16  C   UNL     1      10.508  13.041  20.633  0.00  0.00    +0.000 A 
ATOM     17  C   UNL     1      10.197  14.329  21.040  0.00  0.00    +0.000 A 
ATOM     18  N   UNL     1       9.498  15.208  20.291  0.00  0.00    +0.000 NA
ATOM     19  C   UNL     1       9.099  14.779  19.074  0.00  0.00    +0.000 A 
ATOM     20  C   UNL     1       9.362  13.512  18.578  0.00  0.00    +0.000 A 
ENDBRANCH  14  15
ENDBRANCH  13  14
ENDBRANCH  12  13
ENDBRANCH  10  12
ENDBRANCH   1   9
BRANCH   6  21
ATOM     21  C   UNL     1       3.611   5.913  17.611  0.00  0.00    +0.000 C 
BRANCH  21  22
ATOM     22  C   UNL     1       2.731   5.112  18.552  0.00  0.00    +0.000 A 
ATOM     23  C   UNL     1       2.353   5.653  19.791  0.00  0.00    +0.000 A 
ATOM     24  C   UNL     1       1.817   4.838  20.791  0.00  0.00    +0.000 A 
ATOM     25  C   UNL     1       1.604   3.483  20.545  0.00  0.00    +0.000 A 
ATOM     26  C   UNL     1       1.896   2.958  19.292  0.00  0.00    +0.000 A 
ATOM     27  F   UNL     1       1.693   1.654  19.060  0.00  0.00    +0.000 F 
ATOM     28  C   UNL     1       2.466   3.752  18.297  0.00  0.00    +0.000 A 
ENDBRANCH  21  22
ENDBRANCH   6  21
TORSDOF 7
ENDMDL
MODEL 9
REMARK VINA RESULT:      -8.3      0.880      1.123
REMARK  Name = 
REMARK  7 active torsions:
REMARK  status: ('A' for Active; 'I' for Inactive)
REMARK    1  A    between atoms: C_2  and  C_13
REMARK    2  A    between atoms: N_3  and  C_4
REMARK    3  A    between atoms: C_4  and  C_5
REMARK    4  A    between atoms: C_5  and  C_6
REMARK    5  A    between atoms: C_6  and  C_7
REMARK    6  A    between atoms: N_18  and  C_19
REMARK    7  A    between atoms: C_19  and  C_20
REMARK                            x       y       z     vdW  Elec       q    Type
REMARK                         _______ _______ _______ _____ _____    ______ ____
ROOT
ATOM      1  C   UNL     1       7.651   5.666  18.608  0.00  0.00    +0.000 C 
ATOM      2  C   UNL     1       7.841   4.458  17.697  0.00  0.00    +0.000 C 
ATOM      3  C   UNL     1       6.752   4.335  16.649  0.00  0.00    +0.000 C 
ATOM      4  C   UNL     1       5.418   4.984  16.996  0.00  0.00    +0.000 C 
ATOM      5  O   UNL     1       4.614   5.167  16.082  0.00  0.00    +0.000 OA
ATOM      6  N   UNL     1       5.185   5.332  18.323  0.00  0.00    +0.000 N 
ATOM      7  C   UNL     1       6.277   5.527  19.260  0.00  0.00    +0.000 C 
ENDROOT
BRANCH   1   9
ATOM      8  O   UNL     1       7.643   7.183  16.731  0.00  0.00    +0.000 OA
ATOM      9  C   UNL     1       7.858   7.028  17.910  0.00  0.00    +0.000 C 
ATOM     10  N   UNL     1       8.366   8.041  18.711  0.00  0.00    +0.000 N 
ATOM     11  H   UNL     1       8.876   7.810  19.550  0.00  0.00    +0.000 HD
BRANCH  10  12
ATOM     12  C   UNL     1       8.625   9.381  18.202  0.00  0.00    +0.000 C 
BRANCH  12  13
ATOM     13  C   UNL     1       9.271  10.254  19.274  0.00  0.00    +0.000 C 
BRANCH  13  14
ATOM     14  C   UNL     1      10.297  11.210  18.664  0.00  0.00    +0.000 C 
BRANCH  14  15
ATOM     15  C   UNL     1       9.875  12.652  18.792  0.00  0.00    +0.000 A 
ATOM     16  C   UNL     1      10.221  13.587  17.813  0.00  0.00    +0.000 A 
ATOM     17  C   UNL     1       9.816  14.902  17.978  0.00  0.00    +0.000 A 
ATOM     18  N   UNL     1       9.098  15.343  19.031  0.00  0.00    +0.000 NA
ATOM     19  C   UNL     1       8.764  14.423  19.961  0.00  0.00    +0.000 A 
ATOM     20  C   UNL     1       9.120  13.085  19.885  0.00  0.00    +0.000 A 
ENDBRANCH  14  15
ENDBRANCH  13  14
ENDBRANCH  12  13
ENDBRANCH  10  12
ENDBRANCH   1   9
BRANCH   6  21
ATOM     21  C   UNL     1       3.866   5.744  18.814  0.00  0.00    +0.000 C 
BRANCH  21  22
ATOM     22  C   UNL     1       3.018   4.641  19.419  0.00  0.00    +0.000 A 
ATOM     23  C   UNL     1       1.618   4.720  19.361  0.00  0.00    +0.000 A 
ATOM     24  C   UNL     1       0.823   3.900  20.165  0.00  0.00    +0.000 A 
ATOM     25  C   UNL     1       1.419   2.954  20.998  0.00  0.00    +0.000 A 
ATOM     26  C   UNL     1       2.802   2.812  20.997  0.00  0.00    +0.000 A 
ATOM     27  F   UNL     1       3.372   1.904  21.801  0.00  0.00    +0.000 F 
ATOM     28  C   UNL     1       3.608   3.649  20.226  0.00  0.00    +0.000 A 
ENDBRANCH  21  22
ENDBRANCH   6  21
TORSDOF 7
ENDMDL
