MODEL 1
REMARK VINA RESULT:      -9.4      0.000      0.000
REMARK  Name = 
REMARK  3 active torsions:
REMARK  status: ('A' for Active; 'I' for Inactive)
REMARK    1  A    between atoms: C_2  and  C_24
REMARK    2  A    between atoms: C_6  and  C_7
REMARK    3  A    between atoms: N_12  and  C_13
REMARK                            x       y       z     vdW  Elec       q    Type
REMARK                         _______ _______ _______ _____ _____    ______ ____
ROOT
ATOM      1  O   UNL     1       6.375   5.944  16.155  0.00  0.00    +0.000 OA
ATOM      2  C   UNL     1       5.933   4.911  15.680  0.00  0.00    +0.000 C 
ATOM      3  N   UNL     1       4.838   4.212  16.204  0.00  0.00    +0.000 N 
ATOM      4  C   UNL     1       4.255   4.622  17.418  0.00  0.00    +0.000 A 
ATOM      5  C   UNL     1       3.652   5.872  17.507  0.00  0.00    +0.000 A 
ATOM      6  C   UNL     1       3.059   6.270  18.717  0.00  0.00    +0.000 A 
ATOM      7  C   UNL     1       3.155   5.387  19.796  0.00  0.00    +0.000 A 
ATOM      8  C   UNL     1       3.752   4.154  19.611  0.00  0.00    +0.000 A 
ATOM      9  N   UNL     1       4.258   3.736  18.423  0.00  0.00    +0.000 NA
ATOM     10  H   UNL     1       4.862   3.209  16.108  0.00  0.00    +0.000 HD
ENDROOT
BRANCH   6  11
ATOM     11  C   UNL     1       2.383   7.574  18.852  0.00  0.00    +0.000 A 
ATOM     12  C   UNL     1       2.270   8.458  17.775  0.00  0.00    +0.000 A 
ATOM     13  C   UNL     1       1.651   9.675  17.972  0.00  0.00    +0.000 A 
ATOM     14  N   UNL     1       1.151  10.067  19.155  0.00  0.00    +0.000 NA
ATOM     15  C   UNL     1       1.229   9.225  20.204  0.00  0.00    +0.000 A 
ATOM     16  N   UNL     1       0.608   9.529  21.430  0.00  0.00    +0.000 N 
ATOM     17  C   UNL     1       1.832   7.979  20.075  0.00  0.00    +0.000 A 
ATOM     18  H   UNL     1       1.156   9.257  22.235  0.00  0.00    +0.000 HD
BRANCH  16  19
ATOM     19  C   UNL     1      -0.386  10.492  21.683  0.00  0.00    +0.000 A 
ATOM     20  C   UNL     1      -0.903  11.314  20.667  0.00  0.00    +0.000 A 
ATOM     21  C   UNL     1      -1.886  12.261  20.930  0.00  0.00    +0.000 A 
ATOM     22  C   UNL     1      -2.389  12.372  22.213  0.00  0.00    +0.000 A 
ATOM     23  F   UNL     1      -3.317  13.301  22.480  0.00  0.00    +0.000 F 
ATOM     24  C   UNL     1      -1.935  11.542  23.232  0.00  0.00    +0.000 A 
ATOM     25  C   UNL     1      -0.943  10.595  22.964  0.00  0.00    +0.000 A 
ENDBRANCH  16  19
ENDBRANCH   6  11
BRANCH   2  26
ATOM     26  C   UNL     1       6.590   4.217  14.495  0.00  0.00    +0.000 C 
ATOM     27  C   UNL     1       5.630   3.686  13.450  0.00  0.00    +0.000 C 
ATOM     28  C   UNL     1       6.508   3.592  12.220  0.00  0.00    +0.000 C 
ATOM     29  O   UNL     1       7.492   4.625  12.327  0.00  0.00    +0.000 OA
ATOM     30  C   UNL     1       7.453   5.158  13.661  0.00  0.00    +0.000 C 
ENDBRANCH   2  26
TORSDOF 3
ENDMDL
MODEL 2
REMARK VINA RESULT:      -9.3      2.563      3.350
REMARK  Name = 
REMARK  3 active torsions:
REMARK  status: ('A' for Active; 'I' for Inactive)
REMARK    1  A    between atoms: C_2  and  C_24
REMARK    2  A    between atoms: C_6  and  C_7
REMARK    3  A    between atoms: N_12  and  C_13
REMARK                            x       y       z     vdW  Elec       q    Type
REMARK                         _______ _______ _______ _____ _____    ______ ____
ROOT
ATOM      1  O   UNL     1       5.761   5.974  18.354  0.00  0.00    +0.000 OA
ATOM      2  C   UNL     1       5.287   5.199  17.541  0.00  0.00    +0.000 C 
ATOM      3  N   UNL     1       3.968   4.728  17.581  0.00  0.00    +0.000 N 
ATOM      4  C   UNL     1       3.139   5.046  18.672  0.00  0.00    +0.000 A 
ATOM      5  C   UNL     1       2.799   6.371  18.919  0.00  0.00    +0.000 A 
ATOM      6  C   UNL     1       1.959   6.682  20.002  0.00  0.00    +0.000 A 
ATOM      7  C   UNL     1       1.546   5.621  20.813  0.00  0.00    +0.000 A 
ATOM      8  C   UNL     1       1.912   4.331  20.479  0.00  0.00    +0.000 A 
ATOM      9  N   UNL     1       2.661   4.020  19.390  0.00  0.00    +0.000 NA
ATOM     10  H   UNL     1       3.820   3.790  17.245  0.00  0.00    +0.000 HD
ENDROOT
BRANCH   6  11
ATOM     11  C   UNL     1       1.548   8.069  20.287  0.00  0.00    +0.000 A 
ATOM     12  C   UNL     1       1.235   8.491  21.582  0.00  0.00    +0.000 A 
ATOM     13  C   UNL     1       0.828   9.795  21.779  0.00  0.00    +0.000 A 
ATOM     14  N   UNL     1       0.708  10.690  20.786  0.00  0.00    +0.000 NA
ATOM     15  C   UNL     1       1.025  10.314  19.531  0.00  0.00    +0.000 A 
ATOM     16  N   UNL     1       1.044  11.244  18.475  0.00  0.00    +0.000 N 
ATOM     17  C   UNL     1       1.449   9.019  19.261  0.00  0.00    +0.000 A 
ATOM     18  H   UNL     1       0.684  10.871  17.607  0.00  0.00    +0.000 HD
BRANCH  16  19
ATOM     19  C   UNL     1       1.067  12.648  18.556  0.00  0.00    +0.000 A 
ATOM     20  C   UNL     1      -0.104  13.403  18.742  0.00  0.00    +0.000 A 
ATOM     21  C   UNL     1      -0.068  14.791  18.823  0.00  0.00    +0.000 A 
ATOM     22  C   UNL     1       1.152  15.438  18.751  0.00  0.00    +0.000 A 
ATOM     23  F   UNL     1       1.192  16.776  18.800  0.00  0.00    +0.000 F 
ATOM     24  C   UNL     1       2.334  14.720  18.616  0.00  0.00    +0.000 A 
ATOM     25  C   UNL     1       2.292  13.326  18.530  0.00  0.00    +0.000 A 
ENDBRANCH  16  19
ENDBRANCH   6  11
BRANCH   2  26
ATOM     26  C   UNL     1       6.120   4.588  16.422  0.00  0.00    +0.000 C 
ATOM     27  C   UNL     1       5.393   4.409  15.106  0.00  0.00    +0.000 C 
ATOM     28  C   UNL     1       6.533   4.347  14.111  0.00  0.00    +0.000 C 
ATOM     29  O   UNL     1       7.593   5.153  14.635  0.00  0.00    +0.000 OA
ATOM     30  C   UNL     1       7.290   5.472  16.004  0.00  0.00    +0.000 C 
ENDBRANCH   2  26
TORSDOF 3
ENDMDL
MODEL 3
REMARK VINA RESULT:      -9.1      2.202      2.933
REMARK  Name = 
REMARK  3 active torsions:
REMARK  status: ('A' for Active; 'I' for Inactive)
REMARK    1  A    between atoms: C_2  and  C_24
REMARK    2  A    between atoms: C_6  and  C_7
REMARK    3  A    between atoms: N_12  and  C_13
REMARK                            x       y       z     vdW  Elec       q    Type
REMARK                         _______ _______ _______ _____ _____    ______ ____
ROOT
ATOM      1  O   UNL     1       6.339   5.464  16.666  0.00  0.00    +0.000 OA
ATOM      2  C   UNL     1       5.863   4.566  15.991  0.00  0.00    +0.000 C 
ATOM      3  N   UNL     1       4.708   3.852  16.338  0.00  0.00    +0.000 N 
ATOM      4  C   UNL     1       4.096   4.067  17.586  0.00  0.00    +0.000 A 
ATOM      5  C   UNL     1       3.559   5.313  17.888  0.00  0.00    +0.000 A 
ATOM      6  C   UNL     1       2.935   5.517  19.131  0.00  0.00    +0.000 A 
ATOM      7  C   UNL     1       2.934   4.445  20.028  0.00  0.00    +0.000 A 
ATOM      8  C   UNL     1       3.469   3.233  19.635  0.00  0.00    +0.000 A 
ATOM      9  N   UNL     1       4.004   3.011  18.407  0.00  0.00    +0.000 NA
ATOM     10  H   UNL     1       4.681   2.885  16.056  0.00  0.00    +0.000 HD
ENDROOT
BRANCH   6  11
ATOM     11  C   UNL     1       2.327   6.813  19.485  0.00  0.00    +0.000 A 
ATOM     12  C   UNL     1       1.764   7.040  20.744  0.00  0.00    +0.000 A 
ATOM     13  C   UNL     1       1.183   8.264  21.005  0.00  0.00    +0.000 A 
ATOM     14  N   UNL     1       1.122   9.260  20.106  0.00  0.00    +0.000 NA
ATOM     15  C   UNL     1       1.676   9.073  18.892  0.00  0.00    +0.000 A 
ATOM     16  N   UNL     1       1.756  10.124  17.959  0.00  0.00    +0.000 N 
ATOM     17  C   UNL     1       2.284   7.868  18.564  0.00  0.00    +0.000 A 
ATOM     18  H   UNL     1       1.585   9.827  17.007  0.00  0.00    +0.000 HD
BRANCH  16  19
ATOM     19  C   UNL     1       1.604  11.503  18.190  0.00  0.00    +0.000 A 
ATOM     20  C   UNL     1       0.383  12.057  18.611  0.00  0.00    +0.000 A 
ATOM     21  C   UNL     1       0.246  13.423  18.839  0.00  0.00    +0.000 A 
ATOM     22  C   UNL     1       1.345  14.246  18.678  0.00  0.00    +0.000 A 
ATOM     23  F   UNL     1       1.214  15.565  18.869  0.00  0.00    +0.000 F 
ATOM     24  C   UNL     1       2.580  13.724  18.311  0.00  0.00    +0.000 A 
ATOM     25  C   UNL     1       2.711  12.353  18.078  0.00  0.00    +0.000 A 
ENDBRANCH  16  19
ENDBRANCH   6  11
BRANCH   2  26
ATOM     26  C   UNL     1       6.533   4.064  14.719  0.00  0.00    +0.000 C 
ATOM     27  C   UNL     1       5.584   3.683  13.603  0.00  0.00    +0.000 C 
ATOM     28  C   UNL     1       6.466   3.784  12.377  0.00  0.00    +0.000 C 
ATOM     29  O   UNL     1       7.437   4.801  12.641  0.00  0.00    +0.000 OA
ATOM     30  C   UNL     1       7.386   5.129  14.039  0.00  0.00    +0.000 C 
ENDBRANCH   2  26
TORSDOF 3
ENDMDL
MODEL 4
REMARK VINA RESULT:      -8.9      2.319      3.070
REMARK  Name = 
REMARK  3 active torsions:
REMARK  status: ('A' for Active; 'I' for Inactive)
REMARK    1  A    between atoms: C_2  and  C_24
REMARK    2  A    between atoms: C_6  and  C_7
REMARK    3  A    between atoms: N_12  and  C_13
REMARK                            x       y       z     vdW  Elec       q    Type
REMARK                         _______ _______ _______ _____ _____    ______ ____
ROOT
ATOM      1  O   UNL     1       5.915   5.667  17.384  0.00  0.00    +0.000 OA
ATOM      2  C   UNL     1       5.403   4.807  16.688  0.00  0.00    +0.000 C 
ATOM      3  N   UNL     1       4.162   4.214  16.959  0.00  0.00    +0.000 N 
ATOM      4  C   UNL     1       3.486   4.510  18.157  0.00  0.00    +0.000 A 
ATOM      5  C   UNL     1       3.053   5.808  18.403  0.00  0.00    +0.000 A 
ATOM      6  C   UNL     1       2.365   6.096  19.595  0.00  0.00    +0.000 A 
ATOM      7  C   UNL     1       2.196   5.046  20.502  0.00  0.00    +0.000 A 
ATOM      8  C   UNL     1       2.638   3.781  20.164  0.00  0.00    +0.000 A 
ATOM      9  N   UNL     1       3.235   3.484  18.982  0.00  0.00    +0.000 NA
ATOM     10  H   UNL     1       4.062   3.248  16.688  0.00  0.00    +0.000 HD
ENDROOT
BRANCH   6  11
ATOM     11  C   UNL     1       1.862   7.450  19.887  0.00  0.00    +0.000 A 
ATOM     12  C   UNL     1       1.320   7.779  21.133  0.00  0.00    +0.000 A 
ATOM     13  C   UNL     1       0.839   9.056  21.336  0.00  0.00    +0.000 A 
ATOM     14  N   UNL     1       0.855  10.011  20.392  0.00  0.00    +0.000 NA
ATOM     15  C   UNL     1       1.392   9.725  19.189  0.00  0.00    +0.000 A 
ATOM     16  N   UNL     1       1.554  10.722  18.209  0.00  0.00    +0.000 N 
ATOM     17  C   UNL     1       1.903   8.461  18.919  0.00  0.00    +0.000 A 
ATOM     18  H   UNL     1       1.359  10.397  17.272  0.00  0.00    +0.000 HD
BRANCH  16  19
ATOM     19  C   UNL     1       1.513  12.118  18.377  0.00  0.00    +0.000 A 
ATOM     20  C   UNL     1       2.658  12.920  18.234  0.00  0.00    +0.000 A 
ATOM     21  C   UNL     1       2.604  14.300  18.400  0.00  0.00    +0.000 A 
ATOM     22  C   UNL     1       1.388  14.897  18.679  0.00  0.00    +0.000 A 
ATOM     23  F   UNL     1       1.333  16.222  18.868  0.00  0.00    +0.000 F 
ATOM     24  C   UNL     1       0.227  14.140  18.779  0.00  0.00    +0.000 A 
ATOM     25  C   UNL     1       0.288  12.753  18.617  0.00  0.00    +0.000 A 
ENDBRANCH  16  19
ENDBRANCH   6  11
BRANCH   2  26
ATOM     26  C   UNL     1       6.109   4.218  15.475  0.00  0.00    +0.000 C 
ATOM     27  C   UNL     1       5.234   4.026  14.254  0.00  0.00    +0.000 C 
ATOM     28  C   UNL     1       6.248   3.993  13.129  0.00  0.00    +0.000 C 
ATOM     29  O   UNL     1       7.344   4.822  13.528  0.00  0.00    +0.000 OA
ATOM     30  C   UNL     1       7.200   5.130  14.924  0.00  0.00    +0.000 C 
ENDBRANCH   2  26
TORSDOF 3
ENDMDL
MODEL 5
REMARK VINA RESULT:      -8.8      5.383     10.752
REMARK  Name = 
REMARK  3 active torsions:
REMARK  status: ('A' for Active; 'I' for Inactive)
REMARK    1  A    between atoms: C_2  and  C_24
REMARK    2  A    between atoms: C_6  and  C_7
REMARK    3  A    between atoms: N_12  and  C_13
REMARK                            x       y       z     vdW  Elec       q    Type
REMARK                         _______ _______ _______ _____ _____    ______ ____
ROOT
ATOM      1  O   UNL     1      -3.087  12.207  21.236  0.00  0.00    +0.000 OA
ATOM      2  C   UNL     1      -3.558  12.602  20.183  0.00  0.00    +0.000 C 
ATOM      3  N   UNL     1      -2.833  12.706  18.989  0.00  0.00    +0.000 N 
ATOM      4  C   UNL     1      -1.447  12.465  18.983  0.00  0.00    +0.000 A 
ATOM      5  C   UNL     1      -0.963  11.202  19.306  0.00  0.00    +0.000 A 
ATOM      6  C   UNL     1       0.422  10.963  19.284  0.00  0.00    +0.000 A 
ATOM      7  C   UNL     1       1.251  12.047  18.979  0.00  0.00    +0.000 A 
ATOM      8  C   UNL     1       0.683  13.262  18.647  0.00  0.00    +0.000 A 
ATOM      9  N   UNL     1      -0.657  13.475  18.593  0.00  0.00    +0.000 NA
ATOM     10  H   UNL     1      -3.097  13.458  18.372  0.00  0.00    +0.000 HD
ENDROOT
BRANCH   6  11
ATOM     11  C   UNL     1       0.980   9.634  19.591  0.00  0.00    +0.000 A 
ATOM     12  C   UNL     1       0.869   9.067  20.864  0.00  0.00    +0.000 A 
ATOM     13  C   UNL     1       1.439   7.832  21.097  0.00  0.00    +0.000 A 
ATOM     14  N   UNL     1       2.107   7.138  20.161  0.00  0.00    +0.000 NA
ATOM     15  C   UNL     1       2.209   7.653  18.920  0.00  0.00    +0.000 A 
ATOM     16  N   UNL     1       2.783   6.912  17.870  0.00  0.00    +0.000 N 
ATOM     17  C   UNL     1       1.653   8.889  18.614  0.00  0.00    +0.000 A 
ATOM     18  H   UNL     1       3.353   7.473  17.250  0.00  0.00    +0.000 HD
BRANCH  16  19
ATOM     19  C   UNL     1       3.028   5.529  17.817  0.00  0.00    +0.000 A 
ATOM     20  C   UNL     1       1.996   4.584  17.948  0.00  0.00    +0.000 A 
ATOM     21  C   UNL     1       2.251   3.218  17.892  0.00  0.00    +0.000 A 
ATOM     22  C   UNL     1       3.544   2.783  17.669  0.00  0.00    +0.000 A 
ATOM     23  F   UNL     1       3.802   1.468  17.641  0.00  0.00    +0.000 F 
ATOM     24  C   UNL     1       4.581   3.690  17.486  0.00  0.00    +0.000 A 
ATOM     25  C   UNL     1       4.321   5.062  17.548  0.00  0.00    +0.000 A 
ENDBRANCH  16  19
ENDBRANCH   6  11
BRANCH   2  26
ATOM     26  C   UNL     1      -4.989  13.111  20.075  0.00  0.00    +0.000 C 
ATOM     27  C   UNL     1      -5.798  12.513  18.943  0.00  0.00    +0.000 C 
ATOM     28  C   UNL     1      -7.222  12.734  19.408  0.00  0.00    +0.000 C 
ATOM     29  O   UNL     1      -7.208  12.691  20.838  0.00  0.00    +0.000 OA
ATOM     30  C   UNL     1      -5.842  12.740  21.284  0.00  0.00    +0.000 C 
ENDBRANCH   2  26
TORSDOF 3
ENDMDL
MODEL 6
REMARK VINA RESULT:      -8.7      3.424      4.848
REMARK  Name = 
REMARK  3 active torsions:
REMARK  status: ('A' for Active; 'I' for Inactive)
REMARK    1  A    between atoms: C_2  and  C_24
REMARK    2  A    between atoms: C_6  and  C_7
REMARK    3  A    between atoms: N_12  and  C_13
REMARK                            x       y       z     vdW  Elec       q    Type
REMARK                         _______ _______ _______ _____ _____    ______ ____
ROOT
ATOM      1  O   UNL     1       1.538   4.838  19.342  0.00  0.00    +0.000 OA
ATOM      2  C   UNL     1       2.718   4.925  19.049  0.00  0.00    +0.000 C 
ATOM      3  N   UNL     1       3.379   6.136  18.804  0.00  0.00    +0.000 N 
ATOM      4  C   UNL     1       2.652   7.340  18.764  0.00  0.00    +0.000 A 
ATOM      5  C   UNL     1       1.998   7.791  19.905  0.00  0.00    +0.000 A 
ATOM      6  C   UNL     1       1.285   9.001  19.864  0.00  0.00    +0.000 A 
ATOM      7  C   UNL     1       1.235   9.670  18.637  0.00  0.00    +0.000 A 
ATOM      8  C   UNL     1       1.935   9.162  17.560  0.00  0.00    +0.000 A 
ATOM      9  N   UNL     1       2.687   8.033  17.617  0.00  0.00    +0.000 NA
ATOM     10  H   UNL     1       4.118   6.109  18.119  0.00  0.00    +0.000 HD
ENDROOT
BRANCH   6  11
ATOM     11  C   UNL     1       0.600   9.534  21.056  0.00  0.00    +0.000 A 
ATOM     12  C   UNL     1       0.756   8.950  22.316  0.00  0.00    +0.000 A 
ATOM     13  C   UNL     1       0.065   9.477  23.387  0.00  0.00    +0.000 A 
ATOM     14  N   UNL     1      -0.764  10.528  23.286  0.00  0.00    +0.000 NA
ATOM     15  C   UNL     1      -0.915  11.123  22.087  0.00  0.00    +0.000 A 
ATOM     16  N   UNL     1      -1.667  12.305  21.950  0.00  0.00    +0.000 N 
ATOM     17  C   UNL     1      -0.243  10.649  20.966  0.00  0.00    +0.000 A 
ATOM     18  H   UNL     1      -2.218  12.332  21.103  0.00  0.00    +0.000 HD
BRANCH  16  19
ATOM     19  C   UNL     1      -2.081  13.191  22.960  0.00  0.00    +0.000 A 
ATOM     20  C   UNL     1      -3.365  13.124  23.529  0.00  0.00    +0.000 A 
ATOM     21  C   UNL     1      -3.763  14.005  24.529  0.00  0.00    +0.000 A 
ATOM     22  C   UNL     1      -2.863  14.945  24.996  0.00  0.00    +0.000 A 
ATOM     23  F   UNL     1      -3.248  15.814  25.940  0.00  0.00    +0.000 F 
ATOM     24  C   UNL     1      -1.570  15.007  24.491  0.00  0.00    +0.000 A 
ATOM     25  C   UNL     1      -1.176  14.124  23.482  0.00  0.00    +0.000 A 
ENDBRANCH  16  19
ENDBRANCH   6  11
BRANCH   2  26
ATOM     26  C   UNL     1       3.594   3.698  18.835  0.00  0.00    +0.000 C 
ATOM     27  C   UNL     1       3.797   2.834  20.062  0.00  0.00    +0.000 C 
ATOM     28  C   UNL     1       4.174   1.496  19.459  0.00  0.00    +0.000 C 
ATOM     29  O   UNL     1       3.509   1.403  18.196  0.00  0.00    +0.000 OA
ATOM     30  C   UNL     1       2.982   2.697  17.860  0.00  0.00    +0.000 C 
ENDBRANCH   2  26
TORSDOF 3
ENDMDL
MODEL 7
REMARK VINA RESULT:      -8.7      5.422     10.977
REMARK  Name = 
REMARK  3 active torsions:
REMARK  status: ('A' for Active; 'I' for Inactive)
REMARK    1  A    between atoms: C_2  and  C_24
REMARK    2  A    between atoms: C_6  and  C_7
REMARK    3  A    between atoms: N_12  and  C_13
REMARK                            x       y       z     vdW  Elec       q    Type
REMARK                         _______ _______ _______ _____ _____    ______ ____
ROOT
ATOM      1  O   UNL     1      -2.449  12.669  21.911  0.00  0.00    +0.000 OA
ATOM      2  C   UNL     1      -3.120  13.016  20.954  0.00  0.00    +0.000 C 
ATOM      3  N   UNL     1      -2.678  12.965  19.625  0.00  0.00    +0.000 N 
ATOM      4  C   UNL     1      -1.347  12.610  19.339  0.00  0.00    +0.000 A 
ATOM      5  C   UNL     1      -0.883  11.341  19.668  0.00  0.00    +0.000 A 
ATOM      6  C   UNL     1       0.443  10.988  19.366  0.00  0.00    +0.000 A 
ATOM      7  C   UNL     1       1.249  11.971  18.785  0.00  0.00    +0.000 A 
ATOM      8  C   UNL     1       0.698  13.199  18.470  0.00  0.00    +0.000 A 
ATOM      9  N   UNL     1      -0.603  13.517  18.691  0.00  0.00    +0.000 NA
ATOM     10  H   UNL     1      -3.025  13.685  19.012  0.00  0.00    +0.000 HD
ENDROOT
BRANCH   6  11
ATOM     11  C   UNL     1       0.971   9.645  19.670  0.00  0.00    +0.000 A 
ATOM     12  C   UNL     1       0.821   9.064  20.932  0.00  0.00    +0.000 A 
ATOM     13  C   UNL     1       1.363   7.816  21.163  0.00  0.00    +0.000 A 
ATOM     14  N   UNL     1       2.041   7.122  20.234  0.00  0.00    +0.000 NA
ATOM     15  C   UNL     1       2.181   7.651  19.002  0.00  0.00    +0.000 A 
ATOM     16  N   UNL     1       2.766   6.913  17.956  0.00  0.00    +0.000 N 
ATOM     17  C   UNL     1       1.653   8.900  18.699  0.00  0.00    +0.000 A 
ATOM     18  H   UNL     1       3.360   7.472  17.357  0.00  0.00    +0.000 HD
BRANCH  16  19
ATOM     19  C   UNL     1       2.989   5.527  17.892  0.00  0.00    +0.000 A 
ATOM     20  C   UNL     1       4.278   4.974  17.980  0.00  0.00    +0.000 A 
ATOM     21  C   UNL     1       4.486   3.600  17.917  0.00  0.00    +0.000 A 
ATOM     22  C   UNL     1       3.395   2.760  17.797  0.00  0.00    +0.000 A 
ATOM     23  F   UNL     1       3.589   1.437  17.708  0.00  0.00    +0.000 F 
ATOM     24  C   UNL     1       2.102   3.269  17.757  0.00  0.00    +0.000 A 
ATOM     25  C   UNL     1       1.899   4.650  17.815  0.00  0.00    +0.000 A 
ENDBRANCH  16  19
ENDBRANCH   6  11
BRANCH   2  26
ATOM     26  C   UNL     1      -4.504  13.632  21.113  0.00  0.00    +0.000 C 
ATOM     27  C   UNL     1      -5.631  12.638  21.297  0.00  0.00    +0.000 C 
ATOM     28  C   UNL     1      -6.698  13.476  21.969  0.00  0.00    +0.000 C 
ATOM     29  O   UNL     1      -6.024  14.469  22.747  0.00  0.00    +0.000 OA
ATOM     30  C   UNL     1      -4.635  14.473  22.379  0.00  0.00    +0.000 C 
ENDBRANCH   2  26
TORSDOF 3
ENDMDL
MODEL 8
REMARK VINA RESULT:      -8.7      5.509     10.476
REMARK  Name = 
REMARK  3 active torsions:
REMARK  status: ('A' for Active; 'I' for Inactive)
REMARK    1  A    between atoms: C_2  and  C_24
REMARK    2  A    between atoms: C_6  and  C_7
REMARK    3  A    between atoms: N_12  and  C_13
REMARK                            x       y       z     vdW  Elec       q    Type
REMARK                         _______ _______ _______ _____ _____    ______ ____
ROOT
ATOM      1  O   UNL     1      -3.454  11.655  19.955  0.00  0.00    +0.000 OA
ATOM      2  C   UNL     1      -3.661  12.049  18.820  0.00  0.00    +0.000 C 
ATOM      3  N   UNL     1      -2.660  12.233  17.858  0.00  0.00    +0.000 N 
ATOM      4  C   UNL     1      -1.307  12.083  18.212  0.00  0.00    +0.000 A 
ATOM      5  C   UNL     1      -0.837  10.845  18.636  0.00  0.00    +0.000 A 
ATOM      6  C   UNL     1       0.519  10.697  18.975  0.00  0.00    +0.000 A 
ATOM      7  C   UNL     1       1.322  11.840  18.909  0.00  0.00    +0.000 A 
ATOM      8  C   UNL     1       0.776  13.025  18.452  0.00  0.00    +0.000 A 
ATOM      9  N   UNL     1      -0.515  13.152  18.052  0.00  0.00    +0.000 NA
ATOM     10  H   UNL     1      -2.806  12.984  17.201  0.00  0.00    +0.000 HD
ENDROOT
BRANCH   6  11
ATOM     11  C   UNL     1       1.070   9.398  19.403  0.00  0.00    +0.000 A 
ATOM     12  C   UNL     1       0.943   8.944  20.719  0.00  0.00    +0.000 A 
ATOM     13  C   UNL     1       1.506   7.733  21.065  0.00  0.00    +0.000 A 
ATOM     14  N   UNL     1       2.182   6.958  20.201  0.00  0.00    +0.000 NA
ATOM     15  C   UNL     1       2.301   7.364  18.921  0.00  0.00    +0.000 A 
ATOM     16  N   UNL     1       2.885   6.534  17.946  0.00  0.00    +0.000 N 
ATOM     17  C   UNL     1       1.752   8.569  18.502  0.00  0.00    +0.000 A 
ATOM     18  H   UNL     1       3.464   7.037  17.287  0.00  0.00    +0.000 HD
BRANCH  16  19
ATOM     19  C   UNL     1       3.126   5.150  18.017  0.00  0.00    +0.000 A 
ATOM     20  C   UNL     1       4.316   4.628  18.554  0.00  0.00    +0.000 A 
ATOM     21  C   UNL     1       4.543   3.258  18.620  0.00  0.00    +0.000 A 
ATOM     22  C   UNL     1       3.561   2.391  18.177  0.00  0.00    +0.000 A 
ATOM     23  F   UNL     1       3.783   1.070  18.213  0.00  0.00    +0.000 F 
ATOM     24  C   UNL     1       2.353   2.871  17.686  0.00  0.00    +0.000 A 
ATOM     25  C   UNL     1       2.132   4.249  17.617  0.00  0.00    +0.000 A 
ENDBRANCH  16  19
ENDBRANCH   6  11
BRANCH   2  26
ATOM     26  C   UNL     1      -5.047  12.467  18.347  0.00  0.00    +0.000 C 
ATOM     27  C   UNL     1      -6.001  11.325  18.068  0.00  0.00    +0.000 C 
ATOM     28  C   UNL     1      -7.354  11.995  18.185  0.00  0.00    +0.000 C 
ATOM     29  O   UNL     1      -7.218  13.053  19.138  0.00  0.00    +0.000 OA
ATOM     30  C   UNL     1      -5.819  13.255  19.400  0.00  0.00    +0.000 C 
ENDBRANCH   2  26
TORSDOF 3
ENDMDL
MODEL 9
REMARK VINA RESULT:      -8.7      5.287      9.762
REMARK  Name = 
REMARK  3 active torsions:
REMARK  status: ('A' for Active; 'I' for Inactive)
REMARK    1  A    between atoms: C_2  and  C_24
REMARK    2  A    between atoms: C_6  and  C_7
REMARK    3  A    between atoms: N_12  and  C_13
REMARK                            x       y       z     vdW  Elec       q    Type
REMARK                         _______ _______ _______ _____ _____    ______ ____
ROOT
ATOM      1  O   UNL     1       3.202  13.971  18.032  0.00  0.00    +0.000 OA
ATOM      2  C   UNL     1       2.599  14.786  18.710  0.00  0.00    +0.000 C 
ATOM      3  N   UNL     1       1.343  14.552  19.285  0.00  0.00    +0.000 N 
ATOM      4  C   UNL     1       0.644  13.366  18.993  0.00  0.00    +0.000 A 
ATOM      5  C   UNL     1       1.178  12.139  19.370  0.00  0.00    +0.000 A 
ATOM      6  C   UNL     1       0.468  10.959  19.089  0.00  0.00    +0.000 A 
ATOM      7  C   UNL     1      -0.735  11.089  18.389  0.00  0.00    +0.000 A 
ATOM      8  C   UNL     1      -1.203  12.351  18.075  0.00  0.00    +0.000 A 
ATOM      9  N   UNL     1      -0.557  13.497  18.413  0.00  0.00    +0.000 NA
ATOM     10  H   UNL     1       0.733  15.350  19.363  0.00  0.00    +0.000 HD
ENDROOT
BRANCH   6  11
ATOM     11  C   UNL     1       0.980   9.636  19.493  0.00  0.00    +0.000 A 
ATOM     12  C   UNL     1       0.791   9.140  20.786  0.00  0.00    +0.000 A 
ATOM     13  C   UNL     1       1.320   7.908  21.113  0.00  0.00    +0.000 A 
ATOM     14  N   UNL     1       2.018   7.151  20.251  0.00  0.00    +0.000 NA
ATOM     15  C   UNL     1       2.195   7.598  18.992  0.00  0.00    +0.000 A 
ATOM     16  N   UNL     1       2.804   6.791  18.012  0.00  0.00    +0.000 N 
ATOM     17  C   UNL     1       1.683   8.827  18.592  0.00  0.00    +0.000 A 
ATOM     18  H   UNL     1       3.417   7.306  17.395  0.00  0.00    +0.000 HD
BRANCH  16  19
ATOM     19  C   UNL     1       3.019   5.402  18.045  0.00  0.00    +0.000 A 
ATOM     20  C   UNL     1       4.235   4.846  18.481  0.00  0.00    +0.000 A 
ATOM     21  C   UNL     1       4.435   3.470  18.511  0.00  0.00    +0.000 A 
ATOM     22  C   UNL     1       3.404   2.631  18.132  0.00  0.00    +0.000 A 
ATOM     23  F   UNL     1       3.599   1.306  18.132  0.00  0.00    +0.000 F 
ATOM     24  C   UNL     1       2.173   3.144  17.742  0.00  0.00    +0.000 A 
ATOM     25  C   UNL     1       1.978   4.528  17.709  0.00  0.00    +0.000 A 
ENDBRANCH  16  19
ENDBRANCH   6  11
BRANCH   2  26
ATOM     26  C   UNL     1       3.121  16.198  18.936  0.00  0.00    +0.000 C 
ATOM     27  C   UNL     1       3.176  16.636  20.385  0.00  0.00    +0.000 C 
ATOM     28  C   UNL     1       4.202  17.750  20.349  0.00  0.00    +0.000 C 
ATOM     29  O   UNL     1       5.124  17.438  19.300  0.00  0.00    +0.000 OA
ATOM     30  C   UNL     1       4.577  16.366  18.515  0.00  0.00    +0.000 C 
ENDBRANCH   2  26
TORSDOF 3
ENDMDL
