MODEL 1
REMARK VINA RESULT:      -9.6      0.000      0.000
REMARK  Name = 
REMARK  5 active torsions:
REMARK  status: ('A' for Active; 'I' for Inactive)
REMARK    1  A    between atoms: C_2  and  O_3
REMARK    2  A    between atoms: C_2  and  C_13
REMARK    3  A    between atoms: O_3  and  C_4
REMARK    4  A    between atoms: C_4  and  C_5
REMARK    5  A    between atoms: C_4  and  C_9
REMARK                            x       y       z     vdW  Elec       q    Type
REMARK                         _______ _______ _______ _____ _____    ______ ____
ROOT
ATOM      1  C   UNL     1       5.471   4.134  18.241  0.00  0.00    +0.000 A 
ATOM      2  C   UNL     1       5.331   3.671  16.935  0.00  0.00    +0.000 A 
ATOM      3  C   UNL     1       6.130   4.279  15.960  0.00  0.00    +0.000 A 
ATOM      4  C   UNL     1       7.013   5.284  16.349  0.00  0.00    +0.000 A 
ATOM      5  C   UNL     1       7.122   5.698  17.672  0.00  0.00    +0.000 A 
ATOM      6  N   UNL     1       6.340   5.116  18.612  0.00  0.00    +0.000 NA
ATOM      7  N   UNL     1       7.667   5.708  15.216  0.00  0.00    +0.000 N 
ATOM      8  C   UNL     1       7.230   5.017  14.109  0.00  0.00    +0.000 A 
ATOM      9  C   UNL     1       7.611   5.126  12.763  0.00  0.00    +0.000 A 
ATOM     10  C   UNL     1       6.979   4.285  11.842  0.00  0.00    +0.000 A 
ATOM     11  C   UNL     1       6.005   3.375  12.248  0.00  0.00    +0.000 A 
ATOM     12  C   UNL     1       5.639   3.276  13.596  0.00  0.00    +0.000 A 
ATOM     13  C   UNL     1       6.263   4.115  14.543  0.00  0.00    +0.000 A 
ATOM     14  H   UNL     1       8.366   6.436  15.192  0.00  0.00    +0.000 HD
ENDROOT
BRANCH   1  16
ATOM     15  O   UNL     1       4.920   2.588  20.000  0.00  0.00    +0.000 OA
ATOM     16  C   UNL     1       4.594   3.527  19.291  0.00  0.00    +0.000 C 
BRANCH  16  17
ATOM     17  O   UNL     1       3.391   4.137  19.359  0.00  0.00    +0.000 OA
BRANCH  17  18
ATOM     18  C   UNL     1       2.260   3.252  19.612  0.00  0.00    +0.000 C 
BRANCH  18  19
ATOM     19  C   UNL     1       1.390   3.660  20.789  0.00  0.00    +0.000 C 
ATOM     20  F   UNL     1       0.382   4.485  20.409  0.00  0.00    +0.000 F 
ATOM     21  F   UNL     1       0.839   2.656  21.490  0.00  0.00    +0.000 F 
ATOM     22  F   UNL     1       2.133   4.379  21.673  0.00  0.00    +0.000 F 
ENDBRANCH  18  19
BRANCH  18  23
ATOM     23  C   UNL     1       1.452   2.873  18.383  0.00  0.00    +0.000 C 
ATOM     24  F   UNL     1       0.299   2.238  18.722  0.00  0.00    +0.000 F 
ATOM     25  F   UNL     1       1.063   4.004  17.731  0.00  0.00    +0.000 F 
ATOM     26  F   UNL     1       2.073   2.103  17.480  0.00  0.00    +0.000 F 
ENDBRANCH  18  23
ENDBRANCH  17  18
ENDBRANCH  16  17
ENDBRANCH   1  16
TORSDOF 5
ENDMDL
MODEL 2
REMARK VINA RESULT:      -9.6      0.099      1.074
REMARK  Name = 
REMARK  5 active torsions:
REMARK  status: ('A' for Active; 'I' for Inactive)
REMARK    1  A    between atoms: C_2  and  O_3
REMARK    2  A    between atoms: C_2  and  C_13
REMARK    3  A    between atoms: O_3  and  C_4
REMARK    4  A    between atoms: C_4  and  C_5
REMARK    5  A    between atoms: C_4  and  C_9
REMARK                            x       y       z     vdW  Elec       q    Type
REMARK                         _______ _______ _______ _____ _____    ______ ____
ROOT
ATOM      1  C   UNL     1       5.503   4.075  18.241  0.00  0.00    +0.000 A 
ATOM      2  C   UNL     1       5.320   3.652  16.928  0.00  0.00    +0.000 A 
ATOM      3  C   UNL     1       6.136   4.239  15.954  0.00  0.00    +0.000 A 
ATOM      4  C   UNL     1       7.077   5.186  16.353  0.00  0.00    +0.000 A 
ATOM      5  C   UNL     1       7.227   5.562  17.683  0.00  0.00    +0.000 A 
ATOM      6  N   UNL     1       6.429   5.001  18.621  0.00  0.00    +0.000 NA
ATOM      7  N   UNL     1       7.737   5.601  15.219  0.00  0.00    +0.000 N 
ATOM      8  C   UNL     1       7.248   4.961  14.104  0.00  0.00    +0.000 A 
ATOM      9  C   UNL     1       7.615   5.081  12.755  0.00  0.00    +0.000 A 
ATOM     10  C   UNL     1       6.926   4.298  11.825  0.00  0.00    +0.000 A 
ATOM     11  C   UNL     1       5.910   3.432  12.225  0.00  0.00    +0.000 A 
ATOM     12  C   UNL     1       5.559   3.320  13.575  0.00  0.00    +0.000 A 
ATOM     13  C   UNL     1       6.240   4.102  14.532  0.00  0.00    +0.000 A 
ATOM     14  H   UNL     1       8.474   6.291  15.201  0.00  0.00    +0.000 HD
ENDROOT
BRANCH   1  16
ATOM     15  O   UNL     1       4.902   2.530  19.984  0.00  0.00    +0.000 OA
ATOM     16  C   UNL     1       4.610   3.491  19.290  0.00  0.00    +0.000 C 
BRANCH  16  17
ATOM     17  O   UNL     1       3.434   4.151  19.377  0.00  0.00    +0.000 OA
BRANCH  17  18
ATOM     18  C   UNL     1       2.264   3.306  19.587  0.00  0.00    +0.000 C 
BRANCH  18  19
ATOM     19  C   UNL     1       1.405   3.701  20.776  0.00  0.00    +0.000 C 
ATOM     20  F   UNL     1       2.129   4.329  21.736  0.00  0.00    +0.000 F 
ATOM     21  F   UNL     1       0.346   4.481  20.505  0.00  0.00    +0.000 F 
ATOM     22  F   UNL     1       0.911   2.580  21.369  0.00  0.00    +0.000 F 
ENDBRANCH  18  19
BRANCH  18  23
ATOM     23  C   UNL     1       1.447   3.016  18.339  0.00  0.00    +0.000 C 
ATOM     24  F   UNL     1       2.139   2.245  17.459  0.00  0.00    +0.000 F 
ATOM     25  F   UNL     1       0.350   2.281  18.678  0.00  0.00    +0.000 F 
ATOM     26  F   UNL     1       1.001   4.082  17.662  0.00  0.00    +0.000 F 
ENDBRANCH  18  23
ENDBRANCH  17  18
ENDBRANCH  16  17
ENDBRANCH   1  16
TORSDOF 5
ENDMDL
MODEL 3
REMARK VINA RESULT:      -9.2      1.001      2.310
REMARK  Name = 
REMARK  5 active torsions:
REMARK  status: ('A' for Active; 'I' for Inactive)
REMARK    1  A    between atoms: C_2  and  O_3
REMARK    2  A    between atoms: C_2  and  C_13
REMARK    3  A    between atoms: O_3  and  C_4
REMARK    4  A    between atoms: C_4  and  C_5
REMARK    5  A    between atoms: C_4  and  C_9
REMARK                            x       y       z     vdW  Elec       q    Type
REMARK                         _______ _______ _______ _____ _____    ______ ____
ROOT
ATOM      1  C   UNL     1       4.841   5.289  17.897  0.00  0.00    +0.000 A 
ATOM      2  C   UNL     1       4.682   4.662  16.665  0.00  0.00    +0.000 A 
ATOM      3  C   UNL     1       5.708   4.834  15.729  0.00  0.00    +0.000 A 
ATOM      4  C   UNL     1       6.817   5.598  16.087  0.00  0.00    +0.000 A 
ATOM      5  C   UNL     1       6.932   6.191  17.339  0.00  0.00    +0.000 A 
ATOM      6  N   UNL     1       5.932   6.033  18.238  0.00  0.00    +0.000 NA
ATOM      7  N   UNL     1       7.664   5.610  15.003  0.00  0.00    +0.000 N 
ATOM      8  C   UNL     1       7.136   4.888  13.958  0.00  0.00    +0.000 A 
ATOM      9  C   UNL     1       7.647   4.644  12.674  0.00  0.00    +0.000 A 
ATOM     10  C   UNL     1       6.872   3.869  11.807  0.00  0.00    +0.000 A 
ATOM     11  C   UNL     1       5.637   3.362  12.202  0.00  0.00    +0.000 A 
ATOM     12  C   UNL     1       5.143   3.611  13.489  0.00  0.00    +0.000 A 
ATOM     13  C   UNL     1       5.907   4.391  14.382  0.00  0.00    +0.000 A 
ATOM     14  H   UNL     1       8.551   6.092  14.970  0.00  0.00    +0.000 HD
ENDROOT
BRANCH   1  16
ATOM     15  O   UNL     1       3.028   6.077  19.268  0.00  0.00    +0.000 OA
ATOM     16  C   UNL     1       3.735   5.153  18.895  0.00  0.00    +0.000 C 
BRANCH  16  17
ATOM     17  O   UNL     1       3.611   3.885  19.344  0.00  0.00    +0.000 OA
BRANCH  17  18
ATOM     18  C   UNL     1       2.260   3.491  19.724  0.00  0.00    +0.000 C 
BRANCH  18  19
ATOM     19  C   UNL     1       1.638   2.428  18.834  0.00  0.00    +0.000 C 
ATOM     20  F   UNL     1       0.283   2.486  18.849  0.00  0.00    +0.000 F 
ATOM     21  F   UNL     1       2.023   2.438  17.548  0.00  0.00    +0.000 F 
ATOM     22  F   UNL     1       1.953   1.194  19.316  0.00  0.00    +0.000 F 
ENDBRANCH  18  19
BRANCH  18  23
ATOM     23  C   UNL     1       2.063   3.210  21.205  0.00  0.00    +0.000 C 
ATOM     24  F   UNL     1       3.012   2.362  21.681  0.00  0.00    +0.000 F 
ATOM     25  F   UNL     1       2.225   4.366  21.909  0.00  0.00    +0.000 F 
ATOM     26  F   UNL     1       0.873   2.707  21.559  0.00  0.00    +0.000 F 
ENDBRANCH  18  23
ENDBRANCH  17  18
ENDBRANCH  16  17
ENDBRANCH   1  16
TORSDOF 5
ENDMDL
MODEL 4
REMARK VINA RESULT:      -9.1      0.981      2.327
REMARK  Name = 
REMARK  5 active torsions:
REMARK  status: ('A' for Active; 'I' for Inactive)
REMARK    1  A    between atoms: C_2  and  O_3
REMARK    2  A    between atoms: C_2  and  C_13
REMARK    3  A    between atoms: O_3  and  C_4
REMARK    4  A    between atoms: C_4  and  C_5
REMARK    5  A    between atoms: C_4  and  C_9
REMARK                            x       y       z     vdW  Elec       q    Type
REMARK                         _______ _______ _______ _____ _____    ______ ____
ROOT
ATOM      1  C   UNL     1       4.923   5.235  17.907  0.00  0.00    +0.000 A 
ATOM      2  C   UNL     1       4.733   4.616  16.675  0.00  0.00    +0.000 A 
ATOM      3  C   UNL     1       5.740   4.787  15.718  0.00  0.00    +0.000 A 
ATOM      4  C   UNL     1       6.860   5.542  16.055  0.00  0.00    +0.000 A 
ATOM      5  C   UNL     1       7.006   6.127  17.308  0.00  0.00    +0.000 A 
ATOM      6  N   UNL     1       6.025   5.970  18.228  0.00  0.00    +0.000 NA
ATOM      7  N   UNL     1       7.684   5.555  14.954  0.00  0.00    +0.000 N 
ATOM      8  C   UNL     1       7.129   4.842  13.916  0.00  0.00    +0.000 A 
ATOM      9  C   UNL     1       7.611   4.602  12.620  0.00  0.00    +0.000 A 
ATOM     10  C   UNL     1       6.813   3.837  11.766  0.00  0.00    +0.000 A 
ATOM     11  C   UNL     1       5.583   3.334  12.186  0.00  0.00    +0.000 A 
ATOM     12  C   UNL     1       5.119   3.579  13.484  0.00  0.00    +0.000 A 
ATOM     13  C   UNL     1       5.907   4.350  14.364  0.00  0.00    +0.000 A 
ATOM     14  H   UNL     1       8.573   6.033  14.904  0.00  0.00    +0.000 HD
ENDROOT
BRANCH   1  16
ATOM     15  O   UNL     1       3.176   6.033  19.356  0.00  0.00    +0.000 OA
ATOM     16  C   UNL     1       3.837   5.100  18.928  0.00  0.00    +0.000 C 
BRANCH  16  17
ATOM     17  O   UNL     1       3.677   3.820  19.329  0.00  0.00    +0.000 OA
BRANCH  17  18
ATOM     18  C   UNL     1       2.323   3.465  19.742  0.00  0.00    +0.000 C 
BRANCH  18  19
ATOM     19  C   UNL     1       1.657   2.407  18.878  0.00  0.00    +0.000 C 
ATOM     20  F   UNL     1       1.877   1.155  19.352  0.00  0.00    +0.000 F 
ATOM     21  F   UNL     1       0.333   2.538  18.702  0.00  0.00    +0.000 F 
ATOM     22  F   UNL     1       2.210   2.425  17.634  0.00  0.00    +0.000 F 
ENDBRANCH  18  19
BRANCH  18  23
ATOM     23  C   UNL     1       2.150   3.208  21.229  0.00  0.00    +0.000 C 
ATOM     24  F   UNL     1       2.303   4.348  21.952  0.00  0.00    +0.000 F 
ATOM     25  F   UNL     1       0.874   2.794  21.470  0.00  0.00    +0.000 F 
ATOM     26  F   UNL     1       2.961   2.288  21.769  0.00  0.00    +0.000 F 
ENDBRANCH  18  23
ENDBRANCH  17  18
ENDBRANCH  16  17
ENDBRANCH   1  16
TORSDOF 5
ENDMDL
MODEL 5
REMARK VINA RESULT:      -9.1      0.695      1.466
REMARK  Name = 
REMARK  5 active torsions:
REMARK  status: ('A' for Active; 'I' for Inactive)
REMARK    1  A    between atoms: C_2  and  O_3
REMARK    2  A    between atoms: C_2  and  C_13
REMARK    3  A    between atoms: O_3  and  C_4
REMARK    4  A    between atoms: C_4  and  C_5
REMARK    5  A    between atoms: C_4  and  C_9
REMARK                            x       y       z     vdW  Elec       q    Type
REMARK                         _______ _______ _______ _____ _____    ______ ____
ROOT
ATOM      1  C   UNL     1       5.492   4.074  18.434  0.00  0.00    +0.000 A 
ATOM      2  C   UNL     1       5.372   3.635  17.119  0.00  0.00    +0.000 A 
ATOM      3  C   UNL     1       6.159   4.284  16.160  0.00  0.00    +0.000 A 
ATOM      4  C   UNL     1       7.011   5.304  16.575  0.00  0.00    +0.000 A 
ATOM      5  C   UNL     1       7.103   5.693  17.906  0.00  0.00    +0.000 A 
ATOM      6  N   UNL     1       6.332   5.072  18.830  0.00  0.00    +0.000 NA
ATOM      7  N   UNL     1       7.659   5.768  15.454  0.00  0.00    +0.000 N 
ATOM      8  C   UNL     1       7.247   5.089  14.331  0.00  0.00    +0.000 A 
ATOM      9  C   UNL     1       7.632   5.236  12.989  0.00  0.00    +0.000 A 
ATOM     10  C   UNL     1       7.028   4.398  12.049  0.00  0.00    +0.000 A 
ATOM     11  C   UNL     1       6.076   3.454  12.430  0.00  0.00    +0.000 A 
ATOM     12  C   UNL     1       5.707   3.317  13.773  0.00  0.00    +0.000 A 
ATOM     13  C   UNL     1       6.303   4.153  14.741  0.00  0.00    +0.000 A 
ATOM     14  H   UNL     1       8.339   6.516  15.449  0.00  0.00    +0.000 HD
ENDROOT
BRANCH   1  16
ATOM     15  O   UNL     1       4.930   2.409  20.077  0.00  0.00    +0.000 OA
ATOM     16  C   UNL     1       4.627   3.422  19.467  0.00  0.00    +0.000 C 
BRANCH  16  17
ATOM     17  O   UNL     1       3.463   4.084  19.641  0.00  0.00    +0.000 OA
BRANCH  17  18
ATOM     18  C   UNL     1       2.304   3.482  18.991  0.00  0.00    +0.000 C 
BRANCH  18  19
ATOM     19  C   UNL     1       1.114   3.253  19.907  0.00  0.00    +0.000 C 
ATOM     20  F   UNL     1       1.458   2.546  21.013  0.00  0.00    +0.000 F 
ATOM     21  F   UNL     1       0.471   4.355  20.324  0.00  0.00    +0.000 F 
ATOM     22  F   UNL     1       0.188   2.492  19.264  0.00  0.00    +0.000 F 
ENDBRANCH  18  19
BRANCH  18  23
ATOM     23  C   UNL     1       1.914   4.108  17.662  0.00  0.00    +0.000 C 
ATOM     24  F   UNL     1       2.557   5.288  17.460  0.00  0.00    +0.000 F 
ATOM     25  F   UNL     1       2.317   3.296  16.644  0.00  0.00    +0.000 F 
ATOM     26  F   UNL     1       0.607   4.336  17.477  0.00  0.00    +0.000 F 
ENDBRANCH  18  23
ENDBRANCH  17  18
ENDBRANCH  16  17
ENDBRANCH   1  16
TORSDOF 5
ENDMDL
MODEL 6
REMARK VINA RESULT:      -8.9      0.687      1.237
REMARK  Name = 
REMARK  5 active torsions:
REMARK  status: ('A' for Active; 'I' for Inactive)
REMARK    1  A    between atoms: C_2  and  O_3
REMARK    2  A    between atoms: C_2  and  C_13
REMARK    3  A    between atoms: O_3  and  C_4
REMARK    4  A    between atoms: C_4  and  C_5
REMARK    5  A    between atoms: C_4  and  C_9
REMARK                            x       y       z     vdW  Elec       q    Type
REMARK                         _______ _______ _______ _____ _____    ______ ____
ROOT
ATOM      1  C   UNL     1       4.782   5.062  18.044  0.00  0.00    +0.000 A 
ATOM      2  C   UNL     1       4.620   4.496  16.783  0.00  0.00    +0.000 A 
ATOM      3  C   UNL     1       5.649   4.707  15.857  0.00  0.00    +0.000 A 
ATOM      4  C   UNL     1       6.761   5.446  16.252  0.00  0.00    +0.000 A 
ATOM      5  C   UNL     1       6.878   5.978  17.531  0.00  0.00    +0.000 A 
ATOM      6  N   UNL     1       5.877   5.782  18.421  0.00  0.00    +0.000 NA
ATOM      7  N   UNL     1       7.610   5.505  15.171  0.00  0.00    +0.000 N 
ATOM      8  C   UNL     1       7.079   4.837  14.092  0.00  0.00    +0.000 A 
ATOM      9  C   UNL     1       7.589   4.651  12.798  0.00  0.00    +0.000 A 
ATOM     10  C   UNL     1       6.811   3.924  11.894  0.00  0.00    +0.000 A 
ATOM     11  C   UNL     1       5.572   3.405  12.264  0.00  0.00    +0.000 A 
ATOM     12  C   UNL     1       5.078   3.595  13.561  0.00  0.00    +0.000 A 
ATOM     13  C   UNL     1       5.846   4.327  14.491  0.00  0.00    +0.000 A 
ATOM     14  H   UNL     1       8.500   5.983  15.161  0.00  0.00    +0.000 HD
ENDROOT
BRANCH   1  16
ATOM     15  O   UNL     1       2.865   5.754  19.323  0.00  0.00    +0.000 OA
ATOM     16  C   UNL     1       3.674   4.885  19.033  0.00  0.00    +0.000 C 
BRANCH  16  17
ATOM     17  O   UNL     1       3.675   3.650  19.578  0.00  0.00    +0.000 OA
BRANCH  17  18
ATOM     18  C   UNL     1       2.366   3.014  19.678  0.00  0.00    +0.000 C 
BRANCH  18  19
ATOM     19  C   UNL     1       1.516   3.500  20.840  0.00  0.00    +0.000 C 
ATOM     20  F   UNL     1       0.624   4.446  20.453  0.00  0.00    +0.000 F 
ATOM     21  F   UNL     1       0.830   2.555  21.503  0.00  0.00    +0.000 F 
ATOM     22  F   UNL     1       2.313   4.108  21.760  0.00  0.00    +0.000 F 
ENDBRANCH  18  19
BRANCH  18  23
ATOM     23  C   UNL     1       1.590   2.929  18.374  0.00  0.00    +0.000 C 
ATOM     24  F   UNL     1       2.290   2.259  17.421  0.00  0.00    +0.000 F 
ATOM     25  F   UNL     1       0.456   2.199  18.570  0.00  0.00    +0.000 F 
ATOM     26  F   UNL     1       1.208   4.094  17.835  0.00  0.00    +0.000 F 
ENDBRANCH  18  23
ENDBRANCH  17  18
ENDBRANCH  16  17
ENDBRANCH   1  16
TORSDOF 5
ENDMDL
MODEL 7
REMARK VINA RESULT:      -8.9      1.294      1.822
REMARK  Name = 
REMARK  5 active torsions:
REMARK  status: ('A' for Active; 'I' for Inactive)
REMARK    1  A    between atoms: C_2  and  O_3
REMARK    2  A    between atoms: C_2  and  C_13
REMARK    3  A    between atoms: O_3  and  C_4
REMARK    4  A    between atoms: C_4  and  C_5
REMARK    5  A    between atoms: C_4  and  C_9
REMARK                            x       y       z     vdW  Elec       q    Type
REMARK                         _______ _______ _______ _____ _____    ______ ____
ROOT
ATOM      1  C   UNL     1       4.586   5.460  17.803  0.00  0.00    +0.000 A 
ATOM      2  C   UNL     1       4.457   4.823  16.572  0.00  0.00    +0.000 A 
ATOM      3  C   UNL     1       5.549   4.904  15.700  0.00  0.00    +0.000 A 
ATOM      4  C   UNL     1       6.685   5.595  16.114  0.00  0.00    +0.000 A 
ATOM      5  C   UNL     1       6.766   6.202  17.362  0.00  0.00    +0.000 A 
ATOM      6  N   UNL     1       5.704   6.132  18.200  0.00  0.00    +0.000 NA
ATOM      7  N   UNL     1       7.595   5.526  15.085  0.00  0.00    +0.000 N 
ATOM      8  C   UNL     1       7.082   4.824  14.020  0.00  0.00    +0.000 A 
ATOM      9  C   UNL     1       7.651   4.519  12.774  0.00  0.00    +0.000 A 
ATOM     10  C   UNL     1       6.877   3.785  11.872  0.00  0.00    +0.000 A 
ATOM     11  C   UNL     1       5.587   3.373  12.198  0.00  0.00    +0.000 A 
ATOM     12  C   UNL     1       5.035   3.681  13.447  0.00  0.00    +0.000 A 
ATOM     13  C   UNL     1       5.797   4.422  14.374  0.00  0.00    +0.000 A 
ATOM     14  H   UNL     1       8.515   5.944  15.100  0.00  0.00    +0.000 HD
ENDROOT
BRANCH   1  16
ATOM     15  O   UNL     1       3.288   6.141  19.711  0.00  0.00    +0.000 OA
ATOM     16  C   UNL     1       3.414   5.422  18.732  0.00  0.00    +0.000 C 
BRANCH  16  17
ATOM     17  O   UNL     1       2.508   4.489  18.365  0.00  0.00    +0.000 OA
BRANCH  17  18
ATOM     18  C   UNL     1       2.368   3.365  19.283  0.00  0.00    +0.000 C 
BRANCH  18  19
ATOM     19  C   UNL     1       1.087   3.374  20.101  0.00  0.00    +0.000 C 
ATOM     20  F   UNL     1       1.212   2.651  21.242  0.00  0.00    +0.000 F 
ATOM     21  F   UNL     1       0.617   4.583  20.446  0.00  0.00    +0.000 F 
ATOM     22  F   UNL     1       0.096   2.767  19.394  0.00  0.00    +0.000 F 
ENDBRANCH  18  19
BRANCH  18  23
ATOM     23  C   UNL     1       2.678   2.003  18.687  0.00  0.00    +0.000 C 
ATOM     24  F   UNL     1       2.441   1.980  17.349  0.00  0.00    +0.000 F 
ATOM     25  F   UNL     1       4.009   1.742  18.823  0.00  0.00    +0.000 F 
ATOM     26  F   UNL     1       2.026   0.961  19.219  0.00  0.00    +0.000 F 
ENDBRANCH  18  23
ENDBRANCH  17  18
ENDBRANCH  16  17
ENDBRANCH   1  16
TORSDOF 5
ENDMDL
MODEL 8
REMARK VINA RESULT:      -8.9      1.336      2.347
REMARK  Name = 
REMARK  5 active torsions:
REMARK  status: ('A' for Active; 'I' for Inactive)
REMARK    1  A    between atoms: C_2  and  O_3
REMARK    2  A    between atoms: C_2  and  C_13
REMARK    3  A    between atoms: O_3  and  C_4
REMARK    4  A    between atoms: C_4  and  C_5
REMARK    5  A    between atoms: C_4  and  C_9
REMARK                            x       y       z     vdW  Elec       q    Type
REMARK                         _______ _______ _______ _____ _____    ______ ____
ROOT
ATOM      1  C   UNL     1       5.357   3.908  18.174  0.00  0.00    +0.000 A 
ATOM      2  C   UNL     1       5.206   3.544  16.839  0.00  0.00    +0.000 A 
ATOM      3  C   UNL     1       6.066   4.150  15.916  0.00  0.00    +0.000 A 
ATOM      4  C   UNL     1       7.016   5.055  16.383  0.00  0.00    +0.000 A 
ATOM      5  C   UNL     1       7.134   5.372  17.732  0.00  0.00    +0.000 A 
ATOM      6  N   UNL     1       6.293   4.793  18.621  0.00  0.00    +0.000 NA
ATOM      7  N   UNL     1       7.721   5.501  15.289  0.00  0.00    +0.000 N 
ATOM      8  C   UNL     1       7.253   4.920  14.133  0.00  0.00    +0.000 A 
ATOM      9  C   UNL     1       7.665   5.087  12.802  0.00  0.00    +0.000 A 
ATOM     10  C   UNL     1       6.987   4.361  11.819  0.00  0.00    +0.000 A 
ATOM     11  C   UNL     1       5.938   3.505  12.151  0.00  0.00    +0.000 A 
ATOM     12  C   UNL     1       5.542   3.346  13.484  0.00  0.00    +0.000 A 
ATOM     13  C   UNL     1       6.211   4.070  14.494  0.00  0.00    +0.000 A 
ATOM     14  H   UNL     1       8.475   6.172  15.323  0.00  0.00    +0.000 HD
ENDROOT
BRANCH   1  16
ATOM     15  O   UNL     1       4.762   2.567  20.081  0.00  0.00    +0.000 OA
ATOM     16  C   UNL     1       4.418   3.304  19.170  0.00  0.00    +0.000 C 
BRANCH  16  17
ATOM     17  O   UNL     1       3.137   3.663  18.939  0.00  0.00    +0.000 OA
BRANCH  17  18
ATOM     18  C   UNL     1       2.765   4.985  19.432  0.00  0.00    +0.000 C 
BRANCH  18  19
ATOM     19  C   UNL     1       2.370   5.975  18.348  0.00  0.00    +0.000 C 
ATOM     20  F   UNL     1       1.377   5.491  17.561  0.00  0.00    +0.000 F 
ATOM     21  F   UNL     1       1.986   7.189  18.771  0.00  0.00    +0.000 F 
ATOM     22  F   UNL     1       3.427   6.178  17.515  0.00  0.00    +0.000 F 
ENDBRANCH  18  19
BRANCH  18  23
ATOM     23  C   UNL     1       1.807   4.988  20.611  0.00  0.00    +0.000 C 
ATOM     24  F   UNL     1       2.347   4.364  21.691  0.00  0.00    +0.000 F 
ATOM     25  F   UNL     1       1.583   6.272  21.009  0.00  0.00    +0.000 F 
ATOM     26  F   UNL     1       0.605   4.436  20.398  0.00  0.00    +0.000 F 
ENDBRANCH  18  23
ENDBRANCH  17  18
ENDBRANCH  16  17
ENDBRANCH   1  16
TORSDOF 5
ENDMDL
MODEL 9
REMARK VINA RESULT:      -8.9      1.249      1.518
REMARK  Name = 
REMARK  5 active torsions:
REMARK  status: ('A' for Active; 'I' for Inactive)
REMARK    1  A    between atoms: C_2  and  O_3
REMARK    2  A    between atoms: C_2  and  C_13
REMARK    3  A    between atoms: O_3  and  C_4
REMARK    4  A    between atoms: C_4  and  C_5
REMARK    5  A    between atoms: C_4  and  C_9
REMARK                            x       y       z     vdW  Elec       q    Type
REMARK                         _______ _______ _______ _____ _____    ______ ____
ROOT
ATOM      1  C   UNL     1       4.702   5.395  17.864  0.00  0.00    +0.000 A 
ATOM      2  C   UNL     1       4.550   4.767  16.632  0.00  0.00    +0.000 A 
ATOM      3  C   UNL     1       5.615   4.874  15.731  0.00  0.00    +0.000 A 
ATOM      4  C   UNL     1       6.752   5.578  16.120  0.00  0.00    +0.000 A 
ATOM      5  C   UNL     1       6.857   6.176  17.371  0.00  0.00    +0.000 A 
ATOM      6  N   UNL     1       5.820   6.081  18.237  0.00  0.00    +0.000 NA
ATOM      7  N   UNL     1       7.635   5.534  15.066  0.00  0.00    +0.000 N 
ATOM      8  C   UNL     1       7.103   4.833  14.009  0.00  0.00    +0.000 A 
ATOM      9  C   UNL     1       7.643   4.549  12.745  0.00  0.00    +0.000 A 
ATOM     10  C   UNL     1       6.856   3.811  11.857  0.00  0.00    +0.000 A 
ATOM     11  C   UNL     1       5.581   3.375  12.214  0.00  0.00    +0.000 A 
ATOM     12  C   UNL     1       5.059   3.663  13.481  0.00  0.00    +0.000 A 
ATOM     13  C   UNL     1       5.835   4.408  14.394  0.00  0.00    +0.000 A 
ATOM     14  H   UNL     1       8.547   5.967  15.060  0.00  0.00    +0.000 HD
ENDROOT
BRANCH   1  16
ATOM     15  O   UNL     1       3.495   5.964  19.866  0.00  0.00    +0.000 OA
ATOM     16  C   UNL     1       3.557   5.330  18.825  0.00  0.00    +0.000 C 
BRANCH  16  17
ATOM     17  O   UNL     1       2.596   4.477  18.408  0.00  0.00    +0.000 OA
BRANCH  17  18
ATOM     18  C   UNL     1       2.403   3.300  19.248  0.00  0.00    +0.000 C 
BRANCH  18  19
ATOM     19  C   UNL     1       1.067   3.252  19.971  0.00  0.00    +0.000 C 
ATOM     20  F   UNL     1       0.094   2.710  19.197  0.00  0.00    +0.000 F 
ATOM     21  F   UNL     1       1.055   2.598  21.143  0.00  0.00    +0.000 F 
ATOM     22  F   UNL     1       0.653   4.521  20.239  0.00  0.00    +0.000 F 
ENDBRANCH  18  19
BRANCH  18  23
ATOM     23  C   UNL     1       2.770   1.977  18.598  0.00  0.00    +0.000 C 
ATOM     24  F   UNL     1       2.161   0.932  19.217  0.00  0.00    +0.000 F 
ATOM     25  F   UNL     1       2.307   1.959  17.317  0.00  0.00    +0.000 F 
ATOM     26  F   UNL     1       4.078   1.689  18.538  0.00  0.00    +0.000 F 
ENDBRANCH  18  23
ENDBRANCH  17  18
ENDBRANCH  16  17
ENDBRANCH   1  16
TORSDOF 5
ENDMDL
