MODEL 1
REMARK VINA RESULT:      -7.7      0.000      0.000
REMARK  Name = 
REMARK  5 active torsions:
REMARK  status: ('A' for Active; 'I' for Inactive)
REMARK    1  A    between atoms: C_1  and  C_2
REMARK    2  A    between atoms: C_2  and  C_3
REMARK    3  A    between atoms: C_2  and  S_4
REMARK    4  A    between atoms: S_4  and  C_5
REMARK    5  A    between atoms: C_10  and  C_11
REMARK                            x       y       z     vdW  Elec       q    Type
REMARK                         _______ _______ _______ _____ _____    ______ ____
ROOT
ATOM      1  C   UNL     1       2.195   7.480  18.973  0.00  0.00    +0.000 C 
ATOM      2  O   UNL     1       2.309   7.909  17.810  0.00  0.00    +0.000 OA
ATOM      3  N   UNL     1       2.944   6.309  19.296  0.00  0.00    +0.000 N 
ATOM      4  C   UNL     1       4.174   6.280  18.478  0.00  0.00    +0.000 C 
ATOM      5  C   UNL     1       5.120   5.265  19.043  0.00  0.00    +0.000 C 
ATOM      6  O   UNL     1       6.110   5.533  19.722  0.00  0.00    +0.000 OA
ATOM      7  N   UNL     1       4.638   3.991  18.862  0.00  0.00    +0.000 N 
ATOM      8  C   UNL     1       3.325   3.827  19.355  0.00  0.00    +0.000 A 
ATOM      9  C   UNL     1       2.981   2.485  19.597  0.00  0.00    +0.000 A 
ATOM     10  C   UNL     1       1.785   2.222  20.236  0.00  0.00    +0.000 A 
ATOM     11  C   UNL     1       0.938   3.280  20.562  0.00  0.00    +0.000 A 
ATOM     12  C   UNL     1       1.239   4.629  20.218  0.00  0.00    +0.000 A 
ATOM     13  C   UNL     1       2.465   4.947  19.639  0.00  0.00    +0.000 A 
ATOM     14  H   UNL     1       4.674   3.678  17.892  0.00  0.00    +0.000 HD
ENDROOT
BRANCH   1  20
ATOM     15  C   UNL     1       0.733   9.587  19.632  0.00  0.00    +0.000 A 
ATOM     16  C   UNL     1       0.255  10.416  20.680  0.00  0.00    +0.000 A 
ATOM     17  C   UNL     1       0.461  10.105  22.023  0.00  0.00    +0.000 A 
ATOM     18  C   UNL     1       1.140   8.946  22.341  0.00  0.00    +0.000 A 
ATOM     19  C   UNL     1       1.671   8.160  21.307  0.00  0.00    +0.000 A 
ATOM     20  C   UNL     1       1.538   8.470  19.918  0.00  0.00    +0.000 A 
BRANCH  15  21
ATOM     21  S   UNL     1       0.169  10.027  18.017  0.00  0.00    +0.000 S 
BRANCH  21  23
ATOM     22  C   UNL     1      -1.557  12.041  18.000  0.00  0.00    +0.000 C 
ATOM     23  C   UNL     1      -1.543  10.566  18.380  0.00  0.00    +0.000 C 
ATOM     24  C   UNL     1      -2.650   9.820  17.637  0.00  0.00    +0.000 C 
ENDBRANCH  21  23
ENDBRANCH  15  21
ENDBRANCH   1  20
TORSDOF 3
ENDMDL
MODEL 2
REMARK VINA RESULT:      -7.5      1.293      1.359
REMARK  Name = 
REMARK  5 active torsions:
REMARK  status: ('A' for Active; 'I' for Inactive)
REMARK    1  A    between atoms: C_1  and  C_2
REMARK    2  A    between atoms: C_2  and  C_3
REMARK    3  A    between atoms: C_2  and  S_4
REMARK    4  A    between atoms: S_4  and  C_5
REMARK    5  A    between atoms: C_10  and  C_11
REMARK                            x       y       z     vdW  Elec       q    Type
REMARK                         _______ _______ _______ _____ _____    ______ ____
ROOT
ATOM      1  C   UNL     1       2.335   7.872  18.175  0.00  0.00    +0.000 C 
ATOM      2  O   UNL     1       2.444   8.637  17.199  0.00  0.00    +0.000 OA
ATOM      3  N   UNL     1       3.164   6.711  18.171  0.00  0.00    +0.000 N 
ATOM      4  C   UNL     1       4.413   7.011  17.440  0.00  0.00    +0.000 C 
ATOM      5  C   UNL     1       5.421   5.938  17.722  0.00  0.00    +0.000 C 
ATOM      6  O   UNL     1       6.369   6.056  18.495  0.00  0.00    +0.000 OA
ATOM      7  N   UNL     1       5.044   4.748  17.147  0.00  0.00    +0.000 N 
ATOM      8  C   UNL     1       3.735   4.357  17.507  0.00  0.00    +0.000 A 
ATOM      9  C   UNL     1       3.491   2.985  17.322  0.00  0.00    +0.000 A 
ATOM     10  C   UNL     1       2.303   2.463  17.796  0.00  0.00    +0.000 A 
ATOM     11  C   UNL     1       1.369   3.315  18.382  0.00  0.00    +0.000 A 
ATOM     12  C   UNL     1       1.572   4.721  18.469  0.00  0.00    +0.000 A 
ATOM     13  C   UNL     1       2.784   5.279  18.070  0.00  0.00    +0.000 A 
ATOM     14  H   UNL     1       5.129   4.744  16.131  0.00  0.00    +0.000 HD
ENDROOT
BRANCH   1  20
ATOM     15  C   UNL     1       0.611   9.506  19.346  0.00  0.00    +0.000 A 
ATOM     16  C   UNL     1       0.060   9.968  20.569  0.00  0.00    +0.000 A 
ATOM     17  C   UNL     1       0.361   9.368  21.791  0.00  0.00    +0.000 A 
ATOM     18  C   UNL     1       1.213   8.282  21.806  0.00  0.00    +0.000 A 
ATOM     19  C   UNL     1       1.811   7.865  20.607  0.00  0.00    +0.000 A 
ATOM     20  C   UNL     1       1.579   8.487  19.340  0.00  0.00    +0.000 A 
BRANCH  15  21
ATOM     21  S   UNL     1      -0.075  10.243  17.894  0.00  0.00    +0.000 S 
BRANCH  21  23
ATOM     22  C   UNL     1      -2.014  12.012  18.276  0.00  0.00    +0.000 C 
ATOM     23  C   UNL     1      -1.808  10.510  18.423  0.00  0.00    +0.000 C 
ATOM     24  C   UNL     1      -2.872   9.753  17.631  0.00  0.00    +0.000 C 
ENDBRANCH  21  23
ENDBRANCH  15  21
ENDBRANCH   1  20
TORSDOF 3
ENDMDL
MODEL 3
REMARK VINA RESULT:      -7.5      1.437      1.689
REMARK  Name = 
REMARK  5 active torsions:
REMARK  status: ('A' for Active; 'I' for Inactive)
REMARK    1  A    between atoms: C_1  and  C_2
REMARK    2  A    between atoms: C_2  and  C_3
REMARK    3  A    between atoms: C_2  and  S_4
REMARK    4  A    between atoms: S_4  and  C_5
REMARK    5  A    between atoms: C_10  and  C_11
REMARK                            x       y       z     vdW  Elec       q    Type
REMARK                         _______ _______ _______ _____ _____    ______ ____
ROOT
ATOM      1  C   UNL     1       2.681   7.223  18.635  0.00  0.00    +0.000 C 
ATOM      2  O   UNL     1       3.033   7.872  17.632  0.00  0.00    +0.000 OA
ATOM      3  N   UNL     1       3.340   5.977  18.851  0.00  0.00    +0.000 N 
ATOM      4  C   UNL     1       4.711   6.053  18.303  0.00  0.00    +0.000 C 
ATOM      5  C   UNL     1       5.515   4.899  18.822  0.00  0.00    +0.000 C 
ATOM      6  O   UNL     1       6.348   4.977  19.723  0.00  0.00    +0.000 OA
ATOM      7  N   UNL     1       5.071   3.713  18.289  0.00  0.00    +0.000 N 
ATOM      8  C   UNL     1       3.684   3.518  18.468  0.00  0.00    +0.000 A 
ATOM      9  C   UNL     1       3.288   2.173  18.354  0.00  0.00    +0.000 A 
ATOM     10  C   UNL     1       1.985   1.846  18.675  0.00  0.00    +0.000 A 
ATOM     11  C   UNL     1       1.098   2.856  19.039  0.00  0.00    +0.000 A 
ATOM     12  C   UNL     1       1.471   4.230  19.049  0.00  0.00    +0.000 A 
ATOM     13  C   UNL     1       2.792   4.598  18.802  0.00  0.00    +0.000 A 
ATOM     14  H   UNL     1       5.302   3.601  17.302  0.00  0.00    +0.000 HD
ENDROOT
BRANCH   1  20
ATOM     15  C   UNL     1       1.358   9.346  19.506  0.00  0.00    +0.000 A 
ATOM     16  C   UNL     1       0.636   9.934  20.577  0.00  0.00    +0.000 A 
ATOM     17  C   UNL     1       0.290   9.216  21.721  0.00  0.00    +0.000 A 
ATOM     18  C   UNL     1       0.652   7.886  21.805  0.00  0.00    +0.000 A 
ATOM     19  C   UNL     1       1.423   7.321  20.779  0.00  0.00    +0.000 A 
ATOM     20  C   UNL     1       1.852   8.034  19.616  0.00  0.00    +0.000 A 
BRANCH  15  21
ATOM     21  S   UNL     1       1.490  10.347  18.057  0.00  0.00    +0.000 S 
BRANCH  21  23
ATOM     22  C   UNL     1       2.570  12.765  18.205  0.00  0.00    +0.000 C 
ATOM     23  C   UNL     1       1.369  12.025  18.780  0.00  0.00    +0.000 C 
ATOM     24  C   UNL     1       0.084  12.793  18.475  0.00  0.00    +0.000 C 
ENDBRANCH  21  23
ENDBRANCH  15  21
ENDBRANCH   1  20
TORSDOF 3
ENDMDL
MODEL 4
REMARK VINA RESULT:      -7.4      2.785      7.161
REMARK  Name = 
REMARK  5 active torsions:
REMARK  status: ('A' for Active; 'I' for Inactive)
REMARK    1  A    between atoms: C_1  and  C_2
REMARK    2  A    between atoms: C_2  and  C_3
REMARK    3  A    between atoms: C_2  and  S_4
REMARK    4  A    between atoms: S_4  and  C_5
REMARK    5  A    between atoms: C_10  and  C_11
REMARK                            x       y       z     vdW  Elec       q    Type
REMARK                         _______ _______ _______ _____ _____    ______ ____
ROOT
ATOM      1  C   UNL     1       1.205   8.442  20.262  0.00  0.00    +0.000 C 
ATOM      2  O   UNL     1       1.015   8.010  21.414  0.00  0.00    +0.000 OA
ATOM      3  N   UNL     1       0.794   9.784  20.009  0.00  0.00    +0.000 N 
ATOM      4  C   UNL     1       0.903  10.567  21.257  0.00  0.00    +0.000 C 
ATOM      5  C   UNL     1       0.812  12.028  20.933  0.00  0.00    +0.000 C 
ATOM      6  O   UNL     1       1.772  12.795  20.892  0.00  0.00    +0.000 OA
ATOM      7  N   UNL     1      -0.452  12.359  20.510  0.00  0.00    +0.000 N 
ATOM      8  C   UNL     1      -0.902  11.549  19.443  0.00  0.00    +0.000 A 
ATOM      9  C   UNL     1      -1.953  12.124  18.708  0.00  0.00    +0.000 A 
ATOM     10  C   UNL     1      -2.358  11.497  17.546  0.00  0.00    +0.000 A 
ATOM     11  C   UNL     1      -1.758  10.295  17.175  0.00  0.00    +0.000 A 
ATOM     12  C   UNL     1      -0.770   9.658  17.979  0.00  0.00    +0.000 A 
ATOM     13  C   UNL     1      -0.282  10.290  19.120  0.00  0.00    +0.000 A 
ATOM     14  H   UNL     1      -1.146  12.346  21.257  0.00  0.00    +0.000 HD
ENDROOT
BRANCH   1  20
ATOM     15  C   UNL     1       2.476   6.214  19.601  0.00  0.00    +0.000 A 
ATOM     16  C   UNL     1       3.415   5.600  18.732  0.00  0.00    +0.000 A 
ATOM     17  C   UNL     1       3.949   6.263  17.629  0.00  0.00    +0.000 A 
ATOM     18  C   UNL     1       3.538   7.555  17.368  0.00  0.00    +0.000 A 
ATOM     19  C   UNL     1       2.661   8.188  18.261  0.00  0.00    +0.000 A 
ATOM     20  C   UNL     1       2.135   7.569  19.438  0.00  0.00    +0.000 A 
BRANCH  15  21
ATOM     21  S   UNL     1       1.746   5.135  20.794  0.00  0.00    +0.000 S 
BRANCH  21  23
ATOM     22  C   UNL     1       2.574   2.657  21.251  0.00  0.00    +0.000 C 
ATOM     23  C   UNL     1       2.126   3.499  20.063  0.00  0.00    +0.000 C 
ATOM     24  C   UNL     1       0.975   2.809  19.334  0.00  0.00    +0.000 C 
ENDBRANCH  21  23
ENDBRANCH  15  21
ENDBRANCH   1  20
TORSDOF 3
ENDMDL
MODEL 5
REMARK VINA RESULT:      -7.4      2.331      6.777
REMARK  Name = 
REMARK  5 active torsions:
REMARK  status: ('A' for Active; 'I' for Inactive)
REMARK    1  A    between atoms: C_1  and  C_2
REMARK    2  A    between atoms: C_2  and  C_3
REMARK    3  A    between atoms: C_2  and  S_4
REMARK    4  A    between atoms: S_4  and  C_5
REMARK    5  A    between atoms: C_10  and  C_11
REMARK                            x       y       z     vdW  Elec       q    Type
REMARK                         _______ _______ _______ _____ _____    ______ ____
ROOT
ATOM      1  C   UNL     1       2.389   7.481  18.996  0.00  0.00    +0.000 C 
ATOM      2  O   UNL     1       3.355   7.870  18.314  0.00  0.00    +0.000 OA
ATOM      3  N   UNL     1       1.318   8.406  19.171  0.00  0.00    +0.000 N 
ATOM      4  C   UNL     1       1.244   9.290  17.989  0.00  0.00    +0.000 C 
ATOM      5  C   UNL     1      -0.065  10.021  17.999  0.00  0.00    +0.000 C 
ATOM      6  O   UNL     1      -1.029   9.736  17.293  0.00  0.00    +0.000 OA
ATOM      7  N   UNL     1      -0.110  10.931  19.028  0.00  0.00    +0.000 N 
ATOM      8  C   UNL     1       0.187  10.355  20.283  0.00  0.00    +0.000 A 
ATOM      9  C   UNL     1      -0.278  11.113  21.371  0.00  0.00    +0.000 A 
ATOM     10  C   UNL     1      -0.191  10.564  22.636  0.00  0.00    +0.000 A 
ATOM     11  C   UNL     1       0.405   9.314  22.797  0.00  0.00    +0.000 A 
ATOM     12  C   UNL     1       0.973   8.596  21.707  0.00  0.00    +0.000 A 
ATOM     13  C   UNL     1       0.843   9.079  20.407  0.00  0.00    +0.000 A 
ATOM     14  H   UNL     1       0.492  11.741  18.879  0.00  0.00    +0.000 HD
ENDROOT
BRANCH   1  20
ATOM     15  C   UNL     1       3.050   4.957  18.537  0.00  0.00    +0.000 A 
ATOM     16  C   UNL     1       2.871   3.600  18.909  0.00  0.00    +0.000 A 
ATOM     17  C   UNL     1       2.137   3.230  20.035  0.00  0.00    +0.000 A 
ATOM     18  C   UNL     1       1.578   4.220  20.818  0.00  0.00    +0.000 A 
ATOM     19  C   UNL     1       1.697   5.559  20.416  0.00  0.00    +0.000 A 
ATOM     20  C   UNL     1       2.389   5.981  19.238  0.00  0.00    +0.000 A 
BRANCH  15  21
ATOM     21  S   UNL     1       4.202   5.226  17.225  0.00  0.00    +0.000 S 
BRANCH  21  23
ATOM     22  C   UNL     1       6.777   4.700  16.866  0.00  0.00    +0.000 C 
ATOM     23  C   UNL     1       5.746   4.594  17.982  0.00  0.00    +0.000 C 
ATOM     24  C   UNL     1       6.235   5.340  19.222  0.00  0.00    +0.000 C 
ENDBRANCH  21  23
ENDBRANCH  15  21
ENDBRANCH   1  20
TORSDOF 3
ENDMDL
MODEL 6
REMARK VINA RESULT:      -7.3      2.553      6.800
REMARK  Name = 
REMARK  5 active torsions:
REMARK  status: ('A' for Active; 'I' for Inactive)
REMARK    1  A    between atoms: C_1  and  C_2
REMARK    2  A    between atoms: C_2  and  C_3
REMARK    3  A    between atoms: C_2  and  S_4
REMARK    4  A    between atoms: S_4  and  C_5
REMARK    5  A    between atoms: C_10  and  C_11
REMARK                            x       y       z     vdW  Elec       q    Type
REMARK                         _______ _______ _______ _____ _____    ______ ____
ROOT
ATOM      1  C   UNL     1       2.769   7.431  18.233  0.00  0.00    +0.000 C 
ATOM      2  O   UNL     1       3.643   7.981  17.537  0.00  0.00    +0.000 OA
ATOM      3  N   UNL     1       1.680   8.250  18.653  0.00  0.00    +0.000 N 
ATOM      4  C   UNL     1       1.448   9.303  17.642  0.00  0.00    +0.000 C 
ATOM      5  C   UNL     1       0.115   9.942  17.891  0.00  0.00    +0.000 C 
ATOM      6  O   UNL     1      -0.902   9.714  17.240  0.00  0.00    +0.000 OA
ATOM      7  N   UNL     1       0.131  10.674  19.054  0.00  0.00    +0.000 N 
ATOM      8  C   UNL     1       0.579   9.927  20.166  0.00  0.00    +0.000 A 
ATOM      9  C   UNL     1       0.191  10.475  21.401  0.00  0.00    +0.000 A 
ATOM     10  C   UNL     1       0.430   9.740  22.546  0.00  0.00    +0.000 A 
ATOM     11  C   UNL     1       1.095   8.519  22.446  0.00  0.00    +0.000 A 
ATOM     12  C   UNL     1       1.583   8.017  21.207  0.00  0.00    +0.000 A 
ATOM     13  C   UNL     1       1.302   8.690  20.020  0.00  0.00    +0.000 A 
ATOM     14  H   UNL     1       0.678  11.533  18.984  0.00  0.00    +0.000 HD
ENDROOT
BRANCH   1  20
ATOM     15  C   UNL     1       3.964   5.080  18.484  0.00  0.00    +0.000 A 
ATOM     16  C   UNL     1       3.839   3.671  18.375  0.00  0.00    +0.000 A 
ATOM     17  C   UNL     1       2.616   3.052  18.123  0.00  0.00    +0.000 A 
ATOM     18  C   UNL     1       1.488   3.838  17.990  0.00  0.00    +0.000 A 
ATOM     19  C   UNL     1       1.619   5.234  18.031  0.00  0.00    +0.000 A 
ATOM     20  C   UNL     1       2.861   5.915  18.226  0.00  0.00    +0.000 A 
BRANCH  15  21
ATOM     21  S   UNL     1       5.542   5.649  19.036  0.00  0.00    +0.000 S 
BRANCH  21  23
ATOM     22  C   UNL     1       7.367   6.981  17.647  0.00  0.00    +0.000 C 
ATOM     23  C   UNL     1       6.438   5.791  17.445  0.00  0.00    +0.000 C 
ATOM     24  C   UNL     1       7.241   4.562  17.020  0.00  0.00    +0.000 C 
ENDBRANCH  21  23
ENDBRANCH  15  21
ENDBRANCH   1  20
TORSDOF 3
ENDMDL
MODEL 7
REMARK VINA RESULT:      -7.2      1.737      1.966
REMARK  Name = 
REMARK  5 active torsions:
REMARK  status: ('A' for Active; 'I' for Inactive)
REMARK    1  A    between atoms: C_1  and  C_2
REMARK    2  A    between atoms: C_2  and  C_3
REMARK    3  A    between atoms: C_2  and  S_4
REMARK    4  A    between atoms: S_4  and  C_5
REMARK    5  A    between atoms: C_10  and  C_11
REMARK                            x       y       z     vdW  Elec       q    Type
REMARK                         _______ _______ _______ _____ _____    ______ ____
ROOT
ATOM      1  C   UNL     1       2.291   7.973  18.222  0.00  0.00    +0.000 C 
ATOM      2  O   UNL     1       2.325   8.762  17.259  0.00  0.00    +0.000 OA
ATOM      3  N   UNL     1       3.140   6.829  18.138  0.00  0.00    +0.000 N 
ATOM      4  C   UNL     1       4.335   7.172  17.339  0.00  0.00    +0.000 C 
ATOM      5  C   UNL     1       5.378   6.113  17.533  0.00  0.00    +0.000 C 
ATOM      6  O   UNL     1       6.370   6.232  18.249  0.00  0.00    +0.000 OA
ATOM      7  N   UNL     1       4.989   4.930  16.954  0.00  0.00    +0.000 N 
ATOM      8  C   UNL     1       3.713   4.503  17.383  0.00  0.00    +0.000 A 
ATOM      9  C   UNL     1       3.484   3.131  17.181  0.00  0.00    +0.000 A 
ATOM     10  C   UNL     1       2.337   2.574  17.714  0.00  0.00    +0.000 A 
ATOM     11  C   UNL     1       1.426   3.394  18.377  0.00  0.00    +0.000 A 
ATOM     12  C   UNL     1       1.607   4.801  18.486  0.00  0.00    +0.000 A 
ATOM     13  C   UNL     1       2.781   5.393  18.026  0.00  0.00    +0.000 A 
ATOM     14  H   UNL     1       5.011   4.951  15.934  0.00  0.00    +0.000 HD
ENDROOT
BRANCH   1  20
ATOM     15  C   UNL     1       0.778   9.682  19.565  0.00  0.00    +0.000 A 
ATOM     16  C   UNL     1       0.264  10.068  20.831  0.00  0.00    +0.000 A 
ATOM     17  C   UNL     1       0.449   9.292  21.974  0.00  0.00    +0.000 A 
ATOM     18  C   UNL     1       1.142   8.103  21.865  0.00  0.00    +0.000 A 
ATOM     19  C   UNL     1       1.708   7.752  20.630  0.00  0.00    +0.000 A 
ATOM     20  C   UNL     1       1.597   8.545  19.445  0.00  0.00    +0.000 A 
BRANCH  15  21
ATOM     21  S   UNL     1       0.238  10.674  18.207  0.00  0.00    +0.000 S 
BRANCH  21  23
ATOM     22  C   UNL     1       2.049  12.603  18.389  0.00  0.00    +0.000 C 
ATOM     23  C   UNL     1       0.613  12.354  18.831  0.00  0.00    +0.000 C 
ATOM     24  C   UNL     1      -0.295  13.473  18.323  0.00  0.00    +0.000 C 
ENDBRANCH  21  23
ENDBRANCH  15  21
ENDBRANCH   1  20
TORSDOF 3
ENDMDL
MODEL 8
REMARK VINA RESULT:      -7.2      2.871      4.909
REMARK  Name = 
REMARK  5 active torsions:
REMARK  status: ('A' for Active; 'I' for Inactive)
REMARK    1  A    between atoms: C_1  and  C_2
REMARK    2  A    between atoms: C_2  and  C_3
REMARK    3  A    between atoms: C_2  and  S_4
REMARK    4  A    between atoms: S_4  and  C_5
REMARK    5  A    between atoms: C_10  and  C_11
REMARK                            x       y       z     vdW  Elec       q    Type
REMARK                         _______ _______ _______ _____ _____    ______ ____
ROOT
ATOM      1  C   UNL     1       3.594   6.433  17.885  0.00  0.00    +0.000 C 
ATOM      2  O   UNL     1       3.261   7.632  17.839  0.00  0.00    +0.000 OA
ATOM      3  N   UNL     1       4.923   6.124  17.470  0.00  0.00    +0.000 N 
ATOM      4  C   UNL     1       5.800   7.279  17.757  0.00  0.00    +0.000 C 
ATOM      5  C   UNL     1       7.232   6.850  17.653  0.00  0.00    +0.000 C 
ATOM      6  O   UNL     1       7.965   6.621  18.613  0.00  0.00    +0.000 OA
ATOM      7  N   UNL     1       7.566   6.567  16.350  0.00  0.00    +0.000 N 
ATOM      8  C   UNL     1       6.688   5.638  15.749  0.00  0.00    +0.000 A 
ATOM      9  C   UNL     1       7.234   4.999  14.622  0.00  0.00    +0.000 A 
ATOM     10  C   UNL     1       6.528   3.954  14.057  0.00  0.00    +0.000 A 
ATOM     11  C   UNL     1       5.283   3.611  14.580  0.00  0.00    +0.000 A 
ATOM     12  C   UNL     1       4.683   4.330  15.652  0.00  0.00    +0.000 A 
ATOM     13  C   UNL     1       5.389   5.342  16.297  0.00  0.00    +0.000 A 
ATOM     14  H   UNL     1       7.634   7.396  15.760  0.00  0.00    +0.000 HD
ENDROOT
BRANCH   1  20
ATOM     15  C   UNL     1       2.042   5.805  19.938  0.00  0.00    +0.000 A 
ATOM     16  C   UNL     1       1.196   4.831  20.528  0.00  0.00    +0.000 A 
ATOM     17  C   UNL     1       0.823   3.668  19.857  0.00  0.00    +0.000 A 
ATOM     18  C   UNL     1       1.283   3.467  18.570  0.00  0.00    +0.000 A 
ATOM     19  C   UNL     1       2.172   4.395  18.009  0.00  0.00    +0.000 A 
ATOM     20  C   UNL     1       2.630   5.571  18.682  0.00  0.00    +0.000 A 
BRANCH  15  21
ATOM     21  S   UNL     1       2.204   7.307  20.854  0.00  0.00    +0.000 S 
BRANCH  21  23
ATOM     22  C   UNL     1      -0.047   8.506  21.582  0.00  0.00    +0.000 C 
ATOM     23  C   UNL     1       0.715   8.217  20.296  0.00  0.00    +0.000 C 
ATOM     24  C   UNL     1       0.974   9.517  19.535  0.00  0.00    +0.000 C 
ENDBRANCH  21  23
ENDBRANCH  15  21
ENDBRANCH   1  20
TORSDOF 3
ENDMDL
MODEL 9
REMARK VINA RESULT:      -7.2      3.260      6.977
REMARK  Name = 
REMARK  5 active torsions:
REMARK  status: ('A' for Active; 'I' for Inactive)
REMARK    1  A    between atoms: C_1  and  C_2
REMARK    2  A    between atoms: C_2  and  C_3
REMARK    3  A    between atoms: C_2  and  S_4
REMARK    4  A    between atoms: S_4  and  C_5
REMARK    5  A    between atoms: C_10  and  C_11
REMARK                            x       y       z     vdW  Elec       q    Type
REMARK                         _______ _______ _______ _____ _____    ______ ____
ROOT
ATOM      1  C   UNL     1       3.439   3.930  17.300  0.00  0.00    +0.000 C 
ATOM      2  O   UNL     1       2.755   3.086  16.694  0.00  0.00    +0.000 OA
ATOM      3  N   UNL     1       3.073   4.194  18.654  0.00  0.00    +0.000 N 
ATOM      4  C   UNL     1       2.480   2.974  19.241  0.00  0.00    +0.000 C 
ATOM      5  C   UNL     1       2.414   3.125  20.731  0.00  0.00    +0.000 C 
ATOM      6  O   UNL     1       3.190   2.592  21.522  0.00  0.00    +0.000 OA
ATOM      7  N   UNL     1       1.492   4.079  21.087  0.00  0.00    +0.000 N 
ATOM      8  C   UNL     1       1.704   5.315  20.436  0.00  0.00    +0.000 A 
ATOM      9  C   UNL     1       1.094   6.402  21.087  0.00  0.00    +0.000 A 
ATOM     10  C   UNL     1       1.374   7.676  20.633  0.00  0.00    +0.000 A 
ATOM     11  C   UNL     1       2.195   7.838  19.518  0.00  0.00    +0.000 A 
ATOM     12  C   UNL     1       2.722   6.732  18.794  0.00  0.00    +0.000 A 
ATOM     13  C   UNL     1       2.525   5.434  19.259  0.00  0.00    +0.000 A 
ATOM     14  H   UNL     1       0.527   3.784  20.942  0.00  0.00    +0.000 HD
ENDROOT
BRANCH   1  20
ATOM     15  C   UNL     1       5.853   4.992  17.055  0.00  0.00    +0.000 A 
ATOM     16  C   UNL     1       6.953   5.247  16.194  0.00  0.00    +0.000 A 
ATOM     17  C   UNL     1       7.026   4.718  14.907  0.00  0.00    +0.000 A 
ATOM     18  C   UNL     1       6.000   3.907  14.463  0.00  0.00    +0.000 A 
ATOM     19  C   UNL     1       4.881   3.707  15.286  0.00  0.00    +0.000 A 
ATOM     20  C   UNL     1       4.735   4.278  16.589  0.00  0.00    +0.000 A 
BRANCH  15  21
ATOM     21  S   UNL     1       6.060   5.555  18.716  0.00  0.00    +0.000 S 
BRANCH  21  23
ATOM     22  C   UNL     1       8.084   7.256  18.508  0.00  0.00    +0.000 C 
ATOM     23  C   UNL     1       7.877   5.773  18.787  0.00  0.00    +0.000 C 
ATOM     24  C   UNL     1       8.544   5.387  20.106  0.00  0.00    +0.000 C 
ENDBRANCH  21  23
ENDBRANCH  15  21
ENDBRANCH   1  20
TORSDOF 3
ENDMDL
