MODEL 1
REMARK VINA RESULT:      -7.2      0.000      0.000
REMARK  Name = 
REMARK  2 active torsions:
REMARK  status: ('A' for Active; 'I' for Inactive)
REMARK    1  A    between atoms: C_2  and  C_3
REMARK    2  A    between atoms: C_5  and  C_6
REMARK                            x       y       z     vdW  Elec       q    Type
REMARK                         _______ _______ _______ _____ _____    ______ ____
ROOT
ATOM      1  C   UNL     1       1.246   9.498  18.997  0.00  0.00    +0.000 A 
ATOM      2  C   UNL     1       1.966   8.897  17.985  0.00  0.00    +0.000 A 
ATOM      3  C   UNL     1       2.482   7.691  18.512  0.00  0.00    +0.000 A 
ATOM      4  N   UNL     1       2.094   7.548  19.792  0.00  0.00    +0.000 NA
ATOM      5  N   UNL     1       1.417   8.678  20.071  0.00  0.00    +0.000 N 
ATOM      6  H   UNL     1       1.059   8.818  21.012  0.00  0.00    +0.000 HD
ENDROOT
BRANCH   3   7
ATOM      7  C   UNL     1       3.275   6.662  17.825  0.00  0.00    +0.000 A 
ATOM      8  C   UNL     1       4.409   7.078  17.096  0.00  0.00    +0.000 A 
ATOM      9  C   UNL     1       5.228   6.155  16.441  0.00  0.00    +0.000 A 
ATOM     10  C   UNL     1       4.931   4.799  16.508  0.00  0.00    +0.000 A 
ATOM     11 CL   UNL     1       5.934   3.659  15.704  0.00  0.00    +0.000 Cl
ATOM     12  C   UNL     1       3.817   4.361  17.216  0.00  0.00    +0.000 A 
ATOM     13  C   UNL     1       2.986   5.284  17.866  0.00  0.00    +0.000 A 
ATOM     14 CL   UNL     1       1.595   4.609  18.648  0.00  0.00    +0.000 Cl
ENDBRANCH   3   7
BRANCH   1  16
ATOM     15  O   UNL     1       0.869  11.661  19.759  0.00  0.00    +0.000 OA
ATOM     16  C   UNL     1       0.511  10.731  19.042  0.00  0.00    +0.000 C 
ATOM     17  N   UNL     1      -0.617  10.812  18.232  0.00  0.00    +0.000 N 
ATOM     18  C   UNL     1      -1.376  12.044  18.110  0.00  0.00    +0.000 C 
ATOM     19  C   UNL     1      -2.824  11.587  18.146  0.00  0.00    +0.000 C 
ATOM     20  C   UNL     1      -2.777  10.244  17.432  0.00  0.00    +0.000 C 
ATOM     21  C   UNL     1      -1.433   9.664  17.845  0.00  0.00    +0.000 C 
ENDBRANCH   1  16
TORSDOF 2
ENDMDL
MODEL 2
REMARK VINA RESULT:      -7.1      3.592      7.312
REMARK  Name = 
REMARK  2 active torsions:
REMARK  status: ('A' for Active; 'I' for Inactive)
REMARK    1  A    between atoms: C_2  and  C_3
REMARK    2  A    between atoms: C_5  and  C_6
REMARK                            x       y       z     vdW  Elec       q    Type
REMARK                         _______ _______ _______ _____ _____    ______ ____
ROOT
ATOM      1  C   UNL     1       3.329   6.370  18.928  0.00  0.00    +0.000 A 
ATOM      2  C   UNL     1       2.375   7.032  19.673  0.00  0.00    +0.000 A 
ATOM      3  C   UNL     1       2.005   8.180  18.936  0.00  0.00    +0.000 A 
ATOM      4  N   UNL     1       2.695   8.224  17.782  0.00  0.00    +0.000 NA
ATOM      5  N   UNL     1       3.528   7.167  17.842  0.00  0.00    +0.000 N 
ATOM      6  H   UNL     1       4.189   7.018  17.085  0.00  0.00    +0.000 HD
ENDROOT
BRANCH   3   7
ATOM      7  C   UNL     1       0.990   9.189  19.269  0.00  0.00    +0.000 A 
ATOM      8  C   UNL     1       0.327   9.836  18.206  0.00  0.00    +0.000 A 
ATOM      9  C   UNL     1      -0.670  10.785  18.444  0.00  0.00    +0.000 A 
ATOM     10  C   UNL     1      -1.027  11.099  19.750  0.00  0.00    +0.000 A 
ATOM     11 CL   UNL     1      -2.253  12.266  20.049  0.00  0.00    +0.000 Cl
ATOM     12  C   UNL     1      -0.387  10.479  20.818  0.00  0.00    +0.000 A 
ATOM     13  C   UNL     1       0.622   9.534  20.584  0.00  0.00    +0.000 A 
ATOM     14 CL   UNL     1       1.383   8.894  22.003  0.00  0.00    +0.000 Cl
ENDBRANCH   3   7
BRANCH   1  16
ATOM     15  O   UNL     1       5.244   5.183  19.498  0.00  0.00    +0.000 OA
ATOM     16  C   UNL     1       4.061   5.159  19.175  0.00  0.00    +0.000 C 
ATOM     17  N   UNL     1       3.356   3.967  19.031  0.00  0.00    +0.000 N 
ATOM     18  C   UNL     1       3.958   2.688  19.360  0.00  0.00    +0.000 C 
ATOM     19  C   UNL     1       3.510   1.771  18.234  0.00  0.00    +0.000 C 
ATOM     20  C   UNL     1       2.114   2.285  17.910  0.00  0.00    +0.000 C 
ATOM     21  C   UNL     1       2.225   3.787  18.126  0.00  0.00    +0.000 C 
ENDBRANCH   1  16
TORSDOF 2
ENDMDL
MODEL 3
REMARK VINA RESULT:      -7.0      3.713      7.652
REMARK  Name = 
REMARK  2 active torsions:
REMARK  status: ('A' for Active; 'I' for Inactive)
REMARK    1  A    between atoms: C_2  and  C_3
REMARK    2  A    between atoms: C_5  and  C_6
REMARK                            x       y       z     vdW  Elec       q    Type
REMARK                         _______ _______ _______ _____ _____    ______ ____
ROOT
ATOM      1  C   UNL     1       3.306   5.700  18.635  0.00  0.00    +0.000 A 
ATOM      2  C   UNL     1       2.876   7.010  18.694  0.00  0.00    +0.000 A 
ATOM      3  C   UNL     1       2.055   7.119  19.840  0.00  0.00    +0.000 A 
ATOM      4  N   UNL     1       1.984   5.931  20.467  0.00  0.00    +0.000 NA
ATOM      5  N   UNL     1       2.684   5.089  19.682  0.00  0.00    +0.000 N 
ATOM      6  H   UNL     1       2.734   4.106  19.936  0.00  0.00    +0.000 HD
ENDROOT
BRANCH   3   7
ATOM      7  C   UNL     1       1.394   8.317  20.376  0.00  0.00    +0.000 A 
ATOM      8  C   UNL     1       1.180   8.387  21.768  0.00  0.00    +0.000 A 
ATOM      9  C   UNL     1       0.585   9.507  22.354  0.00  0.00    +0.000 A 
ATOM     10  C   UNL     1       0.197  10.578  21.559  0.00  0.00    +0.000 A 
ATOM     11 CL   UNL     1      -0.538  11.958  22.273  0.00  0.00    +0.000 Cl
ATOM     12  C   UNL     1       0.391  10.534  20.182  0.00  0.00    +0.000 A 
ATOM     13  C   UNL     1       0.979   9.409  19.589  0.00  0.00    +0.000 A 
ATOM     14 CL   UNL     1       1.095   9.456  17.860  0.00  0.00    +0.000 Cl
ENDBRANCH   3   7
BRANCH   1  16
ATOM     15  O   UNL     1       3.695   4.179  16.922  0.00  0.00    +0.000 OA
ATOM     16  C   UNL     1       4.150   5.014  17.697  0.00  0.00    +0.000 C 
ATOM     17  N   UNL     1       5.500   5.350  17.715  0.00  0.00    +0.000 N 
ATOM     18  C   UNL     1       6.429   4.806  16.742  0.00  0.00    +0.000 C 
ATOM     19  C   UNL     1       7.664   4.470  17.561  0.00  0.00    +0.000 C 
ATOM     20  C   UNL     1       7.685   5.570  18.614  0.00  0.00    +0.000 C 
ATOM     21  C   UNL     1       6.212   5.821  18.900  0.00  0.00    +0.000 C 
ENDBRANCH   1  16
TORSDOF 2
ENDMDL
MODEL 4
REMARK VINA RESULT:      -7.0      5.951      8.108
REMARK  Name = 
REMARK  2 active torsions:
REMARK  status: ('A' for Active; 'I' for Inactive)
REMARK    1  A    between atoms: C_2  and  C_3
REMARK    2  A    between atoms: C_5  and  C_6
REMARK                            x       y       z     vdW  Elec       q    Type
REMARK                         _______ _______ _______ _____ _____    ______ ____
ROOT
ATOM      1  C   UNL     1       6.722   4.652  15.829  0.00  0.00    +0.000 A 
ATOM      2  C   UNL     1       5.466   4.331  16.303  0.00  0.00    +0.000 A 
ATOM      3  C   UNL     1       5.563   4.277  17.712  0.00  0.00    +0.000 A 
ATOM      4  N   UNL     1       6.822   4.558  18.095  0.00  0.00    +0.000 NA
ATOM      5  N   UNL     1       7.504   4.708  16.942  0.00  0.00    +0.000 N 
ATOM      6  H   UNL     1       8.504   4.885  16.982  0.00  0.00    +0.000 HD
ENDROOT
BRANCH   3   7
ATOM      7  C   UNL     1       4.496   4.024  18.690  0.00  0.00    +0.000 A 
ATOM      8  C   UNL     1       4.486   2.777  19.349  0.00  0.00    +0.000 A 
ATOM      9  C   UNL     1       3.521   2.474  20.313  0.00  0.00    +0.000 A 
ATOM     10  C   UNL     1       2.552   3.416  20.638  0.00  0.00    +0.000 A 
ATOM     11 CL   UNL     1       1.361   3.050  21.822  0.00  0.00    +0.000 Cl
ATOM     12  C   UNL     1       2.536   4.653  20.002  0.00  0.00    +0.000 A 
ATOM     13  C   UNL     1       3.496   4.956  19.027  0.00  0.00    +0.000 A 
ATOM     14 CL   UNL     1       3.316   6.501  18.263  0.00  0.00    +0.000 Cl
ENDBRANCH   3   7
BRANCH   1  16
ATOM     15  O   UNL     1       8.098   5.658  14.249  0.00  0.00    +0.000 OA
ATOM     16  C   UNL     1       7.218   4.838  14.494  0.00  0.00    +0.000 C 
ATOM     17  N   UNL     1       6.653   4.041  13.504  0.00  0.00    +0.000 N 
ATOM     18  C   UNL     1       7.149   4.061  12.140  0.00  0.00    +0.000 C 
ATOM     19  C   UNL     1       5.890   4.041  11.291  0.00  0.00    +0.000 C 
ATOM     20  C   UNL     1       4.939   3.177  12.108  0.00  0.00    +0.000 C 
ATOM     21  C   UNL     1       5.288   3.524  13.548  0.00  0.00    +0.000 C 
ENDBRANCH   1  16
TORSDOF 2
ENDMDL
MODEL 5
REMARK VINA RESULT:      -7.0      3.788      7.512
REMARK  Name = 
REMARK  2 active torsions:
REMARK  status: ('A' for Active; 'I' for Inactive)
REMARK    1  A    between atoms: C_2  and  C_3
REMARK    2  A    between atoms: C_5  and  C_6
REMARK                            x       y       z     vdW  Elec       q    Type
REMARK                         _______ _______ _______ _____ _____    ______ ____
ROOT
ATOM      1  C   UNL     1       2.929   6.359  19.278  0.00  0.00    +0.000 A 
ATOM      2  C   UNL     1       2.205   6.873  20.333  0.00  0.00    +0.000 A 
ATOM      3  C   UNL     1       1.695   8.122  19.908  0.00  0.00    +0.000 A 
ATOM      4  N   UNL     1       2.082   8.368  18.643  0.00  0.00    +0.000 NA
ATOM      5  N   UNL     1       2.876   7.327  18.322  0.00  0.00    +0.000 N 
ATOM      6  H   UNL     1       3.328   7.317  17.411  0.00  0.00    +0.000 HD
ENDROOT
BRANCH   3   7
ATOM      7  C   UNL     1       0.820   9.046  20.642  0.00  0.00    +0.000 A 
ATOM      8  C   UNL     1       0.844   9.001  22.052  0.00  0.00    +0.000 A 
ATOM      9  C   UNL     1       0.063   9.869  22.818  0.00  0.00    +0.000 A 
ATOM     10  C   UNL     1      -0.754  10.801  22.189  0.00  0.00    +0.000 A 
ATOM     11 CL   UNL     1      -1.719  11.870  23.126  0.00  0.00    +0.000 Cl
ATOM     12  C   UNL     1      -0.801  10.865  20.800  0.00  0.00    +0.000 A 
ATOM     13  C   UNL     1      -0.026   9.990  20.027  0.00  0.00    +0.000 A 
ATOM     14 CL   UNL     1      -0.235  10.129  18.313  0.00  0.00    +0.000 Cl
ENDBRANCH   3   7
BRANCH   1  16
ATOM     15  O   UNL     1       4.883   5.139  18.966  0.00  0.00    +0.000 OA
ATOM     16  C   UNL     1       3.667   5.135  19.134  0.00  0.00    +0.000 C 
ATOM     17  N   UNL     1       2.932   3.955  19.199  0.00  0.00    +0.000 N 
ATOM     18  C   UNL     1       3.581   2.656  19.177  0.00  0.00    +0.000 C 
ATOM     19  C   UNL     1       2.703   1.823  18.260  0.00  0.00    +0.000 C 
ATOM     20  C   UNL     1       1.306   2.355  18.547  0.00  0.00    +0.000 C 
ATOM     21  C   UNL     1       1.532   3.838  18.802  0.00  0.00    +0.000 C 
ENDBRANCH   1  16
TORSDOF 2
ENDMDL
MODEL 6
REMARK VINA RESULT:      -6.9      5.401      7.756
REMARK  Name = 
REMARK  2 active torsions:
REMARK  status: ('A' for Active; 'I' for Inactive)
REMARK    1  A    between atoms: C_2  and  C_3
REMARK    2  A    between atoms: C_5  and  C_6
REMARK                            x       y       z     vdW  Elec       q    Type
REMARK                         _______ _______ _______ _____ _____    ______ ____
ROOT
ATOM      1  C   UNL     1       5.637   5.242  16.433  0.00  0.00    +0.000 A 
ATOM      2  C   UNL     1       5.323   4.312  17.403  0.00  0.00    +0.000 A 
ATOM      3  C   UNL     1       4.149   4.771  18.043  0.00  0.00    +0.000 A 
ATOM      4  N   UNL     1       3.749   5.931  17.489  0.00  0.00    +0.000 NA
ATOM      5  N   UNL     1       4.700   6.219  16.579  0.00  0.00    +0.000 N 
ATOM      6  H   UNL     1       4.632   7.088  16.056  0.00  0.00    +0.000 HD
ENDROOT
BRANCH   3   7
ATOM      7  C   UNL     1       3.380   4.119  19.111  0.00  0.00    +0.000 A 
ATOM      8  C   UNL     1       2.979   4.904  20.212  0.00  0.00    +0.000 A 
ATOM      9  C   UNL     1       2.220   4.361  21.251  0.00  0.00    +0.000 A 
ATOM     10  C   UNL     1       1.843   3.024  21.206  0.00  0.00    +0.000 A 
ATOM     11 CL   UNL     1       0.910   2.350  22.482  0.00  0.00    +0.000 Cl
ATOM     12  C   UNL     1       2.227   2.226  20.134  0.00  0.00    +0.000 A 
ATOM     13  C   UNL     1       2.998   2.763  19.094  0.00  0.00    +0.000 A 
ATOM     14 CL   UNL     1       3.466   1.640  17.860  0.00  0.00    +0.000 Cl
ENDBRANCH   3   7
BRANCH   1  16
ATOM     15  O   UNL     1       7.655   6.078  15.637  0.00  0.00    +0.000 OA
ATOM     16  C   UNL     1       6.715   5.305  15.484  0.00  0.00    +0.000 C 
ATOM     17  N   UNL     1       6.634   4.443  14.395  0.00  0.00    +0.000 N 
ATOM     18  C   UNL     1       7.714   4.338  13.431  0.00  0.00    +0.000 C 
ATOM     19  C   UNL     1       7.004   4.281  12.089  0.00  0.00    +0.000 C 
ATOM     20  C   UNL     1       5.730   3.512  12.408  0.00  0.00    +0.000 C 
ATOM     21  C   UNL     1       5.380   3.967  13.817  0.00  0.00    +0.000 C 
ENDBRANCH   1  16
TORSDOF 2
ENDMDL
MODEL 7
REMARK VINA RESULT:      -6.9      1.433      2.072
REMARK  Name = 
REMARK  2 active torsions:
REMARK  status: ('A' for Active; 'I' for Inactive)
REMARK    1  A    between atoms: C_2  and  C_3
REMARK    2  A    between atoms: C_5  and  C_6
REMARK                            x       y       z     vdW  Elec       q    Type
REMARK                         _______ _______ _______ _____ _____    ______ ____
ROOT
ATOM      1  C   UNL     1       1.098   9.213  18.957  0.00  0.00    +0.000 A 
ATOM      2  C   UNL     1       1.759   8.608  17.908  0.00  0.00    +0.000 A 
ATOM      3  C   UNL     1       2.505   7.539  18.457  0.00  0.00    +0.000 A 
ATOM      4  N   UNL     1       2.309   7.481  19.787  0.00  0.00    +0.000 NA
ATOM      5  N   UNL     1       1.520   8.538  20.062  0.00  0.00    +0.000 N 
ATOM      6  H   UNL     1       1.271   8.727  21.029  0.00  0.00    +0.000 HD
ENDROOT
BRANCH   3   7
ATOM      7  C   UNL     1       3.339   6.555  17.754  0.00  0.00    +0.000 A 
ATOM      8  C   UNL     1       4.477   7.024  17.066  0.00  0.00    +0.000 A 
ATOM      9  C   UNL     1       5.335   6.146  16.400  0.00  0.00    +0.000 A 
ATOM     10  C   UNL     1       5.073   4.781  16.415  0.00  0.00    +0.000 A 
ATOM     11 CL   UNL     1       6.124   3.695  15.597  0.00  0.00    +0.000 Cl
ATOM     12  C   UNL     1       3.956   4.291  17.083  0.00  0.00    +0.000 A 
ATOM     13  C   UNL     1       3.087   5.169  17.743  0.00  0.00    +0.000 A 
ATOM     14 CL   UNL     1       1.697   4.432  18.471  0.00  0.00    +0.000 Cl
ENDBRANCH   3   7
BRANCH   1  16
ATOM     15  O   UNL     1      -1.008  10.194  18.935  0.00  0.00    +0.000 OA
ATOM     16  C   UNL     1       0.208  10.340  19.001  0.00  0.00    +0.000 C 
ATOM     17  N   UNL     1       0.799  11.593  19.124  0.00  0.00    +0.000 N 
ATOM     18  C   UNL     1      -0.001  12.794  19.289  0.00  0.00    +0.000 C 
ATOM     19  C   UNL     1       0.679  13.814  18.391  0.00  0.00    +0.000 C 
ATOM     20  C   UNL     1       2.151  13.442  18.504  0.00  0.00    +0.000 C 
ATOM     21  C   UNL     1       2.130  11.925  18.625  0.00  0.00    +0.000 C 
ENDBRANCH   1  16
TORSDOF 2
ENDMDL
MODEL 8
REMARK VINA RESULT:      -6.9      1.837      2.376
REMARK  Name = 
REMARK  2 active torsions:
REMARK  status: ('A' for Active; 'I' for Inactive)
REMARK    1  A    between atoms: C_2  and  C_3
REMARK    2  A    between atoms: C_5  and  C_6
REMARK                            x       y       z     vdW  Elec       q    Type
REMARK                         _______ _______ _______ _____ _____    ______ ____
ROOT
ATOM      1  C   UNL     1       1.566   8.727  19.414  0.00  0.00    +0.000 A 
ATOM      2  C   UNL     1       2.213   8.305  18.271  0.00  0.00    +0.000 A 
ATOM      3  C   UNL     1       2.826   7.069  18.582  0.00  0.00    +0.000 A 
ATOM      4  N   UNL     1       2.565   6.738  19.860  0.00  0.00    +0.000 NA
ATOM      5  N   UNL     1       1.870   7.783  20.348  0.00  0.00    +0.000 N 
ATOM      6  H   UNL     1       1.595   7.777  21.326  0.00  0.00    +0.000 HD
ENDROOT
BRANCH   3   7
ATOM      7  C   UNL     1       3.594   6.184  17.695  0.00  0.00    +0.000 A 
ATOM      8  C   UNL     1       4.680   6.739  16.987  0.00  0.00    +0.000 A 
ATOM      9  C   UNL     1       5.475   5.954  16.148  0.00  0.00    +0.000 A 
ATOM     10  C   UNL     1       5.200   4.599  16.006  0.00  0.00    +0.000 A 
ATOM     11 CL   UNL     1       6.173   3.628  14.974  0.00  0.00    +0.000 Cl
ATOM     12  C   UNL     1       4.133   4.026  16.689  0.00  0.00    +0.000 A 
ATOM     13  C   UNL     1       3.326   4.812  17.524  0.00  0.00    +0.000 A 
ATOM     14 CL   UNL     1       1.990   3.987  18.256  0.00  0.00    +0.000 Cl
ENDBRANCH   3   7
BRANCH   1  16
ATOM     15  O   UNL     1       0.814  10.876  18.944  0.00  0.00    +0.000 OA
ATOM     16  C   UNL     1       0.787   9.902  19.691  0.00  0.00    +0.000 C 
ATOM     17  N   UNL     1       0.004   9.872  20.840  0.00  0.00    +0.000 N 
ATOM     18  C   UNL     1      -0.907  10.955  21.165  0.00  0.00    +0.000 C 
ATOM     19  C   UNL     1      -0.723  11.154  22.659  0.00  0.00    +0.000 C 
ATOM     20  C   UNL     1      -0.462   9.742  23.163  0.00  0.00    +0.000 C 
ATOM     21  C   UNL     1       0.331   9.099  22.035  0.00  0.00    +0.000 C 
ENDBRANCH   1  16
TORSDOF 2
ENDMDL
MODEL 9
REMARK VINA RESULT:      -6.9      5.336      7.910
REMARK  Name = 
REMARK  2 active torsions:
REMARK  status: ('A' for Active; 'I' for Inactive)
REMARK    1  A    between atoms: C_2  and  C_3
REMARK    2  A    between atoms: C_5  and  C_6
REMARK                            x       y       z     vdW  Elec       q    Type
REMARK                         _______ _______ _______ _____ _____    ______ ____
ROOT
ATOM      1  C   UNL     1       5.799   5.122  15.706  0.00  0.00    +0.000 A 
ATOM      2  C   UNL     1       5.324   4.229  16.644  0.00  0.00    +0.000 A 
ATOM      3  C   UNL     1       4.400   4.935  17.449  0.00  0.00    +0.000 A 
ATOM      4  N   UNL     1       4.302   6.208  17.024  0.00  0.00    +0.000 NA
ATOM      5  N   UNL     1       5.203   6.304  16.027  0.00  0.00    +0.000 N 
ATOM      6  H   UNL     1       5.341   7.203  15.573  0.00  0.00    +0.000 HD
ENDROOT
BRANCH   3   7
ATOM      7  C   UNL     1       3.581   4.424  18.557  0.00  0.00    +0.000 A 
ATOM      8  C   UNL     1       3.585   3.035  18.796  0.00  0.00    +0.000 A 
ATOM      9  C   UNL     1       2.855   2.479  19.850  0.00  0.00    +0.000 A 
ATOM     10  C   UNL     1       2.113   3.304  20.686  0.00  0.00    +0.000 A 
ATOM     11 CL   UNL     1       1.211   2.626  21.983  0.00  0.00    +0.000 Cl
ATOM     12  C   UNL     1       2.088   4.677  20.471  0.00  0.00    +0.000 A 
ATOM     13  C   UNL     1       2.810   5.239  19.409  0.00  0.00    +0.000 A 
ATOM     14 CL   UNL     1       2.632   6.951  19.213  0.00  0.00    +0.000 Cl
ENDBRANCH   3   7
BRANCH   1  16
ATOM     15  O   UNL     1       7.798   5.611  14.626  0.00  0.00    +0.000 OA
ATOM     16  C   UNL     1       6.752   4.971  14.642  0.00  0.00    +0.000 C 
ATOM     17  N   UNL     1       6.425   4.062  13.640  0.00  0.00    +0.000 N 
ATOM     18  C   UNL     1       7.356   3.744  12.573  0.00  0.00    +0.000 C 
ATOM     19  C   UNL     1       6.487   3.703  11.327  0.00  0.00    +0.000 C 
ATOM     20  C   UNL     1       5.170   3.144  11.847  0.00  0.00    +0.000 C 
ATOM     21  C   UNL     1       5.058   3.732  13.246  0.00  0.00    +0.000 C 
ENDBRANCH   1  16
TORSDOF 2
ENDMDL
