MODEL 1
REMARK VINA RESULT:      -8.7      0.000      0.000
REMARK  Name = 
REMARK  4 active torsions:
REMARK  status: ('A' for Active; 'I' for Inactive)
REMARK    1  A    between atoms: C_1  and  C_2
REMARK    2  A    between atoms: C_5  and  C_6
REMARK    3  A    between atoms: C_6  and  C_7
REMARK    4  A    between atoms: C_6  and  C_16
REMARK                            x       y       z     vdW  Elec       q    Type
REMARK                         _______ _______ _______ _____ _____    ______ ____
ROOT
ATOM      1  C   UNL     1       3.164   7.021  18.915  0.00  0.00    +0.000 C 
ENDROOT
BRANCH   1   2
ATOM      2  C   UNL     1       4.144   6.837  17.780  0.00  0.00    +0.000 A 
ATOM      3  C   UNL     1       4.103   7.420  16.521  0.00  0.00    +0.000 A 
ATOM      4  N   UNL     1       5.179   6.986  15.800  0.00  0.00    +0.000 N 
ATOM      5  C   UNL     1       5.948   6.136  16.556  0.00  0.00    +0.000 A 
ATOM      6  C   UNL     1       7.129   5.461  16.226  0.00  0.00    +0.000 A 
ATOM      7  C   UNL     1       7.709   4.650  17.206  0.00  0.00    +0.000 A 
ATOM      8  C   UNL     1       7.131   4.527  18.466  0.00  0.00    +0.000 A 
ATOM      9  C   UNL     1       5.947   5.209  18.779  0.00  0.00    +0.000 A 
ATOM     10  C   UNL     1       5.335   6.028  17.806  0.00  0.00    +0.000 A 
ATOM     11  H   UNL     1       5.386   7.252  14.848  0.00  0.00    +0.000 HD
ENDBRANCH   1   2
BRANCH   1  12
ATOM     12  C   UNL     1       2.175   8.163  18.754  0.00  0.00    +0.000 A 
ATOM     13  C   UNL     1       1.768   8.827  17.605  0.00  0.00    +0.000 A 
ATOM     14  N   UNL     1       0.817   9.752  17.932  0.00  0.00    +0.000 N 
ATOM     15  C   UNL     1       0.559   9.713  19.279  0.00  0.00    +0.000 A 
ATOM     16  C   UNL     1      -0.354  10.455  20.039  0.00  0.00    +0.000 A 
ATOM     17  C   UNL     1      -0.405  10.211  21.413  0.00  0.00    +0.000 A 
ATOM     18  C   UNL     1       0.429   9.264  21.999  0.00  0.00    +0.000 A 
ATOM     19  C   UNL     1       1.331   8.524  21.222  0.00  0.00    +0.000 A 
ATOM     20  C   UNL     1       1.399   8.743  19.828  0.00  0.00    +0.000 A 
ATOM     21  H   UNL     1       0.355  10.367  17.277  0.00  0.00    +0.000 HD
ENDBRANCH   1  12
BRANCH   1  26
ATOM     22  C   UNL     1       0.381   1.875  19.346  0.00  0.00    +0.000 C 
ATOM     23  C   UNL     1       1.067   3.203  19.235  0.00  0.00    +0.000 A 
ATOM     24  C   UNL     1       1.385   3.753  17.990  0.00  0.00    +0.000 A 
ATOM     25  C   UNL     1       2.053   4.981  17.902  0.00  0.00    +0.000 A 
ATOM     26  C   UNL     1       2.418   5.695  19.058  0.00  0.00    +0.000 A 
ATOM     27  C   UNL     1       2.075   5.136  20.304  0.00  0.00    +0.000 A 
ATOM     28  C   UNL     1       1.418   3.905  20.391  0.00  0.00    +0.000 A 
ENDBRANCH   1  26
TORSDOF 3
ENDMDL
MODEL 2
REMARK VINA RESULT:      -8.2      2.096      5.025
REMARK  Name = 
REMARK  4 active torsions:
REMARK  status: ('A' for Active; 'I' for Inactive)
REMARK    1  A    between atoms: C_1  and  C_2
REMARK    2  A    between atoms: C_5  and  C_6
REMARK    3  A    between atoms: C_6  and  C_7
REMARK    4  A    between atoms: C_6  and  C_16
REMARK                            x       y       z     vdW  Elec       q    Type
REMARK                         _______ _______ _______ _____ _____    ______ ____
ROOT
ATOM      1  C   UNL     1       3.714   5.190  17.596  0.00  0.00    +0.000 C 
ENDROOT
BRANCH   1   2
ATOM      2  C   UNL     1       4.979   5.624  16.894  0.00  0.00    +0.000 A 
ATOM      3  C   UNL     1       5.870   6.613  17.285  0.00  0.00    +0.000 A 
ATOM      4  N   UNL     1       6.880   6.683  16.368  0.00  0.00    +0.000 N 
ATOM      5  C   UNL     1       6.690   5.750  15.378  0.00  0.00    +0.000 A 
ATOM      6  C   UNL     1       7.467   5.471  14.247  0.00  0.00    +0.000 A 
ATOM      7  C   UNL     1       7.032   4.450  13.397  0.00  0.00    +0.000 A 
ATOM      8  C   UNL     1       5.871   3.736  13.673  0.00  0.00    +0.000 A 
ATOM      9  C   UNL     1       5.104   4.030  14.809  0.00  0.00    +0.000 A 
ATOM     10  C   UNL     1       5.515   5.062  15.681  0.00  0.00    +0.000 A 
ATOM     11  H   UNL     1       7.658   7.325  16.409  0.00  0.00    +0.000 HD
ENDBRANCH   1   2
BRANCH   1  12
ATOM     12  C   UNL     1       3.897   4.198  18.732  0.00  0.00    +0.000 A 
ATOM     13  C   UNL     1       5.060   3.629  19.232  0.00  0.00    +0.000 A 
ATOM     14  N   UNL     1       4.750   2.832  20.298  0.00  0.00    +0.000 N 
ATOM     15  C   UNL     1       3.400   2.867  20.541  0.00  0.00    +0.000 A 
ATOM     16  C   UNL     1       2.652   2.233  21.542  0.00  0.00    +0.000 A 
ATOM     17  C   UNL     1       1.272   2.443  21.552  0.00  0.00    +0.000 A 
ATOM     18  C   UNL     1       0.667   3.250  20.593  0.00  0.00    +0.000 A 
ATOM     19  C   UNL     1       1.432   3.883  19.604  0.00  0.00    +0.000 A 
ATOM     20  C   UNL     1       2.832   3.697  19.574  0.00  0.00    +0.000 A 
ATOM     21  H   UNL     1       5.418   2.304  20.843  0.00  0.00    +0.000 HD
ENDBRANCH   1  12
BRANCH   1  26
ATOM     22  C   UNL     1       1.079  10.091  19.454  0.00  0.00    +0.000 C 
ATOM     23  C   UNL     1       1.778   8.851  18.984  0.00  0.00    +0.000 A 
ATOM     24  C   UNL     1       2.132   8.682  17.643  0.00  0.00    +0.000 A 
ATOM     25  C   UNL     1       2.758   7.505  17.213  0.00  0.00    +0.000 A 
ATOM     26  C   UNL     1       3.050   6.466  18.114  0.00  0.00    +0.000 A 
ATOM     27  C   UNL     1       2.702   6.657  19.465  0.00  0.00    +0.000 A 
ATOM     28  C   UNL     1       2.068   7.828  19.891  0.00  0.00    +0.000 A 
ENDBRANCH   1  26
TORSDOF 3
ENDMDL
MODEL 3
REMARK VINA RESULT:      -8.0      1.473      2.163
REMARK  Name = 
REMARK  4 active torsions:
REMARK  status: ('A' for Active; 'I' for Inactive)
REMARK    1  A    between atoms: C_1  and  C_2
REMARK    2  A    between atoms: C_5  and  C_6
REMARK    3  A    between atoms: C_6  and  C_7
REMARK    4  A    between atoms: C_6  and  C_16
REMARK                            x       y       z     vdW  Elec       q    Type
REMARK                         _______ _______ _______ _____ _____    ______ ____
ROOT
ATOM      1  C   UNL     1       3.937   5.832  19.407  0.00  0.00    +0.000 C 
ENDROOT
BRANCH   1   2
ATOM      2  C   UNL     1       5.277   5.516  18.786  0.00  0.00    +0.000 A 
ATOM      3  C   UNL     1       6.523   5.547  19.396  0.00  0.00    +0.000 A 
ATOM      4  N   UNL     1       7.471   5.193  18.477  0.00  0.00    +0.000 N 
ATOM      5  C   UNL     1       6.883   4.911  17.270  0.00  0.00    +0.000 A 
ATOM      6  C   UNL     1       7.463   4.513  16.059  0.00  0.00    +0.000 A 
ATOM      7  C   UNL     1       6.611   4.288  14.974  0.00  0.00    +0.000 A 
ATOM      8  C   UNL     1       5.236   4.450  15.099  0.00  0.00    +0.000 A 
ATOM      9  C   UNL     1       4.671   4.850  16.318  0.00  0.00    +0.000 A 
ATOM     10  C   UNL     1       5.508   5.093  17.429  0.00  0.00    +0.000 A 
ATOM     11  H   UNL     1       8.463   5.141  18.658  0.00  0.00    +0.000 HD
ENDBRANCH   1   2
BRANCH   1  12
ATOM     12  C   UNL     1       3.237   7.068  18.869  0.00  0.00    +0.000 A 
ATOM     13  C   UNL     1       3.372   7.699  17.640  0.00  0.00    +0.000 A 
ATOM     14  N   UNL     1       2.498   8.747  17.572  0.00  0.00    +0.000 N 
ATOM     15  C   UNL     1       1.759   8.825  18.725  0.00  0.00    +0.000 A 
ATOM     16  C   UNL     1       0.736   9.716  19.076  0.00  0.00    +0.000 A 
ATOM     17  C   UNL     1       0.151   9.568  20.335  0.00  0.00    +0.000 A 
ATOM     18  C   UNL     1       0.577   8.571  21.207  0.00  0.00    +0.000 A 
ATOM     19  C   UNL     1       1.597   7.683  20.836  0.00  0.00    +0.000 A 
ATOM     20  C   UNL     1       2.202   7.802  19.565  0.00  0.00    +0.000 A 
ATOM     21  H   UNL     1       2.395   9.368  16.782  0.00  0.00    +0.000 HD
ENDBRANCH   1  12
BRANCH   1  26
ATOM     22  C   UNL     1       0.603   1.052  18.741  0.00  0.00    +0.000 C 
ATOM     23  C   UNL     1       1.470   2.266  18.888  0.00  0.00    +0.000 A 
ATOM     24  C   UNL     1       2.644   2.231  19.645  0.00  0.00    +0.000 A 
ATOM     25  C   UNL     1       3.429   3.381  19.798  0.00  0.00    +0.000 A 
ATOM     26  C   UNL     1       3.062   4.597  19.195  0.00  0.00    +0.000 A 
ATOM     27  C   UNL     1       1.886   4.612  18.422  0.00  0.00    +0.000 A 
ATOM     28  C   UNL     1       1.097   3.467  18.278  0.00  0.00    +0.000 A 
ENDBRANCH   1  26
TORSDOF 3
ENDMDL
MODEL 4
REMARK VINA RESULT:      -8.0      1.734      6.362
REMARK  Name = 
REMARK  4 active torsions:
REMARK  status: ('A' for Active; 'I' for Inactive)
REMARK    1  A    between atoms: C_1  and  C_2
REMARK    2  A    between atoms: C_5  and  C_6
REMARK    3  A    between atoms: C_6  and  C_7
REMARK    4  A    between atoms: C_6  and  C_16
REMARK                            x       y       z     vdW  Elec       q    Type
REMARK                         _______ _______ _______ _____ _____    ______ ____
ROOT
ATOM      1  C   UNL     1       3.302   6.326  18.595  0.00  0.00    +0.000 C 
ENDROOT
BRANCH   1   2
ATOM      2  C   UNL     1       2.395   5.121  18.669  0.00  0.00    +0.000 A 
ATOM      3  C   UNL     1       1.620   4.578  17.654  0.00  0.00    +0.000 A 
ATOM      4  N   UNL     1       0.951   3.493  18.144  0.00  0.00    +0.000 N 
ATOM      5  C   UNL     1       1.274   3.289  19.462  0.00  0.00    +0.000 A 
ATOM      6  C   UNL     1       0.828   2.305  20.354  0.00  0.00    +0.000 A 
ATOM      7  C   UNL     1       1.332   2.334  21.657  0.00  0.00    +0.000 A 
ATOM      8  C   UNL     1       2.249   3.305  22.048  0.00  0.00    +0.000 A 
ATOM      9  C   UNL     1       2.683   4.283  21.142  0.00  0.00    +0.000 A 
ATOM     10  C   UNL     1       2.184   4.284  19.822  0.00  0.00    +0.000 A 
ATOM     11  H   UNL     1       0.312   2.918  17.614  0.00  0.00    +0.000 HD
ENDBRANCH   1   2
BRANCH   1  12
ATOM     12  C   UNL     1       4.117   6.461  17.320  0.00  0.00    +0.000 A 
ATOM     13  C   UNL     1       4.444   7.598  16.593  0.00  0.00    +0.000 A 
ATOM     14  N   UNL     1       5.245   7.247  15.543  0.00  0.00    +0.000 N 
ATOM     15  C   UNL     1       5.484   5.896  15.558  0.00  0.00    +0.000 A 
ATOM     16  C   UNL     1       6.266   5.114  14.699  0.00  0.00    +0.000 A 
ATOM     17  C   UNL     1       6.330   3.741  14.947  0.00  0.00    +0.000 A 
ATOM     18  C   UNL     1       5.632   3.177  16.011  0.00  0.00    +0.000 A 
ATOM     19  C   UNL     1       4.860   3.976  16.865  0.00  0.00    +0.000 A 
ATOM     20  C   UNL     1       4.784   5.369  16.645  0.00  0.00    +0.000 A 
ATOM     21  H   UNL     1       5.624   7.889  14.861  0.00  0.00    +0.000 HD
ENDBRANCH   1  12
BRANCH   1  26
ATOM     22  C   UNL     1      -0.062  11.058  19.433  0.00  0.00    +0.000 C 
ATOM     23  C   UNL     1       0.774   9.833  19.214  0.00  0.00    +0.000 A 
ATOM     24  C   UNL     1       1.125   8.997  20.277  0.00  0.00    +0.000 A 
ATOM     25  C   UNL     1       1.932   7.872  20.063  0.00  0.00    +0.000 A 
ATOM     26  C   UNL     1       2.406   7.551  18.779  0.00  0.00    +0.000 A 
ATOM     27  C   UNL     1       2.029   8.394  17.715  0.00  0.00    +0.000 A 
ATOM     28  C   UNL     1       1.233   9.523  17.932  0.00  0.00    +0.000 A 
ENDBRANCH   1  26
TORSDOF 3
ENDMDL
MODEL 5
REMARK VINA RESULT:      -8.0      3.405      6.828
REMARK  Name = 
REMARK  4 active torsions:
REMARK  status: ('A' for Active; 'I' for Inactive)
REMARK    1  A    between atoms: C_1  and  C_2
REMARK    2  A    between atoms: C_5  and  C_6
REMARK    3  A    between atoms: C_6  and  C_7
REMARK    4  A    between atoms: C_6  and  C_16
REMARK                            x       y       z     vdW  Elec       q    Type
REMARK                         _______ _______ _______ _____ _____    ______ ____
ROOT
ATOM      1  C   UNL     1       0.517  10.891  18.645  0.00  0.00    +0.000 C 
ENDROOT
BRANCH   1   2
ATOM      2  C   UNL     1       0.875   9.679  19.473  0.00  0.00    +0.000 A 
ATOM      3  C   UNL     1       0.445   9.370  20.756  0.00  0.00    +0.000 A 
ATOM      4  N   UNL     1       1.005   8.183  21.134  0.00  0.00    +0.000 N 
ATOM      5  C   UNL     1       1.790   7.684  20.124  0.00  0.00    +0.000 A 
ATOM      6  C   UNL     1       2.548   6.507  20.075  0.00  0.00    +0.000 A 
ATOM      7  C   UNL     1       3.259   6.242  18.901  0.00  0.00    +0.000 A 
ATOM      8  C   UNL     1       3.208   7.117  17.821  0.00  0.00    +0.000 A 
ATOM      9  C   UNL     1       2.445   8.292  17.888  0.00  0.00    +0.000 A 
ATOM     10  C   UNL     1       1.724   8.589  19.064  0.00  0.00    +0.000 A 
ATOM     11  H   UNL     1       0.863   7.732  22.026  0.00  0.00    +0.000 HD
ENDBRANCH   1   2
BRANCH   1  12
ATOM     12  C   UNL     1      -0.926  11.356  18.746  0.00  0.00    +0.000 A 
ATOM     13  C   UNL     1      -1.518  12.214  19.663  0.00  0.00    +0.000 A 
ATOM     14  N   UNL     1      -2.833  12.389  19.332  0.00  0.00    +0.000 N 
ATOM     15  C   UNL     1      -3.135  11.682  18.196  0.00  0.00    +0.000 A 
ATOM     16  C   UNL     1      -4.341  11.594  17.489  0.00  0.00    +0.000 A 
ATOM     17  C   UNL     1      -4.370  10.784  16.352  0.00  0.00    +0.000 A 
ATOM     18  C   UNL     1      -3.237  10.087  15.945  0.00  0.00    +0.000 A 
ATOM     19  C   UNL     1      -2.036  10.193  16.660  0.00  0.00    +0.000 A 
ATOM     20  C   UNL     1      -1.974  11.012  17.810  0.00  0.00    +0.000 A 
ATOM     21  H   UNL     1      -3.487  12.969  19.838  0.00  0.00    +0.000 HD
ENDBRANCH   1  12
BRANCH   1  26
ATOM     22  C   UNL     1       4.109  15.256  20.210  0.00  0.00    +0.000 C 
ATOM     23  C   UNL     1       3.213  14.122  19.815  0.00  0.00    +0.000 A 
ATOM     24  C   UNL     1       3.141  13.682  18.491  0.00  0.00    +0.000 A 
ATOM     25  C   UNL     1       2.276  12.641  18.131  0.00  0.00    +0.000 A 
ATOM     26  C   UNL     1       1.462  12.008  19.087  0.00  0.00    +0.000 A 
ATOM     27  C   UNL     1       1.558  12.451  20.420  0.00  0.00    +0.000 A 
ATOM     28  C   UNL     1       2.413  13.498  20.777  0.00  0.00    +0.000 A 
ENDBRANCH   1  26
TORSDOF 3
ENDMDL
MODEL 6
REMARK VINA RESULT:      -7.6      3.387      7.531
REMARK  Name = 
REMARK  4 active torsions:
REMARK  status: ('A' for Active; 'I' for Inactive)
REMARK    1  A    between atoms: C_1  and  C_2
REMARK    2  A    between atoms: C_5  and  C_6
REMARK    3  A    between atoms: C_6  and  C_7
REMARK    4  A    between atoms: C_6  and  C_16
REMARK                            x       y       z     vdW  Elec       q    Type
REMARK                         _______ _______ _______ _____ _____    ______ ____
ROOT
ATOM      1  C   UNL     1       0.750  10.885  18.922  0.00  0.00    +0.000 C 
ENDROOT
BRANCH   1   2
ATOM      2  C   UNL     1       1.045  12.146  19.699  0.00  0.00    +0.000 A 
ATOM      3  C   UNL     1       0.652  12.457  20.993  0.00  0.00    +0.000 A 
ATOM      4  N   UNL     1       1.130  13.697  21.312  0.00  0.00    +0.000 N 
ATOM      5  C   UNL     1       1.848  14.215  20.263  0.00  0.00    +0.000 A 
ATOM      6  C   UNL     1       2.508  15.445  20.147  0.00  0.00    +0.000 A 
ATOM      7  C   UNL     1       3.172  15.715  18.947  0.00  0.00    +0.000 A 
ATOM      8  C   UNL     1       3.179  14.788  17.909  0.00  0.00    +0.000 A 
ATOM      9  C   UNL     1       2.511  13.562  18.042  0.00  0.00    +0.000 A 
ATOM     10  C   UNL     1       1.824  13.267  19.239  0.00  0.00    +0.000 A 
ATOM     11  H   UNL     1       0.982  14.167  22.193  0.00  0.00    +0.000 HD
ENDBRANCH   1   2
BRANCH   1  12
ATOM     12  C   UNL     1       1.109   9.583  19.619  0.00  0.00    +0.000 A 
ATOM     13  C   UNL     1       0.699   9.096  20.853  0.00  0.00    +0.000 A 
ATOM     14  N   UNL     1       1.231   7.852  21.046  0.00  0.00    +0.000 N 
ATOM     15  C   UNL     1       1.976   7.479  19.956  0.00  0.00    +0.000 A 
ATOM     16  C   UNL     1       2.670   6.288  19.709  0.00  0.00    +0.000 A 
ATOM     17  C   UNL     1       3.359   6.176  18.500  0.00  0.00    +0.000 A 
ATOM     18  C   UNL     1       3.357   7.220  17.580  0.00  0.00    +0.000 A 
ATOM     19  C   UNL     1       2.650   8.402  17.840  0.00  0.00    +0.000 A 
ATOM     20  C   UNL     1       1.936   8.540  19.050  0.00  0.00    +0.000 A 
ATOM     21  H   UNL     1       1.085   7.278  21.865  0.00  0.00    +0.000 HD
ENDBRANCH   1  12
BRANCH   1  26
ATOM     22  C   UNL     1      -4.985  10.848  17.690  0.00  0.00    +0.000 C 
ATOM     23  C   UNL     1      -3.515  10.876  17.984  0.00  0.00    +0.000 A 
ATOM     24  C   UNL     1      -2.640   9.961  17.390  0.00  0.00    +0.000 A 
ATOM     25  C   UNL     1      -1.274   9.979  17.696  0.00  0.00    +0.000 A 
ATOM     26  C   UNL     1      -0.744  10.916  18.602  0.00  0.00    +0.000 A 
ATOM     27  C   UNL     1      -1.635  11.841  19.178  0.00  0.00    +0.000 A 
ATOM     28  C   UNL     1      -3.001  11.816  18.881  0.00  0.00    +0.000 A 
ENDBRANCH   1  26
TORSDOF 3
ENDMDL
MODEL 7
REMARK VINA RESULT:      -7.6      2.539      5.372
REMARK  Name = 
REMARK  4 active torsions:
REMARK  status: ('A' for Active; 'I' for Inactive)
REMARK    1  A    between atoms: C_1  and  C_2
REMARK    2  A    between atoms: C_5  and  C_6
REMARK    3  A    between atoms: C_6  and  C_7
REMARK    4  A    between atoms: C_6  and  C_16
REMARK                            x       y       z     vdW  Elec       q    Type
REMARK                         _______ _______ _______ _____ _____    ______ ____
ROOT
ATOM      1  C   UNL     1       4.092   4.567  17.096  0.00  0.00    +0.000 C 
ENDROOT
BRANCH   1   2
ATOM      2  C   UNL     1       5.387   4.831  16.364  0.00  0.00    +0.000 A 
ATOM      3  C   UNL     1       6.536   5.428  16.861  0.00  0.00    +0.000 A 
ATOM      4  N   UNL     1       7.473   5.474  15.867  0.00  0.00    +0.000 N 
ATOM      5  C   UNL     1       6.979   4.906  14.720  0.00  0.00    +0.000 A 
ATOM      6  C   UNL     1       7.584   4.739  13.468  0.00  0.00    +0.000 A 
ATOM      7  C   UNL     1       6.838   4.114  12.465  0.00  0.00    +0.000 A 
ATOM      8  C   UNL     1       5.542   3.670  12.708  0.00  0.00    +0.000 A 
ATOM      9  C   UNL     1       4.951   3.847  13.968  0.00  0.00    +0.000 A 
ATOM     10  C   UNL     1       5.678   4.483  14.997  0.00  0.00    +0.000 A 
ATOM     11  H   UNL     1       8.399   5.866  15.961  0.00  0.00    +0.000 HD
ENDBRANCH   1   2
BRANCH   1  12
ATOM     12  C   UNL     1       4.213   3.758  18.377  0.00  0.00    +0.000 A 
ATOM     13  C   UNL     1       5.342   3.222  18.983  0.00  0.00    +0.000 A 
ATOM     14  N   UNL     1       4.980   2.618  20.155  0.00  0.00    +0.000 N 
ATOM     15  C   UNL     1       3.631   2.754  20.363  0.00  0.00    +0.000 A 
ATOM     16  C   UNL     1       2.841   2.322  21.436  0.00  0.00    +0.000 A 
ATOM     17  C   UNL     1       1.473   2.595  21.387  0.00  0.00    +0.000 A 
ATOM     18  C   UNL     1       0.919   3.269  20.302  0.00  0.00    +0.000 A 
ATOM     19  C   UNL     1       1.726   3.701  19.240  0.00  0.00    +0.000 A 
ATOM     20  C   UNL     1       3.115   3.448  19.267  0.00  0.00    +0.000 A 
ATOM     21  H   UNL     1       5.614   2.152  20.788  0.00  0.00    +0.000 HD
ENDBRANCH   1  12
BRANCH   1  26
ATOM     22  C   UNL     1       1.812   9.874  18.115  0.00  0.00    +0.000 C 
ATOM     23  C   UNL     1       2.403   8.517  17.882  0.00  0.00    +0.000 A 
ATOM     24  C   UNL     1       3.732   8.364  17.477  0.00  0.00    +0.000 A 
ATOM     25  C   UNL     1       4.262   7.091  17.233  0.00  0.00    +0.000 A 
ATOM     26  C   UNL     1       3.478   5.934  17.393  0.00  0.00    +0.000 A 
ATOM     27  C   UNL     1       2.147   6.103  17.819  0.00  0.00    +0.000 A 
ATOM     28  C   UNL     1       1.615   7.375  18.051  0.00  0.00    +0.000 A 
ENDBRANCH   1  26
TORSDOF 3
ENDMDL
MODEL 8
REMARK VINA RESULT:      -7.5      3.326      6.677
REMARK  Name = 
REMARK  4 active torsions:
REMARK  status: ('A' for Active; 'I' for Inactive)
REMARK    1  A    between atoms: C_1  and  C_2
REMARK    2  A    between atoms: C_5  and  C_6
REMARK    3  A    between atoms: C_6  and  C_7
REMARK    4  A    between atoms: C_6  and  C_16
REMARK                            x       y       z     vdW  Elec       q    Type
REMARK                         _______ _______ _______ _____ _____    ______ ____
ROOT
ATOM      1  C   UNL     1       5.061   5.220  17.162  0.00  0.00    +0.000 C 
ENDROOT
BRANCH   1   2
ATOM      2  C   UNL     1       4.211   4.082  17.677  0.00  0.00    +0.000 A 
ATOM      3  C   UNL     1       4.279   2.743  17.320  0.00  0.00    +0.000 A 
ATOM      4  N   UNL     1       3.331   2.053  18.021  0.00  0.00    +0.000 N 
ATOM      5  C   UNL     1       2.641   2.900  18.852  0.00  0.00    +0.000 A 
ATOM      6  C   UNL     1       1.594   2.630  19.742  0.00  0.00    +0.000 A 
ATOM      7  C   UNL     1       1.073   3.700  20.475  0.00  0.00    +0.000 A 
ATOM      8  C   UNL     1       1.585   4.985  20.327  0.00  0.00    +0.000 A 
ATOM      9  C   UNL     1       2.633   5.238  19.431  0.00  0.00    +0.000 A 
ATOM     10  C   UNL     1       3.172   4.178  18.670  0.00  0.00    +0.000 A 
ATOM     11  H   UNL     1       3.162   1.060  17.946  0.00  0.00    +0.000 HD
ENDBRANCH   1   2
BRANCH   1  12
ATOM     12  C   UNL     1       6.222   5.631  18.051  0.00  0.00    +0.000 A 
ATOM     13  C   UNL     1       6.905   4.896  19.012  0.00  0.00    +0.000 A 
ATOM     14  N   UNL     1       7.918   5.657  19.524  0.00  0.00    +0.000 N 
ATOM     15  C   UNL     1       7.946   6.885  18.914  0.00  0.00    +0.000 A 
ATOM     16  C   UNL     1       8.825   7.960  19.101  0.00  0.00    +0.000 A 
ATOM     17  C   UNL     1       8.616   9.110  18.337  0.00  0.00    +0.000 A 
ATOM     18  C   UNL     1       7.566   9.180  17.427  0.00  0.00    +0.000 A 
ATOM     19  C   UNL     1       6.702   8.091  17.246  0.00  0.00    +0.000 A 
ATOM     20  C   UNL     1       6.893   6.911  17.998  0.00  0.00    +0.000 A 
ATOM     21  H   UNL     1       8.566   5.356  20.238  0.00  0.00    +0.000 HD
ENDBRANCH   1  12
BRANCH   1  26
ATOM     22  C   UNL     1       6.914   3.616  11.833  0.00  0.00    +0.000 C 
ATOM     23  C   UNL     1       6.444   3.999  13.203  0.00  0.00    +0.000 A 
ATOM     24  C   UNL     1       5.094   3.920  13.555  0.00  0.00    +0.000 A 
ATOM     25  C   UNL     1       4.665   4.310  14.830  0.00  0.00    +0.000 A 
ATOM     26  C   UNL     1       5.576   4.786  15.790  0.00  0.00    +0.000 A 
ATOM     27  C   UNL     1       6.935   4.842  15.427  0.00  0.00    +0.000 A 
ATOM     28  C   UNL     1       7.361   4.464  14.150  0.00  0.00    +0.000 A 
ENDBRANCH   1  26
TORSDOF 3
ENDMDL
MODEL 9
REMARK VINA RESULT:      -7.5      1.704      5.941
REMARK  Name = 
REMARK  4 active torsions:
REMARK  status: ('A' for Active; 'I' for Inactive)
REMARK    1  A    between atoms: C_1  and  C_2
REMARK    2  A    between atoms: C_5  and  C_6
REMARK    3  A    between atoms: C_6  and  C_7
REMARK    4  A    between atoms: C_6  and  C_16
REMARK                            x       y       z     vdW  Elec       q    Type
REMARK                         _______ _______ _______ _____ _____    ______ ____
ROOT
ATOM      1  C   UNL     1       3.301   6.189  18.708  0.00  0.00    +0.000 C 
ENDROOT
BRANCH   1   2
ATOM      2  C   UNL     1       2.680   7.538  18.429  0.00  0.00    +0.000 A 
ATOM      3  C   UNL     1       2.748   8.277  17.258  0.00  0.00    +0.000 A 
ATOM      4  N   UNL     1       2.049   9.438  17.430  0.00  0.00    +0.000 N 
ATOM      5  C   UNL     1       1.502   9.484  18.688  0.00  0.00    +0.000 A 
ATOM      6  C   UNL     1       0.718  10.475  19.291  0.00  0.00    +0.000 A 
ATOM      7  C   UNL     1       0.288  10.254  20.603  0.00  0.00    +0.000 A 
ATOM      8  C   UNL     1       0.626   9.086  21.278  0.00  0.00    +0.000 A 
ATOM      9  C   UNL     1       1.413   8.104  20.660  0.00  0.00    +0.000 A 
ATOM     10  C   UNL     1       1.868   8.305  19.339  0.00  0.00    +0.000 A 
ATOM     11  H   UNL     1       1.944  10.162  16.732  0.00  0.00    +0.000 HD
ENDBRANCH   1   2
BRANCH   1  12
ATOM     12  C   UNL     1       2.333   5.019  18.772  0.00  0.00    +0.000 A 
ATOM     13  C   UNL     1       1.541   4.469  17.773  0.00  0.00    +0.000 A 
ATOM     14  N   UNL     1       0.871   3.388  18.274  0.00  0.00    +0.000 N 
ATOM     15  C   UNL     1       1.211   3.184  19.587  0.00  0.00    +0.000 A 
ATOM     16  C   UNL     1       0.794   2.186  20.477  0.00  0.00    +0.000 A 
ATOM     17  C   UNL     1       1.303   2.221  21.777  0.00  0.00    +0.000 A 
ATOM     18  C   UNL     1       2.188   3.220  22.169  0.00  0.00    +0.000 A 
ATOM     19  C   UNL     1       2.601   4.206  21.262  0.00  0.00    +0.000 A 
ATOM     20  C   UNL     1       2.111   4.192  19.938  0.00  0.00    +0.000 A 
ATOM     21  H   UNL     1       0.229   2.809  17.751  0.00  0.00    +0.000 HD
ENDBRANCH   1  12
BRANCH   1  26
ATOM     22  C   UNL     1       7.161   5.236  14.395  0.00  0.00    +0.000 C 
ATOM     23  C   UNL     1       6.192   5.466  15.516  0.00  0.00    +0.000 A 
ATOM     24  C   UNL     1       5.173   4.549  15.792  0.00  0.00    +0.000 A 
ATOM     25  C   UNL     1       4.256   4.792  16.823  0.00  0.00    +0.000 A 
ATOM     26  C   UNL     1       4.336   5.956  17.608  0.00  0.00    +0.000 A 
ATOM     27  C   UNL     1       5.378   6.861  17.328  0.00  0.00    +0.000 A 
ATOM     28  C   UNL     1       6.286   6.624  16.292  0.00  0.00    +0.000 A 
ENDBRANCH   1  26
TORSDOF 3
ENDMDL
