MODEL 1
REMARK VINA RESULT:      -9.2      0.000      0.000
REMARK  Name = 
REMARK  12 active torsions:
REMARK  status: ('A' for Active; 'I' for Inactive)
REMARK    1  A    between atoms: C_1  and  O_2
REMARK    2  A    between atoms: O_2  and  C_3
REMARK    3  A    between atoms: C_6  and  C_7
REMARK    4  A    between atoms: C_8  and  C_9
REMARK    5  A    between atoms: C_9  and  O_10
REMARK    6  A    between atoms: C_11  and  C_12
REMARK    7  A    between atoms: C_12  and  C_14
REMARK    8  A    between atoms: C_15  and  C_16
REMARK    9  A    between atoms: C_17  and  C_18
REMARK   10  A    between atoms: C_22  and  C_23
REMARK   11  A    between atoms: C_22  and  C_24
REMARK   12  A    between atoms: C_26  and  O_27
REMARK                            x       y       z     vdW  Elec       q    Type
REMARK                         _______ _______ _______ _____ _____    ______ ____
ROOT
ATOM      1  C   UNL     1       7.464   7.480  17.541  0.00  0.00    +0.000 C 
ATOM      2  C   UNL     1       7.642   6.466  18.409  0.00  0.00    +0.000 C 
ENDROOT
BRANCH   1   4
ATOM      3  C   UNL     1       8.788   9.218  18.801  0.00  0.00    +0.000 C 
ATOM      4  C   UNL     1       8.088   8.787  17.731  0.00  0.00    +0.000 C 
BRANCH   3   8
ATOM      5  C   UNL     1      10.503  13.161  19.281  0.00  0.00    +0.000 A 
ATOM      6  C   UNL     1      10.656  12.178  20.267  0.00  0.00    +0.000 A 
ATOM      7  C   UNL     1      10.095  10.901  20.107  0.00  0.00    +0.000 A 
ATOM      8  C   UNL     1       9.352  10.580  18.962  0.00  0.00    +0.000 A 
ATOM      9  C   UNL     1       9.207  11.567  17.978  0.00  0.00    +0.000 A 
ATOM     10  C   UNL     1       9.768  12.840  18.136  0.00  0.00    +0.000 A 
BRANCH   5  12
ATOM     11  C   UNL     1      10.595  15.095  20.669  0.00  0.00    +0.000 C 
ATOM     12  O   UNL     1      11.118  14.350  19.577  0.00  0.00    +0.000 OA
ENDBRANCH   5  12
BRANCH  10  13
ATOM     13  O   UNL     1       9.561  13.749  17.134  0.00  0.00    +0.000 OA
ATOM     14  H   UNL     1      10.280  13.689  16.486  0.00  0.00    +0.000 HD
ENDBRANCH  10  13
ENDBRANCH   3   8
ENDBRANCH   1   4
BRANCH   1  15
ATOM     15  O   UNL     1       6.637   7.333  16.450  0.00  0.00    +0.000 OA
ATOM     16  H   UNL     1       6.990   6.681  15.829  0.00  0.00    +0.000 HD
ENDBRANCH   1  15
BRANCH   2  17
ATOM     17  C   UNL     1       7.004   5.119  18.229  0.00  0.00    +0.000 C 
ATOM     18  O   UNL     1       7.340   4.312  17.383  0.00  0.00    +0.000 OA
BRANCH  17  19
ATOM     19  C   UNL     1       5.869   4.827  19.156  0.00  0.00    +0.000 C 
ATOM     20  C   UNL     1       4.804   4.155  18.681  0.00  0.00    +0.000 C 
BRANCH  20  21
ATOM     21  C   UNL     1       3.580   3.892  19.437  0.00  0.00    +0.000 C 
ATOM     22  C   UNL     1       3.490   2.839  20.289  0.00  0.00    +0.000 C 
ATOM     23  C   UNL     1       4.630   1.924  20.678  0.00  0.00    +0.000 C 
ATOM     24  C   UNL     1       2.206   2.471  21.000  0.00  0.00    +0.000 C 
ATOM     25  C   UNL     1       0.973   3.197  20.482  0.00  0.00    +0.000 C 
ATOM     26  C   UNL     1       1.286   4.672  20.296  0.00  0.00    +0.000 C 
ATOM     27  C   UNL     1       2.417   4.905  19.253  0.00  0.00    +0.000 C 
ATOM     28  C   UNL     1       2.865   6.376  19.446  0.00  0.00    +0.000 C 
ATOM     29  C   UNL     1       1.826   4.767  17.834  0.00  0.00    +0.000 C 
ENDBRANCH  20  21
ENDBRANCH  17  19
ENDBRANCH   2  17
TORSDOF 8
ENDMDL
MODEL 2
REMARK VINA RESULT:      -9.1      0.712      1.297
REMARK  Name = 
REMARK  12 active torsions:
REMARK  status: ('A' for Active; 'I' for Inactive)
REMARK    1  A    between atoms: C_1  and  O_2
REMARK    2  A    between atoms: O_2  and  C_3
REMARK    3  A    between atoms: C_6  and  C_7
REMARK    4  A    between atoms: C_8  and  C_9
REMARK    5  A    between atoms: C_9  and  O_10
REMARK    6  A    between atoms: C_11  and  C_12
REMARK    7  A    between atoms: C_12  and  C_14
REMARK    8  A    between atoms: C_15  and  C_16
REMARK    9  A    between atoms: C_17  and  C_18
REMARK   10  A    between atoms: C_22  and  C_23
REMARK   11  A    between atoms: C_22  and  C_24
REMARK   12  A    between atoms: C_26  and  O_27
REMARK                            x       y       z     vdW  Elec       q    Type
REMARK                         _______ _______ _______ _____ _____    ______ ____
ROOT
ATOM      1  C   UNL     1       7.423   7.564  17.611  0.00  0.00    +0.000 C 
ATOM      2  C   UNL     1       7.638   6.517  18.431  0.00  0.00    +0.000 C 
ENDROOT
BRANCH   1   4
ATOM      3  C   UNL     1       8.905   9.213  18.814  0.00  0.00    +0.000 C 
ATOM      4  C   UNL     1       8.042   8.868  17.836  0.00  0.00    +0.000 C 
BRANCH   3   8
ATOM      5  C   UNL     1      10.473  13.207  19.379  0.00  0.00    +0.000 A 
ATOM      6  C   UNL     1      10.508  12.583  18.125  0.00  0.00    +0.000 A 
ATOM      7  C   UNL     1      10.001  11.287  17.948  0.00  0.00    +0.000 A 
ATOM      8  C   UNL     1       9.458  10.573  19.027  0.00  0.00    +0.000 A 
ATOM      9  C   UNL     1       9.422  11.204  20.277  0.00  0.00    +0.000 A 
ATOM     10  C   UNL     1       9.927  12.498  20.454  0.00  0.00    +0.000 A 
BRANCH   5  12
ATOM     11  C   UNL     1      10.113  15.539  19.054  0.00  0.00    +0.000 C 
ATOM     12  O   UNL     1      10.994  14.474  19.388  0.00  0.00    +0.000 OA
ENDBRANCH   5  12
BRANCH  10  13
ATOM     13  O   UNL     1       9.868  13.031  21.713  0.00  0.00    +0.000 OA
ATOM     14  H   UNL     1       9.018  12.809  22.122  0.00  0.00    +0.000 HD
ENDBRANCH  10  13
ENDBRANCH   3   8
ENDBRANCH   1   4
BRANCH   1  15
ATOM     15  O   UNL     1       6.564   7.454  16.542  0.00  0.00    +0.000 OA
ATOM     16  H   UNL     1       5.667   7.243  16.834  0.00  0.00    +0.000 HD
ENDBRANCH   1  15
BRANCH   2  17
ATOM     17  C   UNL     1       7.007   5.172  18.214  0.00  0.00    +0.000 C 
ATOM     18  O   UNL     1       7.342   4.393  17.343  0.00  0.00    +0.000 OA
BRANCH  17  19
ATOM     19  C   UNL     1       5.880   4.846  19.140  0.00  0.00    +0.000 C 
ATOM     20  C   UNL     1       4.803   4.207  18.646  0.00  0.00    +0.000 C 
BRANCH  20  21
ATOM     21  C   UNL     1       3.585   3.919  19.403  0.00  0.00    +0.000 C 
ATOM     22  C   UNL     1       3.507   2.846  20.230  0.00  0.00    +0.000 C 
ATOM     23  C   UNL     1       4.654   1.927  20.589  0.00  0.00    +0.000 C 
ATOM     24  C   UNL     1       2.229   2.453  20.940  0.00  0.00    +0.000 C 
ATOM     25  C   UNL     1       0.989   3.185  20.448  0.00  0.00    +0.000 C 
ATOM     26  C   UNL     1       1.293   4.665  20.296  0.00  0.00    +0.000 C 
ATOM     27  C   UNL     1       2.416   4.930  19.251  0.00  0.00    +0.000 C 
ATOM     28  C   UNL     1       2.857   6.398  19.478  0.00  0.00    +0.000 C 
ATOM     29  C   UNL     1       1.816   4.823  17.833  0.00  0.00    +0.000 C 
ENDBRANCH  20  21
ENDBRANCH  17  19
ENDBRANCH   2  17
TORSDOF 8
ENDMDL
MODEL 3
REMARK VINA RESULT:      -9.1      1.308      2.240
REMARK  Name = 
REMARK  12 active torsions:
REMARK  status: ('A' for Active; 'I' for Inactive)
REMARK    1  A    between atoms: C_1  and  O_2
REMARK    2  A    between atoms: O_2  and  C_3
REMARK    3  A    between atoms: C_6  and  C_7
REMARK    4  A    between atoms: C_8  and  C_9
REMARK    5  A    between atoms: C_9  and  O_10
REMARK    6  A    between atoms: C_11  and  C_12
REMARK    7  A    between atoms: C_12  and  C_14
REMARK    8  A    between atoms: C_15  and  C_16
REMARK    9  A    between atoms: C_17  and  C_18
REMARK   10  A    between atoms: C_22  and  C_23
REMARK   11  A    between atoms: C_22  and  C_24
REMARK   12  A    between atoms: C_26  and  O_27
REMARK                            x       y       z     vdW  Elec       q    Type
REMARK                         _______ _______ _______ _____ _____    ______ ____
ROOT
ATOM      1  C   UNL     1       7.916   7.368  18.234  0.00  0.00    +0.000 C 
ATOM      2  C   UNL     1       7.187   6.696  17.322  0.00  0.00    +0.000 C 
ENDROOT
BRANCH   1   4
ATOM      3  C   UNL     1       9.166   9.503  18.722  0.00  0.00    +0.000 C 
ATOM      4  C   UNL     1       8.193   8.797  18.110  0.00  0.00    +0.000 C 
BRANCH   3   8
ATOM      5  C   UNL     1       9.816  13.764  18.341  0.00  0.00    +0.000 A 
ATOM      6  C   UNL     1      10.713  12.953  19.047  0.00  0.00    +0.000 A 
ATOM      7  C   UNL     1      10.496  11.572  19.171  0.00  0.00    +0.000 A 
ATOM      8  C   UNL     1       9.365  10.967  18.602  0.00  0.00    +0.000 A 
ATOM      9  C   UNL     1       8.474  11.784  17.893  0.00  0.00    +0.000 A 
ATOM     10  C   UNL     1       8.691  13.162  17.769  0.00  0.00    +0.000 A 
BRANCH   5  12
ATOM     11  C   UNL     1      11.372  15.414  17.610  0.00  0.00    +0.000 C 
ATOM     12  O   UNL     1      10.171  15.087  18.300  0.00  0.00    +0.000 OA
ENDBRANCH   5  12
BRANCH  10  13
ATOM     13  O   UNL     1       7.761  13.887  17.075  0.00  0.00    +0.000 OA
ATOM     14  H   UNL     1       7.470  14.641  17.610  0.00  0.00    +0.000 HD
ENDBRANCH  10  13
ENDBRANCH   3   8
ENDBRANCH   1   4
BRANCH   1  15
ATOM     15  O   UNL     1       8.473   6.712  19.309  0.00  0.00    +0.000 OA
ATOM     16  H   UNL     1       8.808   7.339  19.965  0.00  0.00    +0.000 HD
ENDBRANCH   1  15
BRANCH   2  17
ATOM     17  C   UNL     1       6.898   5.227  17.435  0.00  0.00    +0.000 C 
ATOM     18  O   UNL     1       7.422   4.373  16.746  0.00  0.00    +0.000 OA
BRANCH  17  19
ATOM     19  C   UNL     1       5.866   4.862  18.452  0.00  0.00    +0.000 C 
ATOM     20  C   UNL     1       4.605   4.634  18.040  0.00  0.00    +0.000 C 
BRANCH  20  21
ATOM     21  C   UNL     1       3.473   4.375  18.929  0.00  0.00    +0.000 C 
ATOM     22  C   UNL     1       2.717   5.389  19.422  0.00  0.00    +0.000 C 
ATOM     23  C   UNL     1       2.832   6.845  19.025  0.00  0.00    +0.000 C 
ATOM     24  C   UNL     1       1.611   5.168  20.431  0.00  0.00    +0.000 C 
ATOM     25  C   UNL     1       1.594   3.776  21.046  0.00  0.00    +0.000 C 
ATOM     26  C   UNL     1       1.786   2.732  19.960  0.00  0.00    +0.000 C 
ATOM     27  C   UNL     1       3.153   2.885  19.232  0.00  0.00    +0.000 C 
ATOM     28  C   UNL     1       3.042   2.022  17.951  0.00  0.00    +0.000 C 
ATOM     29  C   UNL     1       4.263   2.285  20.120  0.00  0.00    +0.000 C 
ENDBRANCH  20  21
ENDBRANCH  17  19
ENDBRANCH   2  17
TORSDOF 8
ENDMDL
MODEL 4
REMARK VINA RESULT:      -9.0      1.287      2.501
REMARK  Name = 
REMARK  12 active torsions:
REMARK  status: ('A' for Active; 'I' for Inactive)
REMARK    1  A    between atoms: C_1  and  O_2
REMARK    2  A    between atoms: O_2  and  C_3
REMARK    3  A    between atoms: C_6  and  C_7
REMARK    4  A    between atoms: C_8  and  C_9
REMARK    5  A    between atoms: C_9  and  O_10
REMARK    6  A    between atoms: C_11  and  C_12
REMARK    7  A    between atoms: C_12  and  C_14
REMARK    8  A    between atoms: C_15  and  C_16
REMARK    9  A    between atoms: C_17  and  C_18
REMARK   10  A    between atoms: C_22  and  C_23
REMARK   11  A    between atoms: C_22  and  C_24
REMARK   12  A    between atoms: C_26  and  O_27
REMARK                            x       y       z     vdW  Elec       q    Type
REMARK                         _______ _______ _______ _____ _____    ______ ____
ROOT
ATOM      1  C   UNL     1       7.990   7.417  18.205  0.00  0.00    +0.000 C 
ATOM      2  C   UNL     1       7.234   6.757  17.306  0.00  0.00    +0.000 C 
ENDROOT
BRANCH   1   4
ATOM      3  C   UNL     1       9.100   9.586  18.854  0.00  0.00    +0.000 C 
ATOM      4  C   UNL     1       8.287   8.841  18.076  0.00  0.00    +0.000 C 
BRANCH   3   8
ATOM      5  C   UNL     1       9.669  13.856  18.446  0.00  0.00    +0.000 A 
ATOM      6  C   UNL     1       8.746  13.167  17.649  0.00  0.00    +0.000 A 
ATOM      7  C   UNL     1       8.568  11.782  17.783  0.00  0.00    +0.000 A 
ATOM      8  C   UNL     1       9.321  11.046  18.710  0.00  0.00    +0.000 A 
ATOM      9  C   UNL     1      10.240  11.742  19.507  0.00  0.00    +0.000 A 
ATOM     10  C   UNL     1      10.417  13.125  19.374  0.00  0.00    +0.000 A 
BRANCH   5  12
ATOM     11  C   UNL     1      10.743  15.670  17.334  0.00  0.00    +0.000 C 
ATOM     12  O   UNL     1       9.719  15.205  18.205  0.00  0.00    +0.000 OA
ENDBRANCH   5  12
BRANCH  10  13
ATOM     13  O   UNL     1      11.348  13.721  20.179  0.00  0.00    +0.000 OA
ATOM     14  H   UNL     1      11.954  13.050  20.529  0.00  0.00    +0.000 HD
ENDBRANCH  10  13
ENDBRANCH   3   8
ENDBRANCH   1   4
BRANCH   1  15
ATOM     15  O   UNL     1       8.556   6.752  19.269  0.00  0.00    +0.000 OA
ATOM     16  H   UNL     1       8.626   5.804  19.092  0.00  0.00    +0.000 HD
ENDBRANCH   1  15
BRANCH   2  17
ATOM     17  C   UNL     1       6.923   5.293  17.424  0.00  0.00    +0.000 C 
ATOM     18  O   UNL     1       7.438   4.429  16.741  0.00  0.00    +0.000 OA
BRANCH  17  19
ATOM     19  C   UNL     1       5.883   4.947  18.440  0.00  0.00    +0.000 C 
ATOM     20  C   UNL     1       4.669   4.554  18.012  0.00  0.00    +0.000 C 
BRANCH  20  21
ATOM     21  C   UNL     1       3.525   4.287  18.883  0.00  0.00    +0.000 C 
ATOM     22  C   UNL     1       2.740   5.295  19.344  0.00  0.00    +0.000 C 
ATOM     23  C   UNL     1       2.835   6.745  18.923  0.00  0.00    +0.000 C 
ATOM     24  C   UNL     1       1.620   5.069  20.336  0.00  0.00    +0.000 C 
ATOM     25  C   UNL     1       1.618   3.688  20.975  0.00  0.00    +0.000 C 
ATOM     26  C   UNL     1       1.850   2.629  19.911  0.00  0.00    +0.000 C 
ATOM     27  C   UNL     1       3.228   2.797  19.207  0.00  0.00    +0.000 C 
ATOM     28  C   UNL     1       3.158   1.910  17.939  0.00  0.00    +0.000 C 
ATOM     29  C   UNL     1       4.332   2.234  20.126  0.00  0.00    +0.000 C 
ENDBRANCH  20  21
ENDBRANCH  17  19
ENDBRANCH   2  17
TORSDOF 8
ENDMDL
MODEL 5
REMARK VINA RESULT:      -9.0      0.847      1.953
REMARK  Name = 
REMARK  12 active torsions:
REMARK  status: ('A' for Active; 'I' for Inactive)
REMARK    1  A    between atoms: C_1  and  O_2
REMARK    2  A    between atoms: O_2  and  C_3
REMARK    3  A    between atoms: C_6  and  C_7
REMARK    4  A    between atoms: C_8  and  C_9
REMARK    5  A    between atoms: C_9  and  O_10
REMARK    6  A    between atoms: C_11  and  C_12
REMARK    7  A    between atoms: C_12  and  C_14
REMARK    8  A    between atoms: C_15  and  C_16
REMARK    9  A    between atoms: C_17  and  C_18
REMARK   10  A    between atoms: C_22  and  C_23
REMARK   11  A    between atoms: C_22  and  C_24
REMARK   12  A    between atoms: C_26  and  O_27
REMARK                            x       y       z     vdW  Elec       q    Type
REMARK                         _______ _______ _______ _____ _____    ______ ____
ROOT
ATOM      1  C   UNL     1       7.751   7.366  17.722  0.00  0.00    +0.000 C 
ATOM      2  C   UNL     1       7.462   6.493  18.706  0.00  0.00    +0.000 C 
ENDROOT
BRANCH   1   4
ATOM      3  C   UNL     1       9.003   9.263  18.815  0.00  0.00    +0.000 C 
ATOM      4  C   UNL     1       8.055   8.769  17.991  0.00  0.00    +0.000 C 
BRANCH   3   8
ATOM      5  C   UNL     1       9.732  13.445  19.654  0.00  0.00    +0.000 A 
ATOM      6  C   UNL     1       9.752  12.485  20.674  0.00  0.00    +0.000 A 
ATOM      7  C   UNL     1       9.512  11.131  20.397  0.00  0.00    +0.000 A 
ATOM      8  C   UNL     1       9.230  10.703  19.092  0.00  0.00    +0.000 A 
ATOM      9  C   UNL     1       9.215  11.667  18.076  0.00  0.00    +0.000 A 
ATOM     10  C   UNL     1       9.456  13.019  18.352  0.00  0.00    +0.000 A 
BRANCH   5  12
ATOM     11  C   UNL     1       8.886  15.511  20.488  0.00  0.00    +0.000 C 
ATOM     12  O   UNL     1       9.997  14.720  20.081  0.00  0.00    +0.000 OA
ENDBRANCH   5  12
BRANCH  10  13
ATOM     13  O   UNL     1       9.405  13.896  17.302  0.00  0.00    +0.000 OA
ATOM     14  H   UNL     1       8.891  14.678  17.556  0.00  0.00    +0.000 HD
ENDBRANCH  10  13
ENDBRANCH   3   8
ENDBRANCH   1   4
BRANCH   1  15
ATOM     15  O   UNL     1       7.724   6.972  16.404  0.00  0.00    +0.000 OA
ATOM     16  H   UNL     1       7.824   7.729  15.810  0.00  0.00    +0.000 HD
ENDBRANCH   1  15
BRANCH   2  17
ATOM     17  C   UNL     1       7.144   5.050  18.445  0.00  0.00    +0.000 C 
ATOM     18  O   UNL     1       7.769   4.340  17.680  0.00  0.00    +0.000 OA
BRANCH  17  19
ATOM     19  C   UNL     1       5.952   4.522  19.175  0.00  0.00    +0.000 C 
ATOM     20  C   UNL     1       4.741   4.629  18.597  0.00  0.00    +0.000 C 
BRANCH  20  21
ATOM     21  C   UNL     1       3.478   4.258  19.234  0.00  0.00    +0.000 C 
ATOM     22  C   UNL     1       2.597   5.201  19.655  0.00  0.00    +0.000 C 
ATOM     23  C   UNL     1       2.713   6.688  19.402  0.00  0.00    +0.000 C 
ATOM     24  C   UNL     1       1.336   4.858  20.418  0.00  0.00    +0.000 C 
ATOM     25  C   UNL     1       1.272   3.418  20.908  0.00  0.00    +0.000 C 
ATOM     26  C   UNL     1       1.710   2.479  19.798  0.00  0.00    +0.000 C 
ATOM     27  C   UNL     1       3.179   2.738  19.354  0.00  0.00    +0.000 C 
ATOM     28  C   UNL     1       3.347   1.985  18.010  0.00  0.00    +0.000 C 
ATOM     29  C   UNL     1       4.134   2.100  20.384  0.00  0.00    +0.000 C 
ENDBRANCH  20  21
ENDBRANCH  17  19
ENDBRANCH   2  17
TORSDOF 8
ENDMDL
MODEL 6
REMARK VINA RESULT:      -8.9      1.211      1.336
REMARK  Name = 
REMARK  12 active torsions:
REMARK  status: ('A' for Active; 'I' for Inactive)
REMARK    1  A    between atoms: C_1  and  O_2
REMARK    2  A    between atoms: O_2  and  C_3
REMARK    3  A    between atoms: C_6  and  C_7
REMARK    4  A    between atoms: C_8  and  C_9
REMARK    5  A    between atoms: C_9  and  O_10
REMARK    6  A    between atoms: C_11  and  C_12
REMARK    7  A    between atoms: C_12  and  C_14
REMARK    8  A    between atoms: C_15  and  C_16
REMARK    9  A    between atoms: C_17  and  C_18
REMARK   10  A    between atoms: C_22  and  C_23
REMARK   11  A    between atoms: C_22  and  C_24
REMARK   12  A    between atoms: C_26  and  O_27
REMARK                            x       y       z     vdW  Elec       q    Type
REMARK                         _______ _______ _______ _____ _____    ______ ____
ROOT
ATOM      1  C   UNL     1       7.933   7.285  18.183  0.00  0.00    +0.000 C 
ATOM      2  C   UNL     1       7.111   6.611  17.356  0.00  0.00    +0.000 C 
ENDROOT
BRANCH   1   4
ATOM      3  C   UNL     1       8.972   9.509  18.763  0.00  0.00    +0.000 C 
ATOM      4  C   UNL     1       8.337   8.665  17.923  0.00  0.00    +0.000 C 
BRANCH   3   8
ATOM      5  C   UNL     1      10.008  13.608  17.843  0.00  0.00    +0.000 A 
ATOM      6  C   UNL     1      10.962  12.713  18.345  0.00  0.00    +0.000 A 
ATOM      7  C   UNL     1      10.620  11.386  18.645  0.00  0.00    +0.000 A 
ATOM      8  C   UNL     1       9.308  10.922  18.464  0.00  0.00    +0.000 A 
ATOM      9  C   UNL     1       8.360  11.821  17.958  0.00  0.00    +0.000 A 
ATOM     10  C   UNL     1       8.702  13.145  17.657  0.00  0.00    +0.000 A 
BRANCH   5  12
ATOM     11  C   UNL     1      11.893  14.975  17.337  0.00  0.00    +0.000 C 
ATOM     12  O   UNL     1      10.498  14.863  17.589  0.00  0.00    +0.000 OA
ENDBRANCH   5  12
BRANCH  10  13
ATOM     13  O   UNL     1       7.709  13.960  17.184  0.00  0.00    +0.000 OA
ATOM     14  H   UNL     1       6.847  13.544  17.334  0.00  0.00    +0.000 HD
ENDBRANCH  10  13
ENDBRANCH   3   8
ENDBRANCH   1   4
BRANCH   1  15
ATOM     15  O   UNL     1       8.467   6.675  19.295  0.00  0.00    +0.000 OA
ATOM     16  H   UNL     1       8.031   6.977  20.103  0.00  0.00    +0.000 HD
ENDBRANCH   1  15
BRANCH   2  17
ATOM     17  C   UNL     1       6.690   5.192  17.608  0.00  0.00    +0.000 C 
ATOM     18  O   UNL     1       7.139   4.230  17.014  0.00  0.00    +0.000 OA
BRANCH  17  19
ATOM     19  C   UNL     1       5.626   5.022  18.643  0.00  0.00    +0.000 C 
ATOM     20  C   UNL     1       4.681   4.083  18.449  0.00  0.00    +0.000 C 
BRANCH  20  21
ATOM     21  C   UNL     1       3.522   3.875  19.317  0.00  0.00    +0.000 C 
ATOM     22  C   UNL     1       3.502   2.880  20.240  0.00  0.00    +0.000 C 
ATOM     23  C   UNL     1       4.670   1.986  20.594  0.00  0.00    +0.000 C 
ATOM     24  C   UNL     1       2.280   2.565  21.075  0.00  0.00    +0.000 C 
ATOM     25  C   UNL     1       1.009   3.263  20.612  0.00  0.00    +0.000 C 
ATOM     26  C   UNL     1       1.305   4.720  20.307  0.00  0.00    +0.000 C 
ATOM     27  C   UNL     1       2.348   4.880  19.163  0.00  0.00    +0.000 C 
ATOM     28  C   UNL     1       2.810   6.358  19.224  0.00  0.00    +0.000 C 
ATOM     29  C   UNL     1       1.644   4.654  17.808  0.00  0.00    +0.000 C 
ENDBRANCH  20  21
ENDBRANCH  17  19
ENDBRANCH   2  17
TORSDOF 8
ENDMDL
MODEL 7
REMARK VINA RESULT:      -8.8      1.123      1.352
REMARK  Name = 
REMARK  12 active torsions:
REMARK  status: ('A' for Active; 'I' for Inactive)
REMARK    1  A    between atoms: C_1  and  O_2
REMARK    2  A    between atoms: O_2  and  C_3
REMARK    3  A    between atoms: C_6  and  C_7
REMARK    4  A    between atoms: C_8  and  C_9
REMARK    5  A    between atoms: C_9  and  O_10
REMARK    6  A    between atoms: C_11  and  C_12
REMARK    7  A    between atoms: C_12  and  C_14
REMARK    8  A    between atoms: C_15  and  C_16
REMARK    9  A    between atoms: C_17  and  C_18
REMARK   10  A    between atoms: C_22  and  C_23
REMARK   11  A    between atoms: C_22  and  C_24
REMARK   12  A    between atoms: C_26  and  O_27
REMARK                            x       y       z     vdW  Elec       q    Type
REMARK                         _______ _______ _______ _____ _____    ______ ____
ROOT
ATOM      1  C   UNL     1       7.594   6.127  18.141  0.00  0.00    +0.000 C 
ATOM      2  C   UNL     1       6.679   5.959  17.168  0.00  0.00    +0.000 C 
ENDROOT
BRANCH   1   4
ATOM      3  C   UNL     1       8.076   8.583  17.828  0.00  0.00    +0.000 C 
ATOM      4  C   UNL     1       8.053   7.449  18.560  0.00  0.00    +0.000 C 
BRANCH   3   8
ATOM      5  C   UNL     1       9.698  12.363  19.173  0.00  0.00    +0.000 A 
ATOM      6  C   UNL     1       9.948  11.175  19.872  0.00  0.00    +0.000 A 
ATOM      7  C   UNL     1       9.417   9.952  19.434  0.00  0.00    +0.000 A 
ATOM      8  C   UNL     1       8.607   9.888  18.290  0.00  0.00    +0.000 A 
ATOM      9  C   UNL     1       8.364  11.079  17.593  0.00  0.00    +0.000 A 
ATOM     10  C   UNL     1       8.895  12.299  18.030  0.00  0.00    +0.000 A 
BRANCH   5  12
ATOM     11  C   UNL     1      11.627  13.753  19.312  0.00  0.00    +0.000 C 
ATOM     12  O   UNL     1      10.294  13.469  19.718  0.00  0.00    +0.000 OA
ENDBRANCH   5  12
BRANCH  10  13
ATOM     13  O   UNL     1       8.593  13.416  17.299  0.00  0.00    +0.000 OA
ATOM     14  H   UNL     1       7.658  13.643  17.422  0.00  0.00    +0.000 HD
ENDBRANCH  10  13
ENDBRANCH   3   8
ENDBRANCH   1   4
BRANCH   1  15
ATOM     15  O   UNL     1       8.174   5.040  18.755  0.00  0.00    +0.000 OA
ATOM     16  H   UNL     1       8.862   4.649  18.199  0.00  0.00    +0.000 HD
ENDBRANCH   1  15
BRANCH   2  17
ATOM     17  C   UNL     1       6.201   4.607  16.725  0.00  0.00    +0.000 C 
ATOM     18  O   UNL     1       6.787   3.904  15.925  0.00  0.00    +0.000 OA
BRANCH  17  19
ATOM     19  C   UNL     1       4.901   4.171  17.317  0.00  0.00    +0.000 C 
ATOM     20  C   UNL     1       4.610   4.539  18.580  0.00  0.00    +0.000 C 
BRANCH  20  21
ATOM     21  C   UNL     1       3.431   4.100  19.325  0.00  0.00    +0.000 C 
ATOM     22  C   UNL     1       3.453   2.970  20.078  0.00  0.00    +0.000 C 
ATOM     23  C   UNL     1       4.678   2.129  20.365  0.00  0.00    +0.000 C 
ATOM     24  C   UNL     1       2.222   2.425  20.769  0.00  0.00    +0.000 C 
ATOM     25  C   UNL     1       0.919   3.082  20.337  0.00  0.00    +0.000 C 
ATOM     26  C   UNL     1       1.096   4.589  20.283  0.00  0.00    +0.000 C 
ATOM     27  C   UNL     1       2.179   5.016  19.251  0.00  0.00    +0.000 C 
ATOM     28  C   UNL     1       2.500   6.498  19.573  0.00  0.00    +0.000 C 
ATOM     29  C   UNL     1       1.572   4.954  17.833  0.00  0.00    +0.000 C 
ENDBRANCH  20  21
ENDBRANCH  17  19
ENDBRANCH   2  17
TORSDOF 8
ENDMDL
MODEL 8
REMARK VINA RESULT:      -8.6      1.283      2.217
REMARK  Name = 
REMARK  12 active torsions:
REMARK  status: ('A' for Active; 'I' for Inactive)
REMARK    1  A    between atoms: C_1  and  O_2
REMARK    2  A    between atoms: O_2  and  C_3
REMARK    3  A    between atoms: C_6  and  C_7
REMARK    4  A    between atoms: C_8  and  C_9
REMARK    5  A    between atoms: C_9  and  O_10
REMARK    6  A    between atoms: C_11  and  C_12
REMARK    7  A    between atoms: C_12  and  C_14
REMARK    8  A    between atoms: C_15  and  C_16
REMARK    9  A    between atoms: C_17  and  C_18
REMARK   10  A    between atoms: C_22  and  C_23
REMARK   11  A    between atoms: C_22  and  C_24
REMARK   12  A    between atoms: C_26  and  O_27
REMARK                            x       y       z     vdW  Elec       q    Type
REMARK                         _______ _______ _______ _____ _____    ______ ____
ROOT
ATOM      1  C   UNL     1       7.336   6.635  17.565  0.00  0.00    +0.000 C 
ATOM      2  C   UNL     1       6.495   6.194  16.611  0.00  0.00    +0.000 C 
ENDROOT
BRANCH   1   4
ATOM      3  C   UNL     1       8.575   8.593  18.561  0.00  0.00    +0.000 C 
ATOM      4  C   UNL     1       7.713   8.042  17.682  0.00  0.00    +0.000 C 
BRANCH   3   8
ATOM      5  C   UNL     1       9.528  12.802  18.878  0.00  0.00    +0.000 A 
ATOM      6  C   UNL     1      10.034  11.872  19.795  0.00  0.00    +0.000 A 
ATOM      7  C   UNL     1       9.719  10.509  19.690  0.00  0.00    +0.000 A 
ATOM      8  C   UNL     1       8.876  10.041  18.670  0.00  0.00    +0.000 A 
ATOM      9  C   UNL     1       8.378  10.976  17.754  0.00  0.00    +0.000 A 
ATOM     10  C   UNL     1       8.693  12.337  17.858  0.00  0.00    +0.000 A 
BRANCH   5  12
ATOM     11  C   UNL     1      11.255  14.275  19.604  0.00  0.00    +0.000 C 
ATOM     12  O   UNL     1       9.935  14.091  19.106  0.00  0.00    +0.000 OA
ENDBRANCH   5  12
BRANCH  10  13
ATOM     13  O   UNL     1       8.148  13.183  16.931  0.00  0.00    +0.000 OA
ATOM     14  H   UNL     1       7.188  13.049  16.892  0.00  0.00    +0.000 HD
ENDBRANCH  10  13
ENDBRANCH   3   8
ENDBRANCH   1   4
BRANCH   1  15
ATOM     15  O   UNL     1       7.917   5.756  18.451  0.00  0.00    +0.000 OA
ATOM     16  H   UNL     1       8.589   5.213  18.015  0.00  0.00    +0.000 HD
ENDBRANCH   1  15
BRANCH   2  17
ATOM     17  C   UNL     1       6.103   4.751  16.477  0.00  0.00    +0.000 C 
ATOM     18  O   UNL     1       6.444   4.033  15.555  0.00  0.00    +0.000 OA
BRANCH  17  19
ATOM     19  C   UNL     1       5.211   4.235  17.558  0.00  0.00    +0.000 C 
ATOM     20  C   UNL     1       3.980   4.766  17.687  0.00  0.00    +0.000 C 
BRANCH  20  21
ATOM     21  C   UNL     1       3.041   4.439  18.760  0.00  0.00    +0.000 C 
ATOM     22  C   UNL     1       2.426   5.412  19.479  0.00  0.00    +0.000 C 
ATOM     23  C   UNL     1       2.500   6.896  19.193  0.00  0.00    +0.000 C 
ATOM     24  C   UNL     1       1.538   5.113  20.668  0.00  0.00    +0.000 C 
ATOM     25  C   UNL     1       1.606   3.672  21.152  0.00  0.00    +0.000 C 
ATOM     26  C   UNL     1       1.548   2.727  19.965  0.00  0.00    +0.000 C 
ATOM     27  C   UNL     1       2.747   2.932  18.993  0.00  0.00    +0.000 C 
ATOM     28  C   UNL     1       2.359   2.187  17.691  0.00  0.00    +0.000 C 
ATOM     29  C   UNL     1       3.995   2.244  19.585  0.00  0.00    +0.000 C 
ENDBRANCH  20  21
ENDBRANCH  17  19
ENDBRANCH   2  17
TORSDOF 8
ENDMDL
MODEL 9
REMARK VINA RESULT:      -8.6      1.200      2.193
REMARK  Name = 
REMARK  12 active torsions:
REMARK  status: ('A' for Active; 'I' for Inactive)
REMARK    1  A    between atoms: C_1  and  O_2
REMARK    2  A    between atoms: O_2  and  C_3
REMARK    3  A    between atoms: C_6  and  C_7
REMARK    4  A    between atoms: C_8  and  C_9
REMARK    5  A    between atoms: C_9  and  O_10
REMARK    6  A    between atoms: C_11  and  C_12
REMARK    7  A    between atoms: C_12  and  C_14
REMARK    8  A    between atoms: C_15  and  C_16
REMARK    9  A    between atoms: C_17  and  C_18
REMARK   10  A    between atoms: C_22  and  C_23
REMARK   11  A    between atoms: C_22  and  C_24
REMARK   12  A    between atoms: C_26  and  O_27
REMARK                            x       y       z     vdW  Elec       q    Type
REMARK                         _______ _______ _______ _____ _____    ______ ____
ROOT
ATOM      1  C   UNL     1       7.960   7.588  18.316  0.00  0.00    +0.000 C 
ATOM      2  C   UNL     1       7.030   7.532  17.343  0.00  0.00    +0.000 C 
ENDROOT
BRANCH   1   4
ATOM      3  C   UNL     1       8.617  10.004  18.009  0.00  0.00    +0.000 C 
ATOM      4  C   UNL     1       8.632   8.833  18.680  0.00  0.00    +0.000 C 
BRANCH   3   8
ATOM      5  C   UNL     1      10.870  13.522  19.136  0.00  0.00    +0.000 A 
ATOM      6  C   UNL     1      11.033  12.307  19.814  0.00  0.00    +0.000 A 
ATOM      7  C   UNL     1      10.298  11.170  19.446  0.00  0.00    +0.000 A 
ATOM      8  C   UNL     1       9.366  11.223  18.399  0.00  0.00    +0.000 A 
ATOM      9  C   UNL     1       9.210  12.440  17.722  0.00  0.00    +0.000 A 
ATOM     10  C   UNL     1       9.946  13.575  18.088  0.00  0.00    +0.000 A 
BRANCH   5  12
ATOM     11  C   UNL     1      11.096  15.416  20.564  0.00  0.00    +0.000 C 
ATOM     12  O   UNL     1      11.666  14.535  19.604  0.00  0.00    +0.000 OA
ENDBRANCH   5  12
BRANCH  10  13
ATOM     13  O   UNL     1       9.717  14.727  17.386  0.00  0.00    +0.000 OA
ATOM     14  H   UNL     1       8.962  15.199  17.770  0.00  0.00    +0.000 HD
ENDBRANCH  10  13
ENDBRANCH   3   8
ENDBRANCH   1   4
BRANCH   1  15
ATOM     15  O   UNL     1       8.350   6.448  18.982  0.00  0.00    +0.000 OA
ATOM     16  H   UNL     1       9.306   6.438  19.127  0.00  0.00    +0.000 HD
ENDBRANCH   1  15
BRANCH   2  17
ATOM     17  C   UNL     1       6.335   6.259  16.956  0.00  0.00    +0.000 C 
ATOM     18  O   UNL     1       6.442   5.725  15.868  0.00  0.00    +0.000 OA
BRANCH  17  19
ATOM     19  C   UNL     1       5.444   5.681  18.006  0.00  0.00    +0.000 C 
ATOM     20  C   UNL     1       4.147   5.472  17.710  0.00  0.00    +0.000 C 
BRANCH  20  21
ATOM     21  C   UNL     1       3.137   5.015  18.664  0.00  0.00    +0.000 C 
ATOM     22  C   UNL     1       2.421   5.896  19.408  0.00  0.00    +0.000 C 
ATOM     23  C   UNL     1       2.450   7.402  19.257  0.00  0.00    +0.000 C 
ATOM     24  C   UNL     1       1.451   5.458  20.484  0.00  0.00    +0.000 C 
ATOM     25  C   UNL     1       1.544   3.983  20.847  0.00  0.00    +0.000 C 
ATOM     26  C   UNL     1       1.629   3.147  19.583  0.00  0.00    +0.000 C 
ATOM     27  C   UNL     1       2.894   3.483  18.740  0.00  0.00    +0.000 C 
ATOM     28  C   UNL     1       2.650   2.843  17.350  0.00  0.00    +0.000 C 
ATOM     29  C   UNL     1       4.118   2.793  19.378  0.00  0.00    +0.000 C 
ENDBRANCH  20  21
ENDBRANCH  17  19
ENDBRANCH   2  17
TORSDOF 8
ENDMDL
