MODEL 1
REMARK VINA RESULT:      -6.8      0.000      0.000
REMARK  Name = 
REMARK  7 active torsions:
REMARK  status: ('A' for Active; 'I' for Inactive)
REMARK    1  A    between atoms: N_1  and  S_2
REMARK    2  A    between atoms: S_2  and  C_5
REMARK    3  A    between atoms: C_8  and  N_9
REMARK    4  A    between atoms: C_10  and  S_11
REMARK    5  A    between atoms: N_12  and  C_13
REMARK    6  A    between atoms: C_13  and  C_14
REMARK    7  A    between atoms: C_14  and  C_15
REMARK                            x       y       z     vdW  Elec       q    Type
REMARK                         _______ _______ _______ _____ _____    ______ ____
ROOT
ATOM      1  N   UNL     1       5.453   6.742  17.561  0.00  0.00    +0.000 N 
ATOM      2  C   UNL     1       6.682   6.601  16.963  0.00  0.00    +0.000 C 
ATOM      3  N   UNL     1       7.652   7.450  16.945  0.00  0.00    +0.000 NA
ATOM      4  H   UNL     1       5.209   7.689  17.822  0.00  0.00    +0.000 HD
ENDROOT
BRANCH   1   8
ATOM      5  C   UNL     1       2.944   3.950  19.522  0.00  0.00    +0.000 A 
ATOM      6  C   UNL     1       2.375   4.904  18.680  0.00  0.00    +0.000 A 
ATOM      7  C   UNL     1       3.205   5.812  18.004  0.00  0.00    +0.000 A 
ATOM      8  C   UNL     1       4.598   5.781  18.146  0.00  0.00    +0.000 A 
ATOM      9  C   UNL     1       5.150   4.762  18.945  0.00  0.00    +0.000 A 
ATOM     10  C   UNL     1       4.330   3.871  19.653  0.00  0.00    +0.000 A 
BRANCH   5  11
ATOM     11  S   UNL     1       1.919   2.803  20.398  0.00  0.00    +0.000 S 
ATOM     12  O   UNL     1       2.321   2.777  21.784  0.00  0.00    +0.000 OA
ATOM     13  O   UNL     1       1.761   1.602  19.608  0.00  0.00    +0.000 OA
BRANCH  11  14
ATOM     14  N   UNL     1       0.417   3.560  20.341  0.00  0.00    +0.000 NA
ATOM     15  H   UNL     1      -0.169   3.077  19.656  0.00  0.00    +0.000 HD
ATOM     16  H   UNL     1       0.529   4.551  20.133  0.00  0.00    +0.000 HD
ENDBRANCH  11  14
ENDBRANCH   5  11
ENDBRANCH   1   8
BRANCH   2  17
ATOM     17  S   UNL     1       7.032   5.200  15.937  0.00  0.00    +0.000 S 
ATOM     18  H   UNL     1       6.439   4.254  16.657  0.00  0.00    +0.000 HD
ENDBRANCH   2  17
BRANCH   3  19
ATOM     19  C   UNL     1       7.538   8.716  17.637  0.00  0.00    +0.000 C 
BRANCH  19  20
ATOM     20  C   UNL     1       8.720   8.815  18.606  0.00  0.00    +0.000 C 
BRANCH  20  21
ATOM     21  C   UNL     1       9.093  10.218  18.934  0.00  0.00    +0.000 A 
ATOM     22  C   UNL     1       9.281  11.279  18.070  0.00  0.00    +0.000 A 
ATOM     23  N   UNL     1       9.589  12.342  18.873  0.00  0.00    +0.000 N 
ATOM     24  C   UNL     1       9.569  11.907  20.165  0.00  0.00    +0.000 A 
ATOM     25  N   UNL     1       9.277  10.629  20.236  0.00  0.00    +0.000 NA
ATOM     26  H   UNL     1       9.785  13.285  18.569  0.00  0.00    +0.000 HD
ENDBRANCH  20  21
ENDBRANCH  19  20
ENDBRANCH   3  19
TORSDOF 7
ENDMDL
MODEL 2
REMARK VINA RESULT:      -6.8      0.216      1.069
REMARK  Name = 
REMARK  7 active torsions:
REMARK  status: ('A' for Active; 'I' for Inactive)
REMARK    1  A    between atoms: N_1  and  S_2
REMARK    2  A    between atoms: S_2  and  C_5
REMARK    3  A    between atoms: C_8  and  N_9
REMARK    4  A    between atoms: C_10  and  S_11
REMARK    5  A    between atoms: N_12  and  C_13
REMARK    6  A    between atoms: C_13  and  C_14
REMARK    7  A    between atoms: C_14  and  C_15
REMARK                            x       y       z     vdW  Elec       q    Type
REMARK                         _______ _______ _______ _____ _____    ______ ____
ROOT
ATOM      1  N   UNL     1       5.558   6.637  17.670  0.00  0.00    +0.000 N 
ATOM      2  C   UNL     1       6.761   6.435  17.038  0.00  0.00    +0.000 C 
ATOM      3  N   UNL     1       7.727   7.277  16.893  0.00  0.00    +0.000 NA
ATOM      4  H   UNL     1       5.322   7.606  17.844  0.00  0.00    +0.000 HD
ENDROOT
BRANCH   1   8
ATOM      5  C   UNL     1       2.998   3.878  19.613  0.00  0.00    +0.000 A 
ATOM      6  C   UNL     1       4.379   3.717  19.716  0.00  0.00    +0.000 A 
ATOM      7  C   UNL     1       5.231   4.646  19.101  0.00  0.00    +0.000 A 
ATOM      8  C   UNL     1       4.731   5.741  18.386  0.00  0.00    +0.000 A 
ATOM      9  C   UNL     1       3.335   5.920  18.358  0.00  0.00    +0.000 A 
ATOM     10  C   UNL     1       2.472   4.980  18.940  0.00  0.00    +0.000 A 
BRANCH   5  11
ATOM     11  S   UNL     1       1.901   2.712  20.367  0.00  0.00    +0.000 S 
ATOM     12  O   UNL     1       2.271   2.548  21.754  0.00  0.00    +0.000 OA
ATOM     13  O   UNL     1       1.705   1.591  19.474  0.00  0.00    +0.000 OA
BRANCH  11  14
ATOM     14  N   UNL     1       0.438   3.543  20.348  0.00  0.00    +0.000 NA
ATOM     15  H   UNL     1       0.513   4.354  20.965  0.00  0.00    +0.000 HD
ATOM     16  H   UNL     1      -0.325   2.920  20.608  0.00  0.00    +0.000 HD
ENDBRANCH  11  14
ENDBRANCH   5  11
ENDBRANCH   1   8
BRANCH   2  17
ATOM     17  S   UNL     1       7.072   4.937  16.146  0.00  0.00    +0.000 S 
ATOM     18  H   UNL     1       7.864   5.415  15.193  0.00  0.00    +0.000 HD
ENDBRANCH   2  17
BRANCH   3  19
ATOM     19  C   UNL     1       7.638   8.606  17.457  0.00  0.00    +0.000 C 
BRANCH  19  20
ATOM     20  C   UNL     1       8.635   8.678  18.617  0.00  0.00    +0.000 C 
BRANCH  20  21
ATOM     21  C   UNL     1       9.083  10.065  18.921  0.00  0.00    +0.000 A 
ATOM     22  C   UNL     1       9.249  11.122  18.047  0.00  0.00    +0.000 A 
ATOM     23  N   UNL     1       9.653  12.169  18.828  0.00  0.00    +0.000 N 
ATOM     24  C   UNL     1       9.709  11.728  20.117  0.00  0.00    +0.000 A 
ATOM     25  N   UNL     1       9.375  10.462  20.207  0.00  0.00    +0.000 NA
ATOM     26  H   UNL     1       9.862  13.105  18.513  0.00  0.00    +0.000 HD
ENDBRANCH  20  21
ENDBRANCH  19  20
ENDBRANCH   3  19
TORSDOF 7
ENDMDL
MODEL 3
REMARK VINA RESULT:      -6.7      5.616      7.883
REMARK  Name = 
REMARK  7 active torsions:
REMARK  status: ('A' for Active; 'I' for Inactive)
REMARK    1  A    between atoms: N_1  and  S_2
REMARK    2  A    between atoms: S_2  and  C_5
REMARK    3  A    between atoms: C_8  and  N_9
REMARK    4  A    between atoms: C_10  and  S_11
REMARK    5  A    between atoms: N_12  and  C_13
REMARK    6  A    between atoms: C_13  and  C_14
REMARK    7  A    between atoms: C_14  and  C_15
REMARK                            x       y       z     vdW  Elec       q    Type
REMARK                         _______ _______ _______ _____ _____    ______ ____
ROOT
ATOM      1  N   UNL     1       2.900   5.954  18.514  0.00  0.00    +0.000 N 
ATOM      2  C   UNL     1       3.878   5.526  17.650  0.00  0.00    +0.000 C 
ATOM      3  N   UNL     1       3.951   4.393  17.039  0.00  0.00    +0.000 NA
ATOM      4  H   UNL     1       2.296   5.225  18.873  0.00  0.00    +0.000 HD
ENDROOT
BRANCH   1   8
ATOM      5  C   UNL     1       1.196   9.782  19.127  0.00  0.00    +0.000 A 
ATOM      6  C   UNL     1       1.323   8.912  20.208  0.00  0.00    +0.000 A 
ATOM      7  C   UNL     1       1.916   7.654  20.017  0.00  0.00    +0.000 A 
ATOM      8  C   UNL     1       2.392   7.249  18.763  0.00  0.00    +0.000 A 
ATOM      9  C   UNL     1       2.316   8.175  17.706  0.00  0.00    +0.000 A 
ATOM     10  C   UNL     1       1.696   9.422  17.877  0.00  0.00    +0.000 A 
BRANCH   5  11
ATOM     11  S   UNL     1       0.440  11.369  19.339  0.00  0.00    +0.000 S 
ATOM     12  O   UNL     1       0.766  11.874  20.652  0.00  0.00    +0.000 OA
ATOM     13  O   UNL     1      -0.915  11.324  18.835  0.00  0.00    +0.000 OA
BRANCH  11  14
ATOM     14  N   UNL     1       1.285  12.312  18.231  0.00  0.00    +0.000 NA
ATOM     15  H   UNL     1       2.175  11.855  18.022  0.00  0.00    +0.000 HD
ATOM     16  H   UNL     1       1.402  13.258  18.590  0.00  0.00    +0.000 HD
ENDBRANCH  11  14
ENDBRANCH   5  11
ENDBRANCH   1   8
BRANCH   2  17
ATOM     17  S   UNL     1       5.339   6.494  17.391  0.00  0.00    +0.000 S 
ATOM     18  H   UNL     1       6.071   6.055  18.409  0.00  0.00    +0.000 HD
ENDBRANCH   2  17
BRANCH   3  19
ATOM     19  C   UNL     1       2.907   3.404  17.192  0.00  0.00    +0.000 C 
BRANCH  19  20
ATOM     20  C   UNL     1       3.319   2.478  18.340  0.00  0.00    +0.000 C 
BRANCH  20  21
ATOM     21  C   UNL     1       2.490   2.654  19.563  0.00  0.00    +0.000 A 
ATOM     22  C   UNL     1       1.120   2.806  19.654  0.00  0.00    +0.000 A 
ATOM     23  N   UNL     1       0.861   2.909  20.993  0.00  0.00    +0.000 N 
ATOM     24  C   UNL     1       2.050   2.810  21.654  0.00  0.00    +0.000 A 
ATOM     25  N   UNL     1       3.052   2.660  20.821  0.00  0.00    +0.000 NA
ATOM     26  H   UNL     1      -0.046   3.026  21.421  0.00  0.00    +0.000 HD
ENDBRANCH  20  21
ENDBRANCH  19  20
ENDBRANCH   3  19
TORSDOF 7
ENDMDL
MODEL 4
REMARK VINA RESULT:      -6.7      5.679      7.772
REMARK  Name = 
REMARK  7 active torsions:
REMARK  status: ('A' for Active; 'I' for Inactive)
REMARK    1  A    between atoms: N_1  and  S_2
REMARK    2  A    between atoms: S_2  and  C_5
REMARK    3  A    between atoms: C_8  and  N_9
REMARK    4  A    between atoms: C_10  and  S_11
REMARK    5  A    between atoms: N_12  and  C_13
REMARK    6  A    between atoms: C_13  and  C_14
REMARK    7  A    between atoms: C_14  and  C_15
REMARK                            x       y       z     vdW  Elec       q    Type
REMARK                         _______ _______ _______ _____ _____    ______ ____
ROOT
ATOM      1  N   UNL     1       2.885   5.843  18.593  0.00  0.00    +0.000 N 
ATOM      2  C   UNL     1       3.825   5.438  17.677  0.00  0.00    +0.000 C 
ATOM      3  N   UNL     1       3.897   4.303  17.069  0.00  0.00    +0.000 NA
ATOM      4  H   UNL     1       2.325   5.098  18.990  0.00  0.00    +0.000 HD
ENDROOT
BRANCH   1   8
ATOM      5  C   UNL     1       1.105   9.624  19.278  0.00  0.00    +0.000 A 
ATOM      6  C   UNL     1       1.314   8.764  20.354  0.00  0.00    +0.000 A 
ATOM      7  C   UNL     1       1.932   7.523  20.138  0.00  0.00    +0.000 A 
ATOM      8  C   UNL     1       2.353   7.124  18.863  0.00  0.00    +0.000 A 
ATOM      9  C   UNL     1       2.194   8.041  17.807  0.00  0.00    +0.000 A 
ATOM     10  C   UNL     1       1.549   9.270  18.004  0.00  0.00    +0.000 A 
BRANCH   5  11
ATOM     11  S   UNL     1       0.315  11.189  19.522  0.00  0.00    +0.000 S 
ATOM     12  O   UNL     1       1.325  12.217  19.612  0.00  0.00    +0.000 OA
ATOM     13  O   UNL     1      -0.740  11.045  20.502  0.00  0.00    +0.000 OA
BRANCH  11  14
ATOM     14  N   UNL     1      -0.481  11.413  18.057  0.00  0.00    +0.000 NA
ATOM     15  H   UNL     1      -0.825  12.374  18.014  0.00  0.00    +0.000 HD
ATOM     16  H   UNL     1      -1.224  10.724  17.950  0.00  0.00    +0.000 HD
ENDBRANCH  11  14
ENDBRANCH   5  11
ENDBRANCH   1   8
BRANCH   2  17
ATOM     17  S   UNL     1       5.240   6.446  17.329  0.00  0.00    +0.000 S 
ATOM     18  H   UNL     1       4.624   7.590  17.048  0.00  0.00    +0.000 HD
ENDBRANCH   2  17
BRANCH   3  19
ATOM     19  C   UNL     1       2.894   3.283  17.288  0.00  0.00    +0.000 C 
BRANCH  19  20
ATOM     20  C   UNL     1       3.416   2.356  18.389  0.00  0.00    +0.000 C 
BRANCH  20  21
ATOM     21  C   UNL     1       2.786   2.606  19.714  0.00  0.00    +0.000 A 
ATOM     22  C   UNL     1       3.332   2.423  20.970  0.00  0.00    +0.000 A 
ATOM     23  N   UNL     1       2.355   2.816  21.843  0.00  0.00    +0.000 N 
ATOM     24  C   UNL     1       1.281   3.223  21.108  0.00  0.00    +0.000 A 
ATOM     25  N   UNL     1       1.507   3.105  19.821  0.00  0.00    +0.000 NA
ATOM     26  H   UNL     1       2.418   2.818  22.850  0.00  0.00    +0.000 HD
ENDBRANCH  20  21
ENDBRANCH  19  20
ENDBRANCH   3  19
TORSDOF 7
ENDMDL
MODEL 5
REMARK VINA RESULT:      -6.7      5.695      7.863
REMARK  Name = 
REMARK  7 active torsions:
REMARK  status: ('A' for Active; 'I' for Inactive)
REMARK    1  A    between atoms: N_1  and  S_2
REMARK    2  A    between atoms: S_2  and  C_5
REMARK    3  A    between atoms: C_8  and  N_9
REMARK    4  A    between atoms: C_10  and  S_11
REMARK    5  A    between atoms: N_12  and  C_13
REMARK    6  A    between atoms: C_13  and  C_14
REMARK    7  A    between atoms: C_14  and  C_15
REMARK                            x       y       z     vdW  Elec       q    Type
REMARK                         _______ _______ _______ _____ _____    ______ ____
ROOT
ATOM      1  N   UNL     1       2.727   5.630  18.694  0.00  0.00    +0.000 N 
ATOM      2  C   UNL     1       3.753   5.165  17.908  0.00  0.00    +0.000 C 
ATOM      3  N   UNL     1       3.799   4.063  17.240  0.00  0.00    +0.000 NA
ATOM      4  H   UNL     1       2.033   4.938  18.946  0.00  0.00    +0.000 HD
ENDROOT
BRANCH   1   8
ATOM      5  C   UNL     1       1.265   9.543  19.389  0.00  0.00    +0.000 A 
ATOM      6  C   UNL     1       1.372   8.656  20.458  0.00  0.00    +0.000 A 
ATOM      7  C   UNL     1       1.885   7.369  20.239  0.00  0.00    +0.000 A 
ATOM      8  C   UNL     1       2.302   6.949  18.969  0.00  0.00    +0.000 A 
ATOM      9  C   UNL     1       2.250   7.889  17.922  0.00  0.00    +0.000 A 
ATOM     10  C   UNL     1       1.708   9.168  18.121  0.00  0.00    +0.000 A 
BRANCH   5  11
ATOM     11  S   UNL     1       0.607  11.168  19.636  0.00  0.00    +0.000 S 
ATOM     12  O   UNL     1      -0.835  11.096  19.638  0.00  0.00    +0.000 OA
ATOM     13  O   UNL     1       1.340  12.111  18.820  0.00  0.00    +0.000 OA
BRANCH  11  14
ATOM     14  N   UNL     1       1.080  11.502  21.216  0.00  0.00    +0.000 NA
ATOM     15  H   UNL     1       0.553  12.310  21.553  0.00  0.00    +0.000 HD
ATOM     16  H   UNL     1       2.088  11.644  21.259  0.00  0.00    +0.000 HD
ENDBRANCH  11  14
ENDBRANCH   5  11
ENDBRANCH   1   8
BRANCH   2  17
ATOM     17  S   UNL     1       5.307   6.015  17.856  0.00  0.00    +0.000 S 
ATOM     18  H   UNL     1       6.106   4.986  17.597  0.00  0.00    +0.000 HD
ENDBRANCH   2  17
BRANCH   3  19
ATOM     19  C   UNL     1       2.668   3.161  17.228  0.00  0.00    +0.000 C 
BRANCH  19  20
ATOM     20  C   UNL     1       2.974   2.031  18.216  0.00  0.00    +0.000 C 
BRANCH  20  21
ATOM     21  C   UNL     1       2.583   2.354  19.615  0.00  0.00    +0.000 A 
ATOM     22  C   UNL     1       3.388   2.417  20.736  0.00  0.00    +0.000 A 
ATOM     23  N   UNL     1       2.549   2.770  21.756  0.00  0.00    +0.000 N 
ATOM     24  C   UNL     1       1.297   2.915  21.235  0.00  0.00    +0.000 A 
ATOM     25  N   UNL     1       1.283   2.666  19.946  0.00  0.00    +0.000 NA
ATOM     26  H   UNL     1       2.807   2.911  22.722  0.00  0.00    +0.000 HD
ENDBRANCH  20  21
ENDBRANCH  19  20
ENDBRANCH   3  19
TORSDOF 7
ENDMDL
MODEL 6
REMARK VINA RESULT:      -6.7      0.886      1.503
REMARK  Name = 
REMARK  7 active torsions:
REMARK  status: ('A' for Active; 'I' for Inactive)
REMARK    1  A    between atoms: N_1  and  S_2
REMARK    2  A    between atoms: S_2  and  C_5
REMARK    3  A    between atoms: C_8  and  N_9
REMARK    4  A    between atoms: C_10  and  S_11
REMARK    5  A    between atoms: N_12  and  C_13
REMARK    6  A    between atoms: C_13  and  C_14
REMARK    7  A    between atoms: C_14  and  C_15
REMARK                            x       y       z     vdW  Elec       q    Type
REMARK                         _______ _______ _______ _____ _____    ______ ____
ROOT
ATOM      1  N   UNL     1       5.392   6.806  17.588  0.00  0.00    +0.000 N 
ATOM      2  C   UNL     1       6.627   6.618  17.017  0.00  0.00    +0.000 C 
ATOM      3  N   UNL     1       7.623   7.437  17.003  0.00  0.00    +0.000 NA
ATOM      4  H   UNL     1       5.172   7.765  17.828  0.00  0.00    +0.000 HD
ENDROOT
BRANCH   1   8
ATOM      5  C   UNL     1       2.699   3.929  19.140  0.00  0.00    +0.000 A 
ATOM      6  C   UNL     1       3.998   3.987  19.640  0.00  0.00    +0.000 A 
ATOM      7  C   UNL     1       4.885   4.958  19.152  0.00  0.00    +0.000 A 
ATOM      8  C   UNL     1       4.497   5.882  18.174  0.00  0.00    +0.000 A 
ATOM      9  C   UNL     1       3.160   5.848  17.738  0.00  0.00    +0.000 A 
ATOM     10  C   UNL     1       2.273   4.861  18.193  0.00  0.00    +0.000 A 
BRANCH   5  11
ATOM     11  S   UNL     1       1.566   2.704  19.728  0.00  0.00    +0.000 S 
ATOM     12  O   UNL     1       0.236   3.035  19.272  0.00  0.00    +0.000 OA
ATOM     13  O   UNL     1       1.863   2.402  21.111  0.00  0.00    +0.000 OA
BRANCH  11  14
ATOM     14  N   UNL     1       2.049   1.338  18.872  0.00  0.00    +0.000 NA
ATOM     15  H   UNL     1       2.946   1.019  19.242  0.00  0.00    +0.000 HD
ATOM     16  H   UNL     1       2.084   1.542  17.875  0.00  0.00    +0.000 HD
ENDBRANCH  11  14
ENDBRANCH   5  11
ENDBRANCH   1   8
BRANCH   2  17
ATOM     17  S   UNL     1       6.955   5.188  16.024  0.00  0.00    +0.000 S 
ATOM     18  H   UNL     1       8.268   5.098  16.203  0.00  0.00    +0.000 HD
ENDBRANCH   2  17
BRANCH   3  19
ATOM     19  C   UNL     1       7.534   8.718  17.670  0.00  0.00    +0.000 C 
BRANCH  19  20
ATOM     20  C   UNL     1       8.732   8.825  18.617  0.00  0.00    +0.000 C 
BRANCH  20  21
ATOM     21  C   UNL     1       9.101  10.230  18.941  0.00  0.00    +0.000 A 
ATOM     22  C   UNL     1       9.270  11.292  18.075  0.00  0.00    +0.000 A 
ATOM     23  N   UNL     1       9.582  12.357  18.874  0.00  0.00    +0.000 N 
ATOM     24  C   UNL     1       9.585  11.920  20.166  0.00  0.00    +0.000 A 
ATOM     25  N   UNL     1       9.302  10.641  20.241  0.00  0.00    +0.000 NA
ATOM     26  H   UNL     1       9.768  13.301  18.569  0.00  0.00    +0.000 HD
ENDBRANCH  20  21
ENDBRANCH  19  20
ENDBRANCH   3  19
TORSDOF 7
ENDMDL
MODEL 7
REMARK VINA RESULT:      -6.6      3.811      5.180
REMARK  Name = 
REMARK  7 active torsions:
REMARK  status: ('A' for Active; 'I' for Inactive)
REMARK    1  A    between atoms: N_1  and  S_2
REMARK    2  A    between atoms: S_2  and  C_5
REMARK    3  A    between atoms: C_8  and  N_9
REMARK    4  A    between atoms: C_10  and  S_11
REMARK    5  A    between atoms: N_12  and  C_13
REMARK    6  A    between atoms: C_13  and  C_14
REMARK    7  A    between atoms: C_14  and  C_15
REMARK                            x       y       z     vdW  Elec       q    Type
REMARK                         _______ _______ _______ _____ _____    ______ ____
ROOT
ATOM      1  N   UNL     1       3.334   5.811  17.449  0.00  0.00    +0.000 N 
ATOM      2  C   UNL     1       3.586   4.461  17.440  0.00  0.00    +0.000 C 
ATOM      3  N   UNL     1       4.542   3.840  16.837  0.00  0.00    +0.000 NA
ATOM      4  H   UNL     1       3.816   6.342  16.734  0.00  0.00    +0.000 HD
ENDROOT
BRANCH   1   8
ATOM      5  C   UNL     1       1.432   8.280  20.316  0.00  0.00    +0.000 A 
ATOM      6  C   UNL     1       1.849   7.003  20.685  0.00  0.00    +0.000 A 
ATOM      7  C   UNL     1       2.508   6.193  19.749  0.00  0.00    +0.000 A 
ATOM      8  C   UNL     1       2.765   6.636  18.445  0.00  0.00    +0.000 A 
ATOM      9  C   UNL     1       2.398   7.955  18.120  0.00  0.00    +0.000 A 
ATOM     10  C   UNL     1       1.709   8.763  19.037  0.00  0.00    +0.000 A 
BRANCH   5  11
ATOM     11  S   UNL     1       0.587   9.317  21.475  0.00  0.00    +0.000 S 
ATOM     12  O   UNL     1      -0.014  10.422  20.766  0.00  0.00    +0.000 OA
ATOM     13  O   UNL     1       1.414   9.500  22.647  0.00  0.00    +0.000 OA
BRANCH  11  14
ATOM     14  N   UNL     1      -0.672   8.322  21.983  0.00  0.00    +0.000 NA
ATOM     15  H   UNL     1      -1.522   8.883  22.063  0.00  0.00    +0.000 HD
ATOM     16  H   UNL     1      -0.423   7.857  22.854  0.00  0.00    +0.000 HD
ENDBRANCH  11  14
ENDBRANCH   5  11
ENDBRANCH   1   8
BRANCH   2  17
ATOM     17  S   UNL     1       2.444   3.324  18.177  0.00  0.00    +0.000 S 
ATOM     18  H   UNL     1       2.490   3.758  19.432  0.00  0.00    +0.000 HD
ENDBRANCH   2  17
BRANCH   3  19
ATOM     19  C   UNL     1       5.536   4.572  16.082  0.00  0.00    +0.000 C 
BRANCH  19  20
ATOM     20  C   UNL     1       6.878   4.390  16.797  0.00  0.00    +0.000 C 
BRANCH  20  21
ATOM     21  C   UNL     1       7.360   5.630  17.464  0.00  0.00    +0.000 A 
ATOM     22  C   UNL     1       7.825   5.782  18.756  0.00  0.00    +0.000 A 
ATOM     23  N   UNL     1       8.158   7.104  18.861  0.00  0.00    +0.000 N 
ATOM     24  C   UNL     1       7.900   7.694  17.660  0.00  0.00    +0.000 A 
ATOM     25  N   UNL     1       7.414   6.834  16.796  0.00  0.00    +0.000 NA
ATOM     26  H   UNL     1       8.538   7.563  19.677  0.00  0.00    +0.000 HD
ENDBRANCH  20  21
ENDBRANCH  19  20
ENDBRANCH   3  19
TORSDOF 7
ENDMDL
MODEL 8
REMARK VINA RESULT:      -6.6      4.267      5.666
REMARK  Name = 
REMARK  7 active torsions:
REMARK  status: ('A' for Active; 'I' for Inactive)
REMARK    1  A    between atoms: N_1  and  S_2
REMARK    2  A    between atoms: S_2  and  C_5
REMARK    3  A    between atoms: C_8  and  N_9
REMARK    4  A    between atoms: C_10  and  S_11
REMARK    5  A    between atoms: N_12  and  C_13
REMARK    6  A    between atoms: C_13  and  C_14
REMARK    7  A    between atoms: C_14  and  C_15
REMARK                            x       y       z     vdW  Elec       q    Type
REMARK                         _______ _______ _______ _____ _____    ______ ____
ROOT
ATOM      1  N   UNL     1       3.383   6.212  18.505  0.00  0.00    +0.000 N 
ATOM      2  C   UNL     1       3.185   4.864  18.331  0.00  0.00    +0.000 C 
ATOM      3  N   UNL     1       4.057   3.919  18.432  0.00  0.00    +0.000 NA
ATOM      4  H   UNL     1       4.351   6.509  18.495  0.00  0.00    +0.000 HD
ENDROOT
BRANCH   1   8
ATOM      5  C   UNL     1       0.947   9.286  20.103  0.00  0.00    +0.000 A 
ATOM      6  C   UNL     1       1.350   9.358  18.771  0.00  0.00    +0.000 A 
ATOM      7  C   UNL     1       2.131   8.327  18.228  0.00  0.00    +0.000 A 
ATOM      8  C   UNL     1       2.515   7.216  18.989  0.00  0.00    +0.000 A 
ATOM      9  C   UNL     1       2.034   7.133  20.310  0.00  0.00    +0.000 A 
ATOM     10  C   UNL     1       1.281   8.173  20.875  0.00  0.00    +0.000 A 
BRANCH   5  11
ATOM     11  S   UNL     1      -0.026  10.581  20.816  0.00  0.00    +0.000 S 
ATOM     12  O   UNL     1      -0.550  10.131  22.085  0.00  0.00    +0.000 OA
ATOM     13  O   UNL     1      -0.861  11.171  19.793  0.00  0.00    +0.000 OA
BRANCH  11  14
ATOM     14  N   UNL     1       1.137  11.748  21.156  0.00  0.00    +0.000 NA
ATOM     15  H   UNL     1       2.063  11.343  21.005  0.00  0.00    +0.000 HD
ATOM     16  H   UNL     1       1.012  12.105  22.102  0.00  0.00    +0.000 HD
ENDBRANCH  11  14
ENDBRANCH   5  11
ENDBRANCH   1   8
BRANCH   2  17
ATOM     17  S   UNL     1       1.632   4.248  17.744  0.00  0.00    +0.000 S 
ATOM     18  H   UNL     1       1.064   3.953  18.908  0.00  0.00    +0.000 HD
ENDBRANCH   2  17
BRANCH   3  19
ATOM     19  C   UNL     1       5.424   4.213  18.802  0.00  0.00    +0.000 C 
BRANCH  19  20
ATOM     20  C   UNL     1       6.121   4.783  17.563  0.00  0.00    +0.000 C 
BRANCH  20  21
ATOM     21  C   UNL     1       6.949   5.984  17.856  0.00  0.00    +0.000 A 
ATOM     22  C   UNL     1       7.845   6.176  18.890  0.00  0.00    +0.000 A 
ATOM     23  N   UNL     1       8.350   7.431  18.695  0.00  0.00    +0.000 N 
ATOM     24  C   UNL     1       7.767   7.945  17.574  0.00  0.00    +0.000 A 
ATOM     25  N   UNL     1       6.913   7.099  17.047  0.00  0.00    +0.000 NA
ATOM     26  H   UNL     1       9.040   7.895  19.268  0.00  0.00    +0.000 HD
ENDBRANCH  20  21
ENDBRANCH  19  20
ENDBRANCH   3  19
TORSDOF 7
ENDMDL
MODEL 9
REMARK VINA RESULT:      -6.6      5.664      7.709
REMARK  Name = 
REMARK  7 active torsions:
REMARK  status: ('A' for Active; 'I' for Inactive)
REMARK    1  A    between atoms: N_1  and  S_2
REMARK    2  A    between atoms: S_2  and  C_5
REMARK    3  A    between atoms: C_8  and  N_9
REMARK    4  A    between atoms: C_10  and  S_11
REMARK    5  A    between atoms: N_12  and  C_13
REMARK    6  A    between atoms: C_13  and  C_14
REMARK    7  A    between atoms: C_14  and  C_15
REMARK                            x       y       z     vdW  Elec       q    Type
REMARK                         _______ _______ _______ _____ _____    ______ ____
ROOT
ATOM      1  N   UNL     1       2.984   5.918  18.574  0.00  0.00    +0.000 N 
ATOM      2  C   UNL     1       3.921   5.555  17.638  0.00  0.00    +0.000 C 
ATOM      3  N   UNL     1       4.080   4.401  17.086  0.00  0.00    +0.000 NA
ATOM      4  H   UNL     1       2.517   5.146  19.035  0.00  0.00    +0.000 HD
ENDROOT
BRANCH   1   8
ATOM      5  C   UNL     1       1.234   9.687  19.390  0.00  0.00    +0.000 A 
ATOM      6  C   UNL     1       1.606   9.376  18.083  0.00  0.00    +0.000 A 
ATOM      7  C   UNL     1       2.157   8.117  17.802  0.00  0.00    +0.000 A 
ATOM      8  C   UNL     1       2.340   7.154  18.803  0.00  0.00    +0.000 A 
ATOM      9  C   UNL     1       1.890   7.468  20.100  0.00  0.00    +0.000 A 
ATOM     10  C   UNL     1       1.368   8.735  20.400  0.00  0.00    +0.000 A 
BRANCH   5  11
ATOM     11  S   UNL     1       0.550  11.274  19.773  0.00  0.00    +0.000 S 
ATOM     12  O   UNL     1      -0.887  11.210  19.645  0.00  0.00    +0.000 OA
ATOM     13  O   UNL     1       1.344  12.303  19.140  0.00  0.00    +0.000 OA
BRANCH  11  14
ATOM     14  N   UNL     1       0.887  11.414  21.416  0.00  0.00    +0.000 NA
ATOM     15  H   UNL     1       1.867  11.681  21.528  0.00  0.00    +0.000 HD
ATOM     16  H   UNL     1       0.658  10.546  21.898  0.00  0.00    +0.000 HD
ENDBRANCH  11  14
ENDBRANCH   5  11
ENDBRANCH   1   8
BRANCH   2  17
ATOM     17  S   UNL     1       5.214   6.675  17.174  0.00  0.00    +0.000 S 
ATOM     18  H   UNL     1       5.043   7.601  18.111  0.00  0.00    +0.000 HD
ENDBRANCH   2  17
BRANCH   3  19
ATOM     19  C   UNL     1       3.192   3.303  17.403  0.00  0.00    +0.000 C 
BRANCH  19  20
ATOM     20  C   UNL     1       3.775   2.580  18.620  0.00  0.00    +0.000 C 
BRANCH  20  21
ATOM     21  C   UNL     1       2.948   2.740  19.848  0.00  0.00    +0.000 A 
ATOM     22  C   UNL     1       3.266   2.390  21.146  0.00  0.00    +0.000 A 
ATOM     23  N   UNL     1       2.183   2.763  21.891  0.00  0.00    +0.000 N 
ATOM     24  C   UNL     1       1.269   3.321  21.045  0.00  0.00    +0.000 A 
ATOM     25  N   UNL     1       1.699   3.318  19.805  0.00  0.00    +0.000 NA
ATOM     26  H   UNL     1       2.077   2.657  22.889  0.00  0.00    +0.000 HD
ENDBRANCH  20  21
ENDBRANCH  19  20
ENDBRANCH   3  19
TORSDOF 7
ENDMDL
