MODEL 1
REMARK VINA RESULT:      -8.9      0.000      0.000
REMARK  Name = 
REMARK  8 active torsions:
REMARK  status: ('A' for Active; 'I' for Inactive)
REMARK    1  A    between atoms: C_2  and  O_3
REMARK    2  A    between atoms: C_2  and  C_4
REMARK    3  A    between atoms: C_4  and  C_5
REMARK    4  A    between atoms: C_11  and  O_12
REMARK    5  A    between atoms: O_12  and  C_13
REMARK    6  A    between atoms: C_13  and  C_14
REMARK    7  A    between atoms: C_14  and  C_15
REMARK    8  A    between atoms: C_15  and  N_16
REMARK                            x       y       z     vdW  Elec       q    Type
REMARK                         _______ _______ _______ _____ _____    ______ ____
ROOT
ATOM      1  C   UNL     1       1.947   9.487  17.913  0.00  0.00    +0.000 C 
ENDROOT
BRANCH   1   2
ATOM      2  O   UNL     1       1.116   9.644  19.063  0.00  0.00    +0.000 OA
BRANCH   2   9
ATOM      3  C   UNL     1      -2.566  12.533  20.680  0.00  0.00    +0.000 A 
ATOM      4  C   UNL     1      -3.704  12.896  19.986  0.00  0.00    +0.000 A 
ATOM      5  N   UNL     1      -3.706  12.248  18.782  0.00  0.00    +0.000 N 
ATOM      6  C   UNL     1      -2.565  11.491  18.654  0.00  0.00    +0.000 A 
ATOM      7  C   UNL     1      -2.150  10.664  17.606  0.00  0.00    +0.000 A 
ATOM      8  C   UNL     1      -0.913  10.024  17.732  0.00  0.00    +0.000 A 
ATOM      9  C   UNL     1      -0.121  10.199  18.865  0.00  0.00    +0.000 A 
ATOM     10  C   UNL     1      -0.577  11.002  19.921  0.00  0.00    +0.000 A 
ATOM     11  C   UNL     1      -1.817  11.665  19.817  0.00  0.00    +0.000 A 
ATOM     12  H   UNL     1      -4.435  12.309  18.085  0.00  0.00    +0.000 HD
BRANCH   3  13
ATOM     13  C   UNL     1      -2.207  12.945  22.075  0.00  0.00    +0.000 C 
BRANCH  13  15
ATOM     14  O   UNL     1      -1.478  11.050  23.355  0.00  0.00    +0.000 OA
ATOM     15  C   UNL     1      -2.348  11.887  23.149  0.00  0.00    +0.000 C 
BRANCH  15  16
ATOM     16  O   UNL     1      -3.498  11.881  23.856  0.00  0.00    +0.000 OA
ATOM     17  H   UNL     1      -3.804  12.766  24.135  0.00  0.00    +0.000 HD
ENDBRANCH  15  16
ENDBRANCH  13  15
ENDBRANCH   3  13
ENDBRANCH   2   9
ENDBRANCH   1   2
BRANCH   1  18
ATOM     18  C   UNL     1       2.096   8.002  17.607  0.00  0.00    +0.000 C 
BRANCH  18  19
ATOM     19  C   UNL     1       2.879   7.281  18.708  0.00  0.00    +0.000 C 
BRANCH  19  20
ATOM     20  N   UNL     1       3.194   5.899  18.327  0.00  0.00    +0.000 N 
ATOM     21  C   UNL     1       4.259   5.622  17.451  0.00  0.00    +0.000 A 
ATOM     22  C   UNL     1       5.284   6.524  17.134  0.00  0.00    +0.000 A 
ATOM     23  C   UNL     1       6.356   6.143  16.317  0.00  0.00    +0.000 A 
ATOM     24  C   UNL     1       6.405   4.864  15.767  0.00  0.00    +0.000 A 
ATOM     25  C   UNL     1       5.390   3.957  16.049  0.00  0.00    +0.000 A 
ATOM     26  C   UNL     1       4.349   4.326  16.904  0.00  0.00    +0.000 A 
ATOM     27  O   UNL     1       3.434   3.337  17.198  0.00  0.00    +0.000 OA
ATOM     28  C   UNL     1       2.622   3.553  18.294  0.00  0.00    +0.000 A 
ATOM     29  C   UNL     1       1.995   2.422  18.822  0.00  0.00    +0.000 A 
ATOM     30  C   UNL     1       1.202   2.541  19.958  0.00  0.00    +0.000 A 
ATOM     31  C   UNL     1       1.002   3.795  20.529  0.00  0.00    +0.000 A 
ATOM     32  C   UNL     1       1.599   4.931  19.970  0.00  0.00    +0.000 A 
ATOM     33  C   UNL     1       2.448   4.831  18.860  0.00  0.00    +0.000 A 
ENDBRANCH  19  20
ENDBRANCH  18  19
ENDBRANCH   1  18
TORSDOF 8
ENDMDL
MODEL 2
REMARK VINA RESULT:      -8.8      2.309      3.306
REMARK  Name = 
REMARK  8 active torsions:
REMARK  status: ('A' for Active; 'I' for Inactive)
REMARK    1  A    between atoms: C_2  and  O_3
REMARK    2  A    between atoms: C_2  and  C_4
REMARK    3  A    between atoms: C_4  and  C_5
REMARK    4  A    between atoms: C_11  and  O_12
REMARK    5  A    between atoms: O_12  and  C_13
REMARK    6  A    between atoms: C_13  and  C_14
REMARK    7  A    between atoms: C_14  and  C_15
REMARK    8  A    between atoms: C_15  and  N_16
REMARK                            x       y       z     vdW  Elec       q    Type
REMARK                         _______ _______ _______ _____ _____    ______ ____
ROOT
ATOM      1  C   UNL     1       1.720   9.021  17.880  0.00  0.00    +0.000 C 
ENDROOT
BRANCH   1   2
ATOM      2  O   UNL     1       1.881  10.252  18.587  0.00  0.00    +0.000 OA
BRANCH   2   9
ATOM      3  C   UNL     1      -2.999  10.890  18.051  0.00  0.00    +0.000 A 
ATOM      4  C   UNL     1      -3.804  11.768  18.751  0.00  0.00    +0.000 A 
ATOM      5  N   UNL     1      -3.015  12.520  19.576  0.00  0.00    +0.000 N 
ATOM      6  C   UNL     1      -1.703  12.126  19.460  0.00  0.00    +0.000 A 
ATOM      7  C   UNL     1      -0.560  12.614  20.100  0.00  0.00    +0.000 A 
ATOM      8  C   UNL     1       0.662  11.999  19.808  0.00  0.00    +0.000 A 
ATOM      9  C   UNL     1       0.740  10.938  18.908  0.00  0.00    +0.000 A 
ATOM     10  C   UNL     1      -0.415  10.492  18.248  0.00  0.00    +0.000 A 
ATOM     11  C   UNL     1      -1.661  11.090  18.529  0.00  0.00    +0.000 A 
ATOM     12  H   UNL     1      -3.340  13.261  20.183  0.00  0.00    +0.000 HD
BRANCH   3  13
ATOM     13  C   UNL     1      -3.440   9.940  16.980  0.00  0.00    +0.000 C 
BRANCH  13  15
ATOM     14  O   UNL     1      -2.993   9.600  14.647  0.00  0.00    +0.000 OA
ATOM     15  C   UNL     1      -3.234  10.392  15.549  0.00  0.00    +0.000 C 
BRANCH  15  16
ATOM     16  O   UNL     1      -3.295  11.719  15.311  0.00  0.00    +0.000 OA
ATOM     17  H   UNL     1      -2.779  12.014  14.537  0.00  0.00    +0.000 HD
ENDBRANCH  15  16
ENDBRANCH  13  15
ENDBRANCH   3  13
ENDBRANCH   2   9
ENDBRANCH   1   2
BRANCH   1  18
ATOM     18  C   UNL     1       2.412   7.908  18.657  0.00  0.00    +0.000 C 
BRANCH  18  19
ATOM     19  C   UNL     1       2.441   6.603  17.857  0.00  0.00    +0.000 C 
BRANCH  19  20
ATOM     20  N   UNL     1       3.389   5.641  18.430  0.00  0.00    +0.000 N 
ATOM     21  C   UNL     1       4.758   5.709  18.113  0.00  0.00    +0.000 A 
ATOM     22  C   UNL     1       5.388   6.821  17.537  0.00  0.00    +0.000 A 
ATOM     23  C   UNL     1       6.773   6.842  17.330  0.00  0.00    +0.000 A 
ATOM     24  C   UNL     1       7.552   5.734  17.656  0.00  0.00    +0.000 A 
ATOM     25  C   UNL     1       6.949   4.610  18.210  0.00  0.00    +0.000 A 
ATOM     26  C   UNL     1       5.575   4.615  18.461  0.00  0.00    +0.000 A 
ATOM     27  O   UNL     1       5.076   3.493  19.091  0.00  0.00    +0.000 OA
ATOM     28  C   UNL     1       3.826   3.613  19.666  0.00  0.00    +0.000 A 
ATOM     29  C   UNL     1       3.498   2.647  20.620  0.00  0.00    +0.000 A 
ATOM     30  C   UNL     1       2.281   2.724  21.288  0.00  0.00    +0.000 A 
ATOM     31  C   UNL     1       1.380   3.735  20.962  0.00  0.00    +0.000 A 
ATOM     32  C   UNL     1       1.697   4.675  19.975  0.00  0.00    +0.000 A 
ATOM     33  C   UNL     1       2.941   4.655  19.328  0.00  0.00    +0.000 A 
ENDBRANCH  19  20
ENDBRANCH  18  19
ENDBRANCH   1  18
TORSDOF 8
ENDMDL
MODEL 3
REMARK VINA RESULT:      -8.8      1.812      4.499
REMARK  Name = 
REMARK  8 active torsions:
REMARK  status: ('A' for Active; 'I' for Inactive)
REMARK    1  A    between atoms: C_2  and  O_3
REMARK    2  A    between atoms: C_2  and  C_4
REMARK    3  A    between atoms: C_4  and  C_5
REMARK    4  A    between atoms: C_11  and  O_12
REMARK    5  A    between atoms: O_12  and  C_13
REMARK    6  A    between atoms: C_13  and  C_14
REMARK    7  A    between atoms: C_14  and  C_15
REMARK    8  A    between atoms: C_15  and  N_16
REMARK                            x       y       z     vdW  Elec       q    Type
REMARK                         _______ _______ _______ _____ _____    ______ ____
ROOT
ATOM      1  C   UNL     1       1.999   9.355  18.399  0.00  0.00    +0.000 C 
ENDROOT
BRANCH   1   2
ATOM      2  O   UNL     1       1.275   9.409  19.629  0.00  0.00    +0.000 OA
BRANCH   2   9
ATOM      3  C   UNL     1      -3.158  10.817  17.935  0.00  0.00    +0.000 A 
ATOM      4  C   UNL     1      -3.967  11.813  18.448  0.00  0.00    +0.000 A 
ATOM      5  N   UNL     1      -3.301  12.431  19.470  0.00  0.00    +0.000 N 
ATOM      6  C   UNL     1      -2.079  11.832  19.666  0.00  0.00    +0.000 A 
ATOM      7  C   UNL     1      -1.070  12.133  20.585  0.00  0.00    +0.000 A 
ATOM      8  C   UNL     1       0.076  11.330  20.580  0.00  0.00    +0.000 A 
ATOM      9  C   UNL     1       0.211  10.269  19.687  0.00  0.00    +0.000 A 
ATOM     10  C   UNL     1      -0.799  10.012  18.746  0.00  0.00    +0.000 A 
ATOM     11  C   UNL     1      -1.967  10.801  18.734  0.00  0.00    +0.000 A 
ATOM     12  H   UNL     1      -3.648  13.215  20.006  0.00  0.00    +0.000 HD
BRANCH   3  13
ATOM     13  C   UNL     1      -3.461   9.948  16.752  0.00  0.00    +0.000 C 
BRANCH  13  15
ATOM     14  O   UNL     1      -3.674  10.058  14.365  0.00  0.00    +0.000 OA
ATOM     15  C   UNL     1      -3.223  10.558  15.387  0.00  0.00    +0.000 C 
BRANCH  15  16
ATOM     16  O   UNL     1      -2.457  11.669  15.337  0.00  0.00    +0.000 OA
ATOM     17  H   UNL     1      -1.523  11.505  15.104  0.00  0.00    +0.000 HD
ENDBRANCH  15  16
ENDBRANCH  13  15
ENDBRANCH   3  13
ENDBRANCH   2   9
ENDBRANCH   1   2
BRANCH   1  18
ATOM     18  C   UNL     1       2.179   7.897  17.993  0.00  0.00    +0.000 C 
BRANCH  18  19
ATOM     19  C   UNL     1       3.282   7.221  18.812  0.00  0.00    +0.000 C 
BRANCH  19  20
ATOM     20  N   UNL     1       3.473   5.824  18.407  0.00  0.00    +0.000 N 
ATOM     21  C   UNL     1       2.791   4.786  19.067  0.00  0.00    +0.000 A 
ATOM     22  C   UNL     1       1.673   4.968  19.892  0.00  0.00    +0.000 A 
ATOM     23  C   UNL     1       0.997   3.873  20.446  0.00  0.00    +0.000 A 
ATOM     24  C   UNL     1       1.450   2.576  20.220  0.00  0.00    +0.000 A 
ATOM     25  C   UNL     1       2.570   2.369  19.423  0.00  0.00    +0.000 A 
ATOM     26  C   UNL     1       3.210   3.461  18.832  0.00  0.00    +0.000 A 
ATOM     27  O   UNL     1       4.257   3.159  17.987  0.00  0.00    +0.000 OA
ATOM     28  C   UNL     1       4.666   4.159  17.127  0.00  0.00    +0.000 A 
ATOM     29  C   UNL     1       5.426   3.748  16.030  0.00  0.00    +0.000 A 
ATOM     30  C   UNL     1       5.834   4.684  15.085  0.00  0.00    +0.000 A 
ATOM     31  C   UNL     1       5.523   6.029  15.270  0.00  0.00    +0.000 A 
ATOM     32  C   UNL     1       4.797   6.440  16.394  0.00  0.00    +0.000 A 
ATOM     33  C   UNL     1       4.324   5.510  17.330  0.00  0.00    +0.000 A 
ENDBRANCH  19  20
ENDBRANCH  18  19
ENDBRANCH   1  18
TORSDOF 8
ENDMDL
MODEL 4
REMARK VINA RESULT:      -8.7      2.065      2.992
REMARK  Name = 
REMARK  8 active torsions:
REMARK  status: ('A' for Active; 'I' for Inactive)
REMARK    1  A    between atoms: C_2  and  O_3
REMARK    2  A    between atoms: C_2  and  C_4
REMARK    3  A    between atoms: C_4  and  C_5
REMARK    4  A    between atoms: C_11  and  O_12
REMARK    5  A    between atoms: O_12  and  C_13
REMARK    6  A    between atoms: C_13  and  C_14
REMARK    7  A    between atoms: C_14  and  C_15
REMARK    8  A    between atoms: C_15  and  N_16
REMARK                            x       y       z     vdW  Elec       q    Type
REMARK                         _______ _______ _______ _____ _____    ______ ____
ROOT
ATOM      1  C   UNL     1       1.498   8.724  18.643  0.00  0.00    +0.000 C 
ENDROOT
BRANCH   1   2
ATOM      2  O   UNL     1       1.661  10.133  18.473  0.00  0.00    +0.000 OA
BRANCH   2   9
ATOM      3  C   UNL     1      -3.155  11.272  18.364  0.00  0.00    +0.000 A 
ATOM      4  C   UNL     1      -3.802  12.227  19.126  0.00  0.00    +0.000 A 
ATOM      5  N   UNL     1      -2.869  12.893  19.872  0.00  0.00    +0.000 N 
ATOM      6  C   UNL     1      -1.620  12.365  19.645  0.00  0.00    +0.000 A 
ATOM      7  C   UNL     1      -0.381  12.731  20.177  0.00  0.00    +0.000 A 
ATOM      8  C   UNL     1       0.741  11.994  19.784  0.00  0.00    +0.000 A 
ATOM      9  C   UNL     1       0.630  10.933  18.889  0.00  0.00    +0.000 A 
ATOM     10  C   UNL     1      -0.619  10.609  18.337  0.00  0.00    +0.000 A 
ATOM     11  C   UNL     1      -1.767  11.331  18.721  0.00  0.00    +0.000 A 
ATOM     12  H   UNL     1      -3.062  13.661  20.500  0.00  0.00    +0.000 HD
BRANCH   3  13
ATOM     13  C   UNL     1      -3.785  10.374  17.344  0.00  0.00    +0.000 C 
BRANCH  13  15
ATOM     14  O   UNL     1      -2.797   9.513  15.333  0.00  0.00    +0.000 OA
ATOM     15  C   UNL     1      -3.253  10.480  15.930  0.00  0.00    +0.000 C 
BRANCH  15  16
ATOM     16  O   UNL     1      -3.270  11.704  15.359  0.00  0.00    +0.000 OA
ATOM     17  H   UNL     1      -3.814  12.362  15.832  0.00  0.00    +0.000 HD
ENDBRANCH  15  16
ENDBRANCH  13  15
ENDBRANCH   3  13
ENDBRANCH   2   9
ENDBRANCH   1   2
BRANCH   1  18
ATOM     18  C   UNL     1       2.629   8.002  17.922  0.00  0.00    +0.000 C 
BRANCH  18  19
ATOM     19  C   UNL     1       3.399   7.080  18.871  0.00  0.00    +0.000 C 
BRANCH  19  20
ATOM     20  N   UNL     1       3.587   5.746  18.291  0.00  0.00    +0.000 N 
ATOM     21  C   UNL     1       4.690   5.474  17.461  0.00  0.00    +0.000 A 
ATOM     22  C   UNL     1       5.837   6.275  17.375  0.00  0.00    +0.000 A 
ATOM     23  C   UNL     1       6.931   5.891  16.588  0.00  0.00    +0.000 A 
ATOM     24  C   UNL     1       6.883   4.718  15.838  0.00  0.00    +0.000 A 
ATOM     25  C   UNL     1       5.748   3.916  15.890  0.00  0.00    +0.000 A 
ATOM     26  C   UNL     1       4.682   4.279  16.715  0.00  0.00    +0.000 A 
ATOM     27  O   UNL     1       3.635   3.382  16.773  0.00  0.00    +0.000 OA
ATOM     28  C   UNL     1       2.754   3.527  17.826  0.00  0.00    +0.000 A 
ATOM     29  C   UNL     1       1.954   2.418  18.111  0.00  0.00    +0.000 A 
ATOM     30  C   UNL     1       1.078   2.459  19.189  0.00  0.00    +0.000 A 
ATOM     31  C   UNL     1       0.970   3.624  19.945  0.00  0.00    +0.000 A 
ATOM     32  C   UNL     1       1.744   4.747  19.628  0.00  0.00    +0.000 A 
ATOM     33  C   UNL     1       2.677   4.713  18.583  0.00  0.00    +0.000 A 
ENDBRANCH  19  20
ENDBRANCH  18  19
ENDBRANCH   1  18
TORSDOF 8
ENDMDL
MODEL 5
REMARK VINA RESULT:      -8.7      1.897      2.656
REMARK  Name = 
REMARK  8 active torsions:
REMARK  status: ('A' for Active; 'I' for Inactive)
REMARK    1  A    between atoms: C_2  and  O_3
REMARK    2  A    between atoms: C_2  and  C_4
REMARK    3  A    between atoms: C_4  and  C_5
REMARK    4  A    between atoms: C_11  and  O_12
REMARK    5  A    between atoms: O_12  and  C_13
REMARK    6  A    between atoms: C_13  and  C_14
REMARK    7  A    between atoms: C_14  and  C_15
REMARK    8  A    between atoms: C_15  and  N_16
REMARK                            x       y       z     vdW  Elec       q    Type
REMARK                         _______ _______ _______ _____ _____    ______ ____
ROOT
ATOM      1  C   UNL     1       1.662   8.927  18.715  0.00  0.00    +0.000 C 
ENDROOT
BRANCH   1   2
ATOM      2  O   UNL     1       1.579   8.412  20.045  0.00  0.00    +0.000 OA
BRANCH   2   9
ATOM      3  C   UNL     1      -1.663  12.040  20.959  0.00  0.00    +0.000 A 
ATOM      4  C   UNL     1      -2.239  12.353  22.175  0.00  0.00    +0.000 A 
ATOM      5  N   UNL     1      -1.697  11.545  23.135  0.00  0.00    +0.000 N 
ATOM      6  C   UNL     1      -0.798  10.674  22.565  0.00  0.00    +0.000 A 
ATOM      7  C   UNL     1      -0.009   9.685  23.157  0.00  0.00    +0.000 A 
ATOM      8  C   UNL     1       0.809   8.917  22.321  0.00  0.00    +0.000 A 
ATOM      9  C   UNL     1       0.840   9.133  20.945  0.00  0.00    +0.000 A 
ATOM     10  C   UNL     1       0.069  10.159  20.379  0.00  0.00    +0.000 A 
ATOM     11  C   UNL     1      -0.770  10.943  21.197  0.00  0.00    +0.000 A 
ATOM     12  H   UNL     1      -1.917  11.577  24.121  0.00  0.00    +0.000 HD
BRANCH   3  13
ATOM     13  C   UNL     1      -1.905  12.737  19.655  0.00  0.00    +0.000 C 
BRANCH  13  15
ATOM     14  O   UNL     1      -1.941  11.542  17.575  0.00  0.00    +0.000 OA
ATOM     15  C   UNL     1      -2.559  11.918  18.562  0.00  0.00    +0.000 C 
BRANCH  15  16
ATOM     16  O   UNL     1      -3.874  11.645  18.705  0.00  0.00    +0.000 OA
ATOM     17  H   UNL     1      -4.440  12.010  17.999  0.00  0.00    +0.000 HD
ENDBRANCH  15  16
ENDBRANCH  13  15
ENDBRANCH   3  13
ENDBRANCH   2   9
ENDBRANCH   1   2
BRANCH   1  18
ATOM     18  C   UNL     1       2.540   8.004  17.879  0.00  0.00    +0.000 C 
BRANCH  18  19
ATOM     19  C   UNL     1       3.432   7.129  18.763  0.00  0.00    +0.000 C 
BRANCH  19  20
ATOM     20  N   UNL     1       3.550   5.768  18.229  0.00  0.00    +0.000 N 
ATOM     21  C   UNL     1       4.604   5.425  17.363  0.00  0.00    +0.000 A 
ATOM     22  C   UNL     1       5.772   6.181  17.194  0.00  0.00    +0.000 A 
ATOM     23  C   UNL     1       6.814   5.729  16.375  0.00  0.00    +0.000 A 
ATOM     24  C   UNL     1       6.693   4.530  15.676  0.00  0.00    +0.000 A 
ATOM     25  C   UNL     1       5.536   3.771  15.810  0.00  0.00    +0.000 A 
ATOM     26  C   UNL     1       4.521   4.203  16.667  0.00  0.00    +0.000 A 
ATOM     27  O   UNL     1       3.449   3.346  16.807  0.00  0.00    +0.000 OA
ATOM     28  C   UNL     1       2.623   3.563  17.892  0.00  0.00    +0.000 A 
ATOM     29  C   UNL     1       1.800   2.495  18.257  0.00  0.00    +0.000 A 
ATOM     30  C   UNL     1       0.976   2.609  19.370  0.00  0.00    +0.000 A 
ATOM     31  C   UNL     1       0.942   3.805  20.082  0.00  0.00    +0.000 A 
ATOM     32  C   UNL     1       1.737   4.887  19.686  0.00  0.00    +0.000 A 
ATOM     33  C   UNL     1       2.620   4.780  18.603  0.00  0.00    +0.000 A 
ENDBRANCH  19  20
ENDBRANCH  18  19
ENDBRANCH   1  18
TORSDOF 8
ENDMDL
MODEL 6
REMARK VINA RESULT:      -8.6      2.048      9.035
REMARK  Name = 
REMARK  8 active torsions:
REMARK  status: ('A' for Active; 'I' for Inactive)
REMARK    1  A    between atoms: C_2  and  O_3
REMARK    2  A    between atoms: C_2  and  C_4
REMARK    3  A    between atoms: C_4  and  C_5
REMARK    4  A    between atoms: C_11  and  O_12
REMARK    5  A    between atoms: O_12  and  C_13
REMARK    6  A    between atoms: C_13  and  C_14
REMARK    7  A    between atoms: C_14  and  C_15
REMARK    8  A    between atoms: C_15  and  N_16
REMARK                            x       y       z     vdW  Elec       q    Type
REMARK                         _______ _______ _______ _____ _____    ______ ____
ROOT
ATOM      1  C   UNL     1       2.337   8.899  17.763  0.00  0.00    +0.000 C 
ENDROOT
BRANCH   1   2
ATOM      2  O   UNL     1       2.452   7.864  18.741  0.00  0.00    +0.000 OA
BRANCH   2   9
ATOM      3  C   UNL     1       2.582   2.917  18.877  0.00  0.00    +0.000 A 
ATOM      4  C   UNL     1       3.393   2.086  18.128  0.00  0.00    +0.000 A 
ATOM      5  N   UNL     1       4.242   2.859  17.386  0.00  0.00    +0.000 N 
ATOM      6  C   UNL     1       3.978   4.190  17.604  0.00  0.00    +0.000 A 
ATOM      7  C   UNL     1       4.596   5.326  17.072  0.00  0.00    +0.000 A 
ATOM      8  C   UNL     1       4.099   6.577  17.453  0.00  0.00    +0.000 A 
ATOM      9  C   UNL     1       3.028   6.689  18.337  0.00  0.00    +0.000 A 
ATOM     10  C   UNL     1       2.451   5.535  18.890  0.00  0.00    +0.000 A 
ATOM     11  C   UNL     1       2.928   4.262  18.517  0.00  0.00    +0.000 A 
ATOM     12  H   UNL     1       4.962   2.510  16.767  0.00  0.00    +0.000 HD
BRANCH   3  13
ATOM     13  C   UNL     1       1.564   2.489  19.890  0.00  0.00    +0.000 C 
BRANCH  13  15
ATOM     14  O   UNL     1       1.199   2.624  22.257  0.00  0.00    +0.000 OA
ATOM     15  C   UNL     1       2.001   2.516  21.339  0.00  0.00    +0.000 C 
BRANCH  15  16
ATOM     16  O   UNL     1       3.328   2.448  21.581  0.00  0.00    +0.000 OA
ATOM     17  H   UNL     1       3.735   1.589  21.359  0.00  0.00    +0.000 HD
ENDBRANCH  15  16
ENDBRANCH  13  15
ENDBRANCH   3  13
ENDBRANCH   2   9
ENDBRANCH   1   2
BRANCH   1  18
ATOM     18  C   UNL     1       1.436  10.000  18.309  0.00  0.00    +0.000 C 
BRANCH  18  19
ATOM     19  C   UNL     1       0.409   9.444  19.297  0.00  0.00    +0.000 C 
BRANCH  19  20
ATOM     20  N   UNL     1      -0.767  10.315  19.399  0.00  0.00    +0.000 N 
ATOM     21  C   UNL     1      -1.640  10.473  18.307  0.00  0.00    +0.000 A 
ATOM     22  C   UNL     1      -1.687   9.619  17.196  0.00  0.00    +0.000 A 
ATOM     23  C   UNL     1      -2.643   9.794  16.188  0.00  0.00    +0.000 A 
ATOM     24  C   UNL     1      -3.547  10.852  16.249  0.00  0.00    +0.000 A 
ATOM     25  C   UNL     1      -3.509  11.726  17.330  0.00  0.00    +0.000 A 
ATOM     26  C   UNL     1      -2.586  11.516  18.357  0.00  0.00    +0.000 A 
ATOM     27  O   UNL     1      -2.676  12.377  19.431  0.00  0.00    +0.000 OA
ATOM     28  C   UNL     1      -2.040  11.985  20.592  0.00  0.00    +0.000 A 
ATOM     29  C   UNL     1      -2.450  12.631  21.761  0.00  0.00    +0.000 A 
ATOM     30  C   UNL     1      -1.900  12.259  22.983  0.00  0.00    +0.000 A 
ATOM     31  C   UNL     1      -0.909  11.281  23.023  0.00  0.00    +0.000 A 
ATOM     32  C   UNL     1      -0.472  10.668  21.843  0.00  0.00    +0.000 A 
ATOM     33  C   UNL     1      -1.051  10.982  20.605  0.00  0.00    +0.000 A 
ENDBRANCH  19  20
ENDBRANCH  18  19
ENDBRANCH   1  18
TORSDOF 8
ENDMDL
MODEL 7
REMARK VINA RESULT:      -8.6      2.042      9.311
REMARK  Name = 
REMARK  8 active torsions:
REMARK  status: ('A' for Active; 'I' for Inactive)
REMARK    1  A    between atoms: C_2  and  O_3
REMARK    2  A    between atoms: C_2  and  C_4
REMARK    3  A    between atoms: C_4  and  C_5
REMARK    4  A    between atoms: C_11  and  O_12
REMARK    5  A    between atoms: O_12  and  C_13
REMARK    6  A    between atoms: C_13  and  C_14
REMARK    7  A    between atoms: C_14  and  C_15
REMARK    8  A    between atoms: C_15  and  N_16
REMARK                            x       y       z     vdW  Elec       q    Type
REMARK                         _______ _______ _______ _____ _____    ______ ____
ROOT
ATOM      1  C   UNL     1       1.915   8.984  17.863  0.00  0.00    +0.000 C 
ENDROOT
BRANCH   1   2
ATOM      2  O   UNL     1       2.170   7.972  18.838  0.00  0.00    +0.000 OA
BRANCH   2   9
ATOM      3  C   UNL     1       2.627   3.042  18.846  0.00  0.00    +0.000 A 
ATOM      4  C   UNL     1       3.498   2.287  18.085  0.00  0.00    +0.000 A 
ATOM      5  N   UNL     1       4.302   3.134  17.373  0.00  0.00    +0.000 N 
ATOM      6  C   UNL     1       3.948   4.439  17.623  0.00  0.00    +0.000 A 
ATOM      7  C   UNL     1       4.494   5.626  17.128  0.00  0.00    +0.000 A 
ATOM      8  C   UNL     1       3.912   6.831  17.536  0.00  0.00    +0.000 A 
ATOM      9  C   UNL     1       2.827   6.849  18.411  0.00  0.00    +0.000 A 
ATOM     10  C   UNL     1       2.322   5.645  18.926  0.00  0.00    +0.000 A 
ATOM     11  C   UNL     1       2.886   4.416  18.525  0.00  0.00    +0.000 A 
ATOM     12  H   UNL     1       5.049   2.850  16.754  0.00  0.00    +0.000 HD
BRANCH   3  13
ATOM     13  C   UNL     1       1.630   2.521  19.836  0.00  0.00    +0.000 C 
BRANCH  13  15
ATOM     14  O   UNL     1       1.247   2.651  22.201  0.00  0.00    +0.000 OA
ATOM     15  C   UNL     1       2.055   2.527  21.289  0.00  0.00    +0.000 C 
BRANCH  15  16
ATOM     16  O   UNL     1       3.377   2.423  21.542  0.00  0.00    +0.000 OA
ATOM     17  H   UNL     1       3.667   2.865  22.363  0.00  0.00    +0.000 HD
ENDBRANCH  15  16
ENDBRANCH  13  15
ENDBRANCH   3  13
ENDBRANCH   2   9
ENDBRANCH   1   2
BRANCH   1  18
ATOM     18  C   UNL     1       1.291  10.191  18.552  0.00  0.00    +0.000 C 
BRANCH  18  19
ATOM     19  C   UNL     1       0.107   9.782  19.433  0.00  0.00    +0.000 C 
BRANCH  19  20
ATOM     20  N   UNL     1      -0.993  10.748  19.340  0.00  0.00    +0.000 N 
ATOM     21  C   UNL     1      -1.117  11.787  20.281  0.00  0.00    +0.000 A 
ATOM     22  C   UNL     1      -0.096  12.203  21.146  0.00  0.00    +0.000 A 
ATOM     23  C   UNL     1      -0.271  13.302  21.996  0.00  0.00    +0.000 A 
ATOM     24  C   UNL     1      -1.485  13.982  22.029  0.00  0.00    +0.000 A 
ATOM     25  C   UNL     1      -2.522  13.577  21.196  0.00  0.00    +0.000 A 
ATOM     26  C   UNL     1      -2.324  12.512  20.314  0.00  0.00    +0.000 A 
ATOM     27  O   UNL     1      -3.375  12.234  19.464  0.00  0.00    +0.000 OA
ATOM     28  C   UNL     1      -3.088  11.449  18.364  0.00  0.00    +0.000 A 
ATOM     29  C   UNL     1      -4.016  11.496  17.322  0.00  0.00    +0.000 A 
ATOM     30  C   UNL     1      -3.779  10.779  16.155  0.00  0.00    +0.000 A 
ATOM     31  C   UNL     1      -2.642   9.980  16.057  0.00  0.00    +0.000 A 
ATOM     32  C   UNL     1      -1.737   9.904  17.123  0.00  0.00    +0.000 A 
ATOM     33  C   UNL     1      -1.922  10.662  18.287  0.00  0.00    +0.000 A 
ENDBRANCH  19  20
ENDBRANCH  18  19
ENDBRANCH   1  18
TORSDOF 8
ENDMDL
MODEL 8
REMARK VINA RESULT:      -8.5      2.189      4.657
REMARK  Name = 
REMARK  8 active torsions:
REMARK  status: ('A' for Active; 'I' for Inactive)
REMARK    1  A    between atoms: C_2  and  O_3
REMARK    2  A    between atoms: C_2  and  C_4
REMARK    3  A    between atoms: C_4  and  C_5
REMARK    4  A    between atoms: C_11  and  O_12
REMARK    5  A    between atoms: O_12  and  C_13
REMARK    6  A    between atoms: C_13  and  C_14
REMARK    7  A    between atoms: C_14  and  C_15
REMARK    8  A    between atoms: C_15  and  N_16
REMARK                            x       y       z     vdW  Elec       q    Type
REMARK                         _______ _______ _______ _____ _____    ______ ____
ROOT
ATOM      1  C   UNL     1       1.796   9.026  18.753  0.00  0.00    +0.000 C 
ENDROOT
BRANCH   1   2
ATOM      2  O   UNL     1       1.236   9.628  19.921  0.00  0.00    +0.000 OA
BRANCH   2   9
ATOM      3  C   UNL     1      -2.988  10.573  17.518  0.00  0.00    +0.000 A 
ATOM      4  C   UNL     1      -3.905  11.565  17.807  0.00  0.00    +0.000 A 
ATOM      5  N   UNL     1      -3.415  12.327  18.831  0.00  0.00    +0.000 N 
ATOM      6  C   UNL     1      -2.203  11.828  19.250  0.00  0.00    +0.000 A 
ATOM      7  C   UNL     1      -1.344  12.285  20.253  0.00  0.00    +0.000 A 
ATOM      8  C   UNL     1      -0.171  11.559  20.487  0.00  0.00    +0.000 A 
ATOM      9  C   UNL     1       0.133  10.421  19.743  0.00  0.00    +0.000 A 
ATOM     10  C   UNL     1      -0.725  10.005  18.714  0.00  0.00    +0.000 A 
ATOM     11  C   UNL     1      -1.917  10.715  18.462  0.00  0.00    +0.000 A 
ATOM     12  H   UNL     1      -3.868  13.139  19.227  0.00  0.00    +0.000 HD
BRANCH   3  13
ATOM     13  C   UNL     1      -3.085   9.568  16.411  0.00  0.00    +0.000 C 
BRANCH  13  15
ATOM     14  O   UNL     1      -2.689  10.886  14.444  0.00  0.00    +0.000 OA
ATOM     15  C   UNL     1      -3.426  10.108  15.037  0.00  0.00    +0.000 C 
BRANCH  15  16
ATOM     16  O   UNL     1      -4.602   9.718  14.500  0.00  0.00    +0.000 OA
ATOM     17  H   UNL     1      -4.604   8.807  14.151  0.00  0.00    +0.000 HD
ENDBRANCH  15  16
ENDBRANCH  13  15
ENDBRANCH   3  13
ENDBRANCH   2   9
ENDBRANCH   1   2
BRANCH   1  18
ATOM     18  C   UNL     1       2.166   7.582  19.068  0.00  0.00    +0.000 C 
BRANCH  18  19
ATOM     19  C   UNL     1       2.614   6.833  17.810  0.00  0.00    +0.000 C 
BRANCH  19  20
ATOM     20  N   UNL     1       3.536   5.739  18.134  0.00  0.00    +0.000 N 
ATOM     21  C   UNL     1       3.046   4.464  18.474  0.00  0.00    +0.000 A 
ATOM     22  C   UNL     1       1.739   4.023  18.225  0.00  0.00    +0.000 A 
ATOM     23  C   UNL     1       1.352   2.709  18.517  0.00  0.00    +0.000 A 
ATOM     24  C   UNL     1       2.252   1.821  19.101  0.00  0.00    +0.000 A 
ATOM     25  C   UNL     1       3.548   2.240  19.377  0.00  0.00    +0.000 A 
ATOM     26  C   UNL     1       3.943   3.536  19.038  0.00  0.00    +0.000 A 
ATOM     27  O   UNL     1       5.270   3.839  19.267  0.00  0.00    +0.000 OA
ATOM     28  C   UNL     1       5.768   4.956  18.626  0.00  0.00    +0.000 A 
ATOM     29  C   UNL     1       7.159   5.036  18.531  0.00  0.00    +0.000 A 
ATOM     30  C   UNL     1       7.743   6.101  17.854  0.00  0.00    +0.000 A 
ATOM     31  C   UNL     1       6.936   7.103  17.320  0.00  0.00    +0.000 A 
ATOM     32  C   UNL     1       5.544   7.038  17.455  0.00  0.00    +0.000 A 
ATOM     33  C   UNL     1       4.927   5.947  18.082  0.00  0.00    +0.000 A 
ENDBRANCH  19  20
ENDBRANCH  18  19
ENDBRANCH   1  18
TORSDOF 8
ENDMDL
MODEL 9
REMARK VINA RESULT:      -8.5      6.205     10.424
REMARK  Name = 
REMARK  8 active torsions:
REMARK  status: ('A' for Active; 'I' for Inactive)
REMARK    1  A    between atoms: C_2  and  O_3
REMARK    2  A    between atoms: C_2  and  C_4
REMARK    3  A    between atoms: C_4  and  C_5
REMARK    4  A    between atoms: C_11  and  O_12
REMARK    5  A    between atoms: O_12  and  C_13
REMARK    6  A    between atoms: C_13  and  C_14
REMARK    7  A    between atoms: C_14  and  C_15
REMARK    8  A    between atoms: C_15  and  N_16
REMARK                            x       y       z     vdW  Elec       q    Type
REMARK                         _______ _______ _______ _____ _____    ______ ____
ROOT
ATOM      1  C   UNL     1       8.189   8.369  18.186  0.00  0.00    +0.000 C 
ENDROOT
BRANCH   1   2
ATOM      2  O   UNL     1       7.317   8.052  17.100  0.00  0.00    +0.000 OA
BRANCH   2   9
ATOM      3  C   UNL     1       3.415   5.059  17.671  0.00  0.00    +0.000 A 
ATOM      4  C   UNL     1       3.361   3.703  17.411  0.00  0.00    +0.000 A 
ATOM      5  N   UNL     1       4.609   3.280  17.046  0.00  0.00    +0.000 N 
ATOM      6  C   UNL     1       5.479   4.345  17.023  0.00  0.00    +0.000 A 
ATOM      7  C   UNL     1       6.842   4.383  16.718  0.00  0.00    +0.000 A 
ATOM      8  C   UNL     1       7.482   5.627  16.750  0.00  0.00    +0.000 A 
ATOM      9  C   UNL     1       6.787   6.789  17.077  0.00  0.00    +0.000 A 
ATOM     10  C   UNL     1       5.427   6.719  17.419  0.00  0.00    +0.000 A 
ATOM     11  C   UNL     1       4.757   5.480  17.388  0.00  0.00    +0.000 A 
ATOM     12  H   UNL     1       4.864   2.327  16.825  0.00  0.00    +0.000 HD
BRANCH   3  13
ATOM     13  C   UNL     1       2.292   5.911  18.181  0.00  0.00    +0.000 C 
BRANCH  13  15
ATOM     14  O   UNL     1       2.046   7.588  19.878  0.00  0.00    +0.000 OA
ATOM     15  C   UNL     1       2.451   6.473  19.578  0.00  0.00    +0.000 C 
BRANCH  15  16
ATOM     16  O   UNL     1       3.093   5.700  20.480  0.00  0.00    +0.000 OA
ATOM     17  H   UNL     1       2.744   4.791  20.553  0.00  0.00    +0.000 HD
ENDBRANCH  15  16
ENDBRANCH  13  15
ENDBRANCH   3  13
ENDBRANCH   2   9
ENDBRANCH   1   2
BRANCH   1  18
ATOM     18  C   UNL     1       8.451   9.870  18.191  0.00  0.00    +0.000 C 
BRANCH  18  19
ATOM     19  C   UNL     1       9.533  10.245  19.207  0.00  0.00    +0.000 C 
BRANCH  19  20
ATOM     20  N   UNL     1       9.525  11.683  19.494  0.00  0.00    +0.000 N 
ATOM     21  C   UNL     1       8.992  12.171  20.702  0.00  0.00    +0.000 A 
ATOM     22  C   UNL     1       8.742  11.386  21.835  0.00  0.00    +0.000 A 
ATOM     23  C   UNL     1       8.290  11.961  23.029  0.00  0.00    +0.000 A 
ATOM     24  C   UNL     1       8.038  13.330  23.102  0.00  0.00    +0.000 A 
ATOM     25  C   UNL     1       8.258  14.128  21.985  0.00  0.00    +0.000 A 
ATOM     26  C   UNL     1       8.758  13.556  20.813  0.00  0.00    +0.000 A 
ATOM     27  O   UNL     1       9.029  14.434  19.784  0.00  0.00    +0.000 OA
ATOM     28  C   UNL     1       9.841  13.966  18.770  0.00  0.00    +0.000 A 
ATOM     29  C   UNL     1      10.430  14.940  17.961  0.00  0.00    +0.000 A 
ATOM     30  C   UNL     1      11.305  14.558  16.950  0.00  0.00    +0.000 A 
ATOM     31  C   UNL     1      11.546  13.206  16.722  0.00  0.00    +0.000 A 
ATOM     32  C   UNL     1      10.920  12.233  17.510  0.00  0.00    +0.000 A 
ATOM     33  C   UNL     1      10.079  12.592  18.573  0.00  0.00    +0.000 A 
ENDBRANCH  19  20
ENDBRANCH  18  19
ENDBRANCH   1  18
TORSDOF 8
ENDMDL
