MODEL 1
REMARK VINA RESULT:      -6.5      0.000      0.000
REMARK  Name = 
REMARK  9 active torsions:
REMARK  status: ('A' for Active; 'I' for Inactive)
REMARK    1  A    between atoms: C_1  and  N_2
REMARK    2  A    between atoms: N_2  and  S_3
REMARK    3  A    between atoms: S_3  and  C_6
REMARK    4  A    between atoms: C_10  and  N_11
REMARK    5  A    between atoms: N_11  and  C_12
REMARK    6  A    between atoms: C_12  and  C_13
REMARK    7  A    between atoms: C_15  and  C_16
REMARK    8  A    between atoms: C_16  and  O_17
REMARK    9  A    between atoms: O_17  and  C_18
REMARK                            x       y       z     vdW  Elec       q    Type
REMARK                         _______ _______ _______ _____ _____    ______ ____
ROOT
ATOM      1  C   UNL     1       2.697   3.928  18.342  0.00  0.00    +0.000 A 
ATOM      2  C   UNL     1       2.380   5.284  18.404  0.00  0.00    +0.000 A 
ATOM      3  C   UNL     1       3.262   6.210  17.856  0.00  0.00    +0.000 A 
ATOM      4  C   UNL     1       4.449   5.774  17.255  0.00  0.00    +0.000 A 
ATOM      5  C   UNL     1       4.785   4.413  17.189  0.00  0.00    +0.000 A 
ATOM      6  C   UNL     1       3.904   3.499  17.773  0.00  0.00    +0.000 A 
ENDROOT
BRANCH   1   7
ATOM      7  S   UNL     1       1.617   2.725  19.066  0.00  0.00    +0.000 S 
ATOM      8  O   UNL     1       2.411   1.574  19.434  0.00  0.00    +0.000 OA
ATOM      9  O   UNL     1       0.436   2.598  18.238  0.00  0.00    +0.000 OA
BRANCH   7  11
ATOM     10  C   UNL     1       2.106   3.408  21.632  0.00  0.00    +0.000 C 
ATOM     11  N   UNL     1       1.173   3.459  20.512  0.00  0.00    +0.000 NA
ATOM     12  H   UNL     1       0.665   4.328  20.352  0.00  0.00    +0.000 HD
ENDBRANCH   7  11
ENDBRANCH   1   7
BRANCH   5  13
ATOM     13  N   UNL     1       6.031   4.060  16.682  0.00  0.00    +0.000 N 
ATOM     14  H   UNL     1       6.625   3.582  17.354  0.00  0.00    +0.000 HD
BRANCH  13  15
ATOM     15  C   UNL     1       6.768   4.960  15.800  0.00  0.00    +0.000 C 
BRANCH  15  16
ATOM     16  C   UNL     1       6.756   4.510  14.367  0.00  0.00    +0.000 A 
ATOM     17  C   UNL     1       5.995   3.502  13.807  0.00  0.00    +0.000 A 
ATOM     18  C   UNL     1       6.230   3.340  12.404  0.00  0.00    +0.000 A 
ATOM     19  C   UNL     1       7.177   4.245  11.961  0.00  0.00    +0.000 A 
ATOM     20  S   UNL     1       7.757   5.260  13.204  0.00  0.00    +0.000 S 
BRANCH  18  21
ATOM     21  C   UNL     1       5.538   2.330  11.543  0.00  0.00    +0.000 C 
BRANCH  21  22
ATOM     22  O   UNL     1       6.474   1.398  11.000  0.00  0.00    +0.000 OA
ATOM     23  C   UNL     1       6.089   0.059  11.275  0.00  0.00    +0.000 C 
ENDBRANCH  21  22
ENDBRANCH  18  21
ENDBRANCH  15  16
ENDBRANCH  13  15
ENDBRANCH   5  13
TORSDOF 7
ENDMDL
MODEL 2
REMARK VINA RESULT:      -6.4      1.328      1.578
REMARK  Name = 
REMARK  9 active torsions:
REMARK  status: ('A' for Active; 'I' for Inactive)
REMARK    1  A    between atoms: C_1  and  N_2
REMARK    2  A    between atoms: N_2  and  S_3
REMARK    3  A    between atoms: S_3  and  C_6
REMARK    4  A    between atoms: C_10  and  N_11
REMARK    5  A    between atoms: N_11  and  C_12
REMARK    6  A    between atoms: C_12  and  C_13
REMARK    7  A    between atoms: C_15  and  C_16
REMARK    8  A    between atoms: C_16  and  O_17
REMARK    9  A    between atoms: O_17  and  C_18
REMARK                            x       y       z     vdW  Elec       q    Type
REMARK                         _______ _______ _______ _____ _____    ______ ____
ROOT
ATOM      1  C   UNL     1       3.014   4.293  18.150  0.00  0.00    +0.000 A 
ATOM      2  C   UNL     1       2.272   5.387  18.591  0.00  0.00    +0.000 A 
ATOM      3  C   UNL     1       2.672   6.667  18.220  0.00  0.00    +0.000 A 
ATOM      4  C   UNL     1       3.805   6.841  17.417  0.00  0.00    +0.000 A 
ATOM      5  C   UNL     1       4.566   5.749  16.969  0.00  0.00    +0.000 A 
ATOM      6  C   UNL     1       4.169   4.473  17.378  0.00  0.00    +0.000 A 
ENDROOT
BRANCH   1   7
ATOM      7  S   UNL     1       2.558   2.651  18.637  0.00  0.00    +0.000 S 
ATOM      8  O   UNL     1       3.505   1.730  18.050  0.00  0.00    +0.000 OA
ATOM      9  O   UNL     1       1.131   2.490  18.455  0.00  0.00    +0.000 OA
BRANCH   7  11
ATOM     10  C   UNL     1       1.764   2.753  21.216  0.00  0.00    +0.000 C 
ATOM     11  N   UNL     1       2.884   2.658  20.287  0.00  0.00    +0.000 NA
ATOM     12  H   UNL     1       3.647   2.024  20.521  0.00  0.00    +0.000 HD
ENDBRANCH   7  11
ENDBRANCH   1   7
BRANCH   5  13
ATOM     13  N   UNL     1       5.744   6.000  16.273  0.00  0.00    +0.000 N 
ATOM     14  H   UNL     1       5.639   6.681  15.525  0.00  0.00    +0.000 HD
BRANCH  13  15
ATOM     15  C   UNL     1       6.668   4.919  15.944  0.00  0.00    +0.000 C 
BRANCH  15  16
ATOM     16  C   UNL     1       6.606   4.520  14.498  0.00  0.00    +0.000 A 
ATOM     17  C   UNL     1       5.649   3.739  13.880  0.00  0.00    +0.000 A 
ATOM     18  C   UNL     1       5.894   3.559  12.480  0.00  0.00    +0.000 A 
ATOM     19  C   UNL     1       7.047   4.219  12.099  0.00  0.00    +0.000 A 
ATOM     20  S   UNL     1       7.804   5.035  13.394  0.00  0.00    +0.000 S 
BRANCH  18  21
ATOM     21  C   UNL     1       5.014   2.767  11.565  0.00  0.00    +0.000 C 
BRANCH  21  22
ATOM     22  O   UNL     1       3.717   3.356  11.470  0.00  0.00    +0.000 OA
ATOM     23  C   UNL     1       3.309   3.490  10.116  0.00  0.00    +0.000 C 
ENDBRANCH  21  22
ENDBRANCH  18  21
ENDBRANCH  15  16
ENDBRANCH  13  15
ENDBRANCH   5  13
TORSDOF 7
ENDMDL
MODEL 3
REMARK VINA RESULT:      -6.4      4.856      8.872
REMARK  Name = 
REMARK  9 active torsions:
REMARK  status: ('A' for Active; 'I' for Inactive)
REMARK    1  A    between atoms: C_1  and  N_2
REMARK    2  A    between atoms: N_2  and  S_3
REMARK    3  A    between atoms: S_3  and  C_6
REMARK    4  A    between atoms: C_10  and  N_11
REMARK    5  A    between atoms: N_11  and  C_12
REMARK    6  A    between atoms: C_12  and  C_13
REMARK    7  A    between atoms: C_15  and  C_16
REMARK    8  A    between atoms: C_16  and  O_17
REMARK    9  A    between atoms: O_17  and  C_18
REMARK                            x       y       z     vdW  Elec       q    Type
REMARK                         _______ _______ _______ _____ _____    ______ ____
ROOT
ATOM      1  C   UNL     1       5.265   5.064  16.813  0.00  0.00    +0.000 A 
ATOM      2  C   UNL     1       4.744   3.773  16.741  0.00  0.00    +0.000 A 
ATOM      3  C   UNL     1       3.466   3.532  17.236  0.00  0.00    +0.000 A 
ATOM      4  C   UNL     1       2.725   4.579  17.797  0.00  0.00    +0.000 A 
ATOM      5  C   UNL     1       3.237   5.883  17.881  0.00  0.00    +0.000 A 
ATOM      6  C   UNL     1       4.535   6.100  17.409  0.00  0.00    +0.000 A 
ENDROOT
BRANCH   1   7
ATOM      7  S   UNL     1       6.904   5.398  16.230  0.00  0.00    +0.000 S 
ATOM      8  O   UNL     1       6.839   5.595  14.799  0.00  0.00    +0.000 OA
ATOM      9  O   UNL     1       7.816   4.444  16.824  0.00  0.00    +0.000 OA
BRANCH   7  11
ATOM     10  C   UNL     1       7.870   6.982  18.192  0.00  0.00    +0.000 C 
ATOM     11  N   UNL     1       7.222   6.913  16.887  0.00  0.00    +0.000 NA
ATOM     12  H   UNL     1       7.514   7.579  16.173  0.00  0.00    +0.000 HD
ENDBRANCH   7  11
ENDBRANCH   1   7
BRANCH   5  13
ATOM     13  N   UNL     1       2.494   6.847  18.554  0.00  0.00    +0.000 N 
ATOM     14  H   UNL     1       1.569   6.530  18.831  0.00  0.00    +0.000 HD
BRANCH  13  15
ATOM     15  C   UNL     1       2.524   8.246  18.137  0.00  0.00    +0.000 C 
BRANCH  15  16
ATOM     16  C   UNL     1       1.392   9.049  18.711  0.00  0.00    +0.000 A 
ATOM     17  C   UNL     1       0.505   9.861  18.030  0.00  0.00    +0.000 A 
ATOM     18  C   UNL     1      -0.459  10.478  18.890  0.00  0.00    +0.000 A 
ATOM     19  C   UNL     1      -0.252  10.101  20.203  0.00  0.00    +0.000 A 
ATOM     20  S   UNL     1       1.065   9.031  20.387  0.00  0.00    +0.000 S 
BRANCH  18  21
ATOM     21  C   UNL     1      -1.541  11.399  18.420  0.00  0.00    +0.000 C 
BRANCH  21  22
ATOM     22  O   UNL     1      -1.428  12.677  19.047  0.00  0.00    +0.000 OA
ATOM     23  C   UNL     1      -0.403  13.456  18.448  0.00  0.00    +0.000 C 
ENDBRANCH  21  22
ENDBRANCH  18  21
ENDBRANCH  15  16
ENDBRANCH  13  15
ENDBRANCH   5  13
TORSDOF 7
ENDMDL
MODEL 4
REMARK VINA RESULT:      -6.3      4.966      8.980
REMARK  Name = 
REMARK  9 active torsions:
REMARK  status: ('A' for Active; 'I' for Inactive)
REMARK    1  A    between atoms: C_1  and  N_2
REMARK    2  A    between atoms: N_2  and  S_3
REMARK    3  A    between atoms: S_3  and  C_6
REMARK    4  A    between atoms: C_10  and  N_11
REMARK    5  A    between atoms: N_11  and  C_12
REMARK    6  A    between atoms: C_12  and  C_13
REMARK    7  A    between atoms: C_15  and  C_16
REMARK    8  A    between atoms: C_16  and  O_17
REMARK    9  A    between atoms: O_17  and  C_18
REMARK                            x       y       z     vdW  Elec       q    Type
REMARK                         _______ _______ _______ _____ _____    ______ ____
ROOT
ATOM      1  C   UNL     1       4.972   5.054  17.382  0.00  0.00    +0.000 A 
ATOM      2  C   UNL     1       4.238   3.874  17.272  0.00  0.00    +0.000 A 
ATOM      3  C   UNL     1       2.877   3.897  17.557  0.00  0.00    +0.000 A 
ATOM      4  C   UNL     1       2.264   5.093  17.950  0.00  0.00    +0.000 A 
ATOM      5  C   UNL     1       2.991   6.288  18.071  0.00  0.00    +0.000 A 
ATOM      6  C   UNL     1       4.364   6.241  17.812  0.00  0.00    +0.000 A 
ENDROOT
BRANCH   1   7
ATOM      7  S   UNL     1       6.716   5.053  17.066  0.00  0.00    +0.000 S 
ATOM      8  O   UNL     1       6.944   4.355  15.821  0.00  0.00    +0.000 OA
ATOM      9  O   UNL     1       7.411   4.685  18.281  0.00  0.00    +0.000 OA
BRANCH   7  11
ATOM     10  C   UNL     1       7.782   7.443  17.731  0.00  0.00    +0.000 C 
ATOM     11  N   UNL     1       7.028   6.675  16.748  0.00  0.00    +0.000 NA
ATOM     12  H   UNL     1       7.231   6.832  15.761  0.00  0.00    +0.000 HD
ENDBRANCH   7  11
ENDBRANCH   1   7
BRANCH   5  13
ATOM     13  N   UNL     1       2.344   7.411  18.577  0.00  0.00    +0.000 N 
ATOM     14  H   UNL     1       1.535   7.193  19.152  0.00  0.00    +0.000 HD
BRANCH  13  15
ATOM     15  C   UNL     1       2.165   8.608  17.761  0.00  0.00    +0.000 C 
BRANCH  15  16
ATOM     16  C   UNL     1       1.565   9.752  18.527  0.00  0.00    +0.000 A 
ATOM     17  C   UNL     1       0.631   9.686  19.543  0.00  0.00    +0.000 A 
ATOM     18  C   UNL     1       0.279  10.974  20.061  0.00  0.00    +0.000 A 
ATOM     19  C   UNL     1       0.971  11.971  19.398  0.00  0.00    +0.000 A 
ATOM     20  S   UNL     1       2.017  11.365  18.193  0.00  0.00    +0.000 S 
BRANCH  18  21
ATOM     21  C   UNL     1      -0.702  11.199  21.168  0.00  0.00    +0.000 C 
BRANCH  21  22
ATOM     22  O   UNL     1      -0.061  11.108  22.441  0.00  0.00    +0.000 OA
ATOM     23  C   UNL     1      -0.507   9.969  23.163  0.00  0.00    +0.000 C 
ENDBRANCH  21  22
ENDBRANCH  18  21
ENDBRANCH  15  16
ENDBRANCH  13  15
ENDBRANCH   5  13
TORSDOF 7
ENDMDL
MODEL 5
REMARK VINA RESULT:      -6.2      4.985      8.826
REMARK  Name = 
REMARK  9 active torsions:
REMARK  status: ('A' for Active; 'I' for Inactive)
REMARK    1  A    between atoms: C_1  and  N_2
REMARK    2  A    between atoms: N_2  and  S_3
REMARK    3  A    between atoms: S_3  and  C_6
REMARK    4  A    between atoms: C_10  and  N_11
REMARK    5  A    between atoms: N_11  and  C_12
REMARK    6  A    between atoms: C_12  and  C_13
REMARK    7  A    between atoms: C_15  and  C_16
REMARK    8  A    between atoms: C_16  and  O_17
REMARK    9  A    between atoms: O_17  and  C_18
REMARK                            x       y       z     vdW  Elec       q    Type
REMARK                         _______ _______ _______ _____ _____    ______ ____
ROOT
ATOM      1  C   UNL     1       5.064   5.364  16.942  0.00  0.00    +0.000 A 
ATOM      2  C   UNL     1       4.602   4.049  16.938  0.00  0.00    +0.000 A 
ATOM      3  C   UNL     1       3.328   3.779  17.427  0.00  0.00    +0.000 A 
ATOM      4  C   UNL     1       2.531   4.821  17.915  0.00  0.00    +0.000 A 
ATOM      5  C   UNL     1       2.983   6.150  17.930  0.00  0.00    +0.000 A 
ATOM      6  C   UNL     1       4.277   6.399  17.466  0.00  0.00    +0.000 A 
ENDROOT
BRANCH   1   7
ATOM      7  S   UNL     1       6.696   5.739  16.365  0.00  0.00    +0.000 S 
ATOM      8  O   UNL     1       7.558   4.631  16.710  0.00  0.00    +0.000 OA
ATOM      9  O   UNL     1       7.023   7.099  16.737  0.00  0.00    +0.000 OA
BRANCH   7  11
ATOM     10  C   UNL     1       6.611   4.380  14.033  0.00  0.00    +0.000 C 
ATOM     11  N   UNL     1       6.514   5.676  14.694  0.00  0.00    +0.000 NA
ATOM     12  H   UNL     1       5.798   6.326  14.370  0.00  0.00    +0.000 HD
ENDBRANCH   7  11
ENDBRANCH   1   7
BRANCH   5  13
ATOM     13  N   UNL     1       2.185   7.117  18.534  0.00  0.00    +0.000 N 
ATOM     14  H   UNL     1       1.254   6.788  18.772  0.00  0.00    +0.000 HD
BRANCH  13  15
ATOM     15  C   UNL     1       2.208   8.503  18.078  0.00  0.00    +0.000 C 
BRANCH  15  16
ATOM     16  C   UNL     1       1.101   9.328  18.667  0.00  0.00    +0.000 A 
ATOM     17  C   UNL     1       0.071   9.958  17.995  0.00  0.00    +0.000 A 
ATOM     18  C   UNL     1      -0.819  10.660  18.869  0.00  0.00    +0.000 A 
ATOM     19  C   UNL     1      -0.413  10.530  20.184  0.00  0.00    +0.000 A 
ATOM     20  S   UNL     1       0.998   9.584  20.353  0.00  0.00    +0.000 S 
BRANCH  18  21
ATOM     21  C   UNL     1      -2.023  11.423  18.414  0.00  0.00    +0.000 C 
BRANCH  21  22
ATOM     22  O   UNL     1      -2.086  11.470  16.988  0.00  0.00    +0.000 OA
ATOM     23  C   UNL     1      -3.342  11.011  16.511  0.00  0.00    +0.000 C 
ENDBRANCH  21  22
ENDBRANCH  18  21
ENDBRANCH  15  16
ENDBRANCH  13  15
ENDBRANCH   5  13
TORSDOF 7
ENDMDL
MODEL 6
REMARK VINA RESULT:      -6.2      5.225      9.524
REMARK  Name = 
REMARK  9 active torsions:
REMARK  status: ('A' for Active; 'I' for Inactive)
REMARK    1  A    between atoms: C_1  and  N_2
REMARK    2  A    between atoms: N_2  and  S_3
REMARK    3  A    between atoms: S_3  and  C_6
REMARK    4  A    between atoms: C_10  and  N_11
REMARK    5  A    between atoms: N_11  and  C_12
REMARK    6  A    between atoms: C_12  and  C_13
REMARK    7  A    between atoms: C_15  and  C_16
REMARK    8  A    between atoms: C_16  and  O_17
REMARK    9  A    between atoms: O_17  and  C_18
REMARK                            x       y       z     vdW  Elec       q    Type
REMARK                         _______ _______ _______ _____ _____    ______ ____
ROOT
ATOM      1  C   UNL     1       5.369   5.239  16.990  0.00  0.00    +0.000 A 
ATOM      2  C   UNL     1       4.866   3.963  17.240  0.00  0.00    +0.000 A 
ATOM      3  C   UNL     1       3.606   3.835  17.815  0.00  0.00    +0.000 A 
ATOM      4  C   UNL     1       2.864   4.978  18.135  0.00  0.00    +0.000 A 
ATOM      5  C   UNL     1       3.358   6.269  17.894  0.00  0.00    +0.000 A 
ATOM      6  C   UNL     1       4.639   6.380  17.346  0.00  0.00    +0.000 A 
ENDROOT
BRANCH   1   7
ATOM      7  S   UNL     1       6.987   5.440  16.295  0.00  0.00    +0.000 S 
ATOM      8  O   UNL     1       7.747   4.243  16.577  0.00  0.00    +0.000 OA
ATOM      9  O   UNL     1       7.484   6.754  16.642  0.00  0.00    +0.000 OA
BRANCH   7  11
ATOM     10  C   UNL     1       6.384   4.127  14.014  0.00  0.00    +0.000 C 
ATOM     11  N   UNL     1       6.679   5.409  14.642  0.00  0.00    +0.000 NA
ATOM     12  H   UNL     1       6.139   6.222  14.346  0.00  0.00    +0.000 HD
ENDBRANCH   7  11
ENDBRANCH   1   7
BRANCH   5  13
ATOM     13  N   UNL     1       2.619   7.359  18.342  0.00  0.00    +0.000 N 
ATOM     14  H   UNL     1       2.935   8.249  17.966  0.00  0.00    +0.000 HD
BRANCH  13  15
ATOM     15  C   UNL     1       2.170   7.445  19.728  0.00  0.00    +0.000 C 
BRANCH  15  16
ATOM     16  C   UNL     1       1.355   8.676  20.001  0.00  0.00    +0.000 A 
ATOM     17  C   UNL     1       0.752   9.041  21.190  0.00  0.00    +0.000 A 
ATOM     18  C   UNL     1       0.053  10.287  21.102  0.00  0.00    +0.000 A 
ATOM     19  C   UNL     1       0.158  10.815  19.828  0.00  0.00    +0.000 A 
ATOM     20  S   UNL     1       1.078   9.834  18.777  0.00  0.00    +0.000 S 
BRANCH  18  21
ATOM     21  C   UNL     1      -0.683  10.925  22.238  0.00  0.00    +0.000 C 
BRANCH  21  22
ATOM     22  O   UNL     1      -0.665  12.348  22.120  0.00  0.00    +0.000 OA
ATOM     23  C   UNL     1      -1.342  12.964  23.206  0.00  0.00    +0.000 C 
ENDBRANCH  21  22
ENDBRANCH  18  21
ENDBRANCH  15  16
ENDBRANCH  13  15
ENDBRANCH   5  13
TORSDOF 7
ENDMDL
MODEL 7
REMARK VINA RESULT:      -6.1      2.182      3.078
REMARK  Name = 
REMARK  9 active torsions:
REMARK  status: ('A' for Active; 'I' for Inactive)
REMARK    1  A    between atoms: C_1  and  N_2
REMARK    2  A    between atoms: N_2  and  S_3
REMARK    3  A    between atoms: S_3  and  C_6
REMARK    4  A    between atoms: C_10  and  N_11
REMARK    5  A    between atoms: N_11  and  C_12
REMARK    6  A    between atoms: C_12  and  C_13
REMARK    7  A    between atoms: C_15  and  C_16
REMARK    8  A    between atoms: C_16  and  O_17
REMARK    9  A    between atoms: O_17  and  C_18
REMARK                            x       y       z     vdW  Elec       q    Type
REMARK                         _______ _______ _______ _____ _____    ______ ____
ROOT
ATOM      1  C   UNL     1       2.304   4.224  19.027  0.00  0.00    +0.000 A 
ATOM      2  C   UNL     1       1.764   4.672  20.232  0.00  0.00    +0.000 A 
ATOM      3  C   UNL     1       1.795   6.033  20.521  0.00  0.00    +0.000 A 
ATOM      4  C   UNL     1       2.365   6.929  19.608  0.00  0.00    +0.000 A 
ATOM      5  C   UNL     1       2.917   6.493  18.394  0.00  0.00    +0.000 A 
ATOM      6  C   UNL     1       2.907   5.119  18.134  0.00  0.00    +0.000 A 
ENDROOT
BRANCH   1   7
ATOM      7  S   UNL     1       2.318   2.494  18.645  0.00  0.00    +0.000 S 
ATOM      8  O   UNL     1       2.097   2.348  17.223  0.00  0.00    +0.000 OA
ATOM      9  O   UNL     1       1.503   1.794  19.615  0.00  0.00    +0.000 OA
BRANCH   7  11
ATOM     10  C   UNL     1       4.466   2.199  20.255  0.00  0.00    +0.000 C 
ATOM     11  N   UNL     1       3.926   2.077  18.905  0.00  0.00    +0.000 NA
ATOM     12  H   UNL     1       4.198   1.264  18.354  0.00  0.00    +0.000 HD
ENDBRANCH   7  11
ENDBRANCH   1   7
BRANCH   5  13
ATOM     13  N   UNL     1       3.569   7.421  17.588  0.00  0.00    +0.000 N 
ATOM     14  H   UNL     1       3.148   7.531  16.669  0.00  0.00    +0.000 HD
BRANCH  13  15
ATOM     15  C   UNL     1       5.026   7.509  17.569  0.00  0.00    +0.000 C 
BRANCH  15  16
ATOM     16  C   UNL     1       5.670   6.367  16.837  0.00  0.00    +0.000 A 
ATOM     17  C   UNL     1       5.259   5.788  15.653  0.00  0.00    +0.000 A 
ATOM     18  C   UNL     1       6.111   4.717  15.230  0.00  0.00    +0.000 A 
ATOM     19  C   UNL     1       7.142   4.531  16.132  0.00  0.00    +0.000 A 
ATOM     20  S   UNL     1       7.081   5.621  17.444  0.00  0.00    +0.000 S 
BRANCH  18  21
ATOM     21  C   UNL     1       5.907   3.919  13.981  0.00  0.00    +0.000 C 
BRANCH  21  22
ATOM     22  O   UNL     1       6.923   4.210  13.021  0.00  0.00    +0.000 OA
ATOM     23  C   UNL     1       6.764   3.427  11.847  0.00  0.00    +0.000 C 
ENDBRANCH  21  22
ENDBRANCH  18  21
ENDBRANCH  15  16
ENDBRANCH  13  15
ENDBRANCH   5  13
TORSDOF 7
ENDMDL
MODEL 8
REMARK VINA RESULT:      -6.1      4.925      8.940
REMARK  Name = 
REMARK  9 active torsions:
REMARK  status: ('A' for Active; 'I' for Inactive)
REMARK    1  A    between atoms: C_1  and  N_2
REMARK    2  A    between atoms: N_2  and  S_3
REMARK    3  A    between atoms: S_3  and  C_6
REMARK    4  A    between atoms: C_10  and  N_11
REMARK    5  A    between atoms: N_11  and  C_12
REMARK    6  A    between atoms: C_12  and  C_13
REMARK    7  A    between atoms: C_15  and  C_16
REMARK    8  A    between atoms: C_16  and  O_17
REMARK    9  A    between atoms: O_17  and  C_18
REMARK                            x       y       z     vdW  Elec       q    Type
REMARK                         _______ _______ _______ _____ _____    ______ ____
ROOT
ATOM      1  C   UNL     1       5.498   5.479  17.527  0.00  0.00    +0.000 A 
ATOM      2  C   UNL     1       5.524   4.613  18.619  0.00  0.00    +0.000 A 
ATOM      3  C   UNL     1       4.455   4.617  19.510  0.00  0.00    +0.000 A 
ATOM      4  C   UNL     1       3.376   5.485  19.302  0.00  0.00    +0.000 A 
ATOM      5  C   UNL     1       3.337   6.365  18.210  0.00  0.00    +0.000 A 
ATOM      6  C   UNL     1       4.434   6.371  17.344  0.00  0.00    +0.000 A 
ENDROOT
BRANCH   1   7
ATOM      7  S   UNL     1       6.861   5.528  16.396  0.00  0.00    +0.000 S 
ATOM      8  O   UNL     1       6.327   5.628  15.056  0.00  0.00    +0.000 OA
ATOM      9  O   UNL     1       7.809   4.497  16.760  0.00  0.00    +0.000 OA
BRANCH   7  11
ATOM     10  C   UNL     1       7.929   7.327  18.103  0.00  0.00    +0.000 C 
ATOM     11  N   UNL     1       7.554   7.024  16.727  0.00  0.00    +0.000 NA
ATOM     12  H   UNL     1       8.186   7.318  15.983  0.00  0.00    +0.000 HD
ENDBRANCH   7  11
ENDBRANCH   1   7
BRANCH   5  13
ATOM     13  N   UNL     1       2.291   7.279  18.129  0.00  0.00    +0.000 N 
ATOM     14  H   UNL     1       1.413   6.868  17.826  0.00  0.00    +0.000 HD
BRANCH  13  15
ATOM     15  C   UNL     1       2.507   8.626  17.610  0.00  0.00    +0.000 C 
BRANCH  15  16
ATOM     16  C   UNL     1       1.824   9.683  18.429  0.00  0.00    +0.000 A 
ATOM     17  C   UNL     1       0.968   9.497  19.498  0.00  0.00    +0.000 A 
ATOM     18  C   UNL     1       0.497  10.729  20.056  0.00  0.00    +0.000 A 
ATOM     19  C   UNL     1       1.023  11.807  19.369  0.00  0.00    +0.000 A 
ATOM     20  S   UNL     1       2.058  11.341  18.093  0.00  0.00    +0.000 S 
BRANCH  18  21
ATOM     21  C   UNL     1      -0.433  10.826  21.224  0.00  0.00    +0.000 C 
BRANCH  21  22
ATOM     22  O   UNL     1       0.278  10.675  22.453  0.00  0.00    +0.000 OA
ATOM     23  C   UNL     1      -0.310   9.673  23.270  0.00  0.00    +0.000 C 
ENDBRANCH  21  22
ENDBRANCH  18  21
ENDBRANCH  15  16
ENDBRANCH  13  15
ENDBRANCH   5  13
TORSDOF 7
ENDMDL
MODEL 9
REMARK VINA RESULT:      -6.1      4.594      8.590
REMARK  Name = 
REMARK  9 active torsions:
REMARK  status: ('A' for Active; 'I' for Inactive)
REMARK    1  A    between atoms: C_1  and  N_2
REMARK    2  A    between atoms: N_2  and  S_3
REMARK    3  A    between atoms: S_3  and  C_6
REMARK    4  A    between atoms: C_10  and  N_11
REMARK    5  A    between atoms: N_11  and  C_12
REMARK    6  A    between atoms: C_12  and  C_13
REMARK    7  A    between atoms: C_15  and  C_16
REMARK    8  A    between atoms: C_16  and  O_17
REMARK    9  A    between atoms: O_17  and  C_18
REMARK                            x       y       z     vdW  Elec       q    Type
REMARK                         _______ _______ _______ _____ _____    ______ ____
ROOT
ATOM      1  C   UNL     1       5.567   4.769  17.657  0.00  0.00    +0.000 A 
ATOM      2  C   UNL     1       5.197   3.764  16.764  0.00  0.00    +0.000 A 
ATOM      3  C   UNL     1       3.853   3.424  16.650  0.00  0.00    +0.000 A 
ATOM      4  C   UNL     1       2.895   4.086  17.427  0.00  0.00    +0.000 A 
ATOM      5  C   UNL     1       3.252   5.096  18.334  0.00  0.00    +0.000 A 
ATOM      6  C   UNL     1       4.610   5.403  18.460  0.00  0.00    +0.000 A 
ENDROOT
BRANCH   1   7
ATOM      7  S   UNL     1       7.273   5.201  17.858  0.00  0.00    +0.000 S 
ATOM      8  O   UNL     1       8.070   4.208  17.172  0.00  0.00    +0.000 OA
ATOM      9  O   UNL     1       7.510   5.538  19.246  0.00  0.00    +0.000 OA
BRANCH   7  11
ATOM     10  C   UNL     1       7.731   7.852  17.625  0.00  0.00    +0.000 C 
ATOM     11  N   UNL     1       7.402   6.606  16.942  0.00  0.00    +0.000 NA
ATOM     12  H   UNL     1       7.839   6.426  16.039  0.00  0.00    +0.000 HD
ENDBRANCH   7  11
ENDBRANCH   1   7
BRANCH   5  13
ATOM     13  N   UNL     1       2.265   5.631  19.156  0.00  0.00    +0.000 N 
ATOM     14  H   UNL     1       1.354   5.698  18.711  0.00  0.00    +0.000 HD
BRANCH  13  15
ATOM     15  C   UNL     1       2.554   6.749  20.049  0.00  0.00    +0.000 C 
BRANCH  15  16
ATOM     16  C   UNL     1       1.885   8.023  19.622  0.00  0.00    +0.000 A 
ATOM     17  C   UNL     1       1.068   8.840  20.380  0.00  0.00    +0.000 A 
ATOM     18  C   UNL     1       0.601   9.986  19.659  0.00  0.00    +0.000 A 
ATOM     19  C   UNL     1       1.090   9.979  18.366  0.00  0.00    +0.000 A 
ATOM     20  S   UNL     1       2.086   8.633  18.040  0.00  0.00    +0.000 S 
BRANCH  18  21
ATOM     21  C   UNL     1      -0.291  11.040  20.235  0.00  0.00    +0.000 C 
BRANCH  21  22
ATOM     22  O   UNL     1      -1.524  11.111  19.519  0.00  0.00    +0.000 OA
ATOM     23  C   UNL     1      -2.043  12.432  19.513  0.00  0.00    +0.000 C 
ENDBRANCH  21  22
ENDBRANCH  18  21
ENDBRANCH  15  16
ENDBRANCH  13  15
ENDBRANCH   5  13
TORSDOF 7
ENDMDL
