MODEL 1
REMARK VINA RESULT:      -7.8      0.000      0.000
REMARK  Name = 
REMARK  5 active torsions:
REMARK  status: ('A' for Active; 'I' for Inactive)
REMARK    1  A    between atoms: C_1  and  C_2
REMARK    2  A    between atoms: C_5  and  N_6
REMARK    3  A    between atoms: N_9  and  C_10
REMARK    4  A    between atoms: C_13  and  C_14
REMARK    5  A    between atoms: C_23  and  N_24
REMARK                            x       y       z     vdW  Elec       q    Type
REMARK                         _______ _______ _______ _____ _____    ______ ____
ROOT
ATOM      1  C   UNL     1       0.390  10.519  21.853  0.00  0.00    +0.000 A 
ATOM      2  C   UNL     1      -0.478  10.266  22.921  0.00  0.00    +0.000 A 
ATOM      3  C   UNL     1      -1.422  11.221  23.314  0.00  0.00    +0.000 A 
ATOM      4  C   UNL     1      -1.518  12.435  22.628  0.00  0.00    +0.000 A 
ATOM      5  C   UNL     1      -0.655  12.685  21.554  0.00  0.00    +0.000 A 
ATOM      6  C   UNL     1       0.313  11.742  21.184  0.00  0.00    +0.000 A 
ENDROOT
BRANCH   4   7
ATOM      7  C   UNL     1      -2.460  13.472  23.071  0.00  0.00    +0.000 A 
ATOM      8  C   UNL     1      -1.993  14.674  23.828  0.00  0.00    +0.000 A 
ATOM      9  N   UNL     1      -2.727  15.642  24.287  0.00  0.00    +0.000 NA
ATOM     10  C   UNL     1      -4.067  15.531  24.043  0.00  0.00    +0.000 A 
ATOM     11  C   UNL     1      -5.144  16.321  24.367  0.00  0.00    +0.000 A 
ATOM     12 BR   UNL     1      -5.167  17.935  25.306  0.00  0.00    +0.000 Br
ATOM     13  C   UNL     1      -6.277  15.674  23.864  0.00  0.00    +0.000 A 
ATOM     14  N   UNL     1      -5.976  14.531  23.245  0.00  0.00    +0.000 NA
ATOM     15  N   UNL     1      -4.608  14.453  23.329  0.00  0.00    +0.000 N 
ATOM     16  C   UNL     1      -3.788  13.410  22.822  0.00  0.00    +0.000 A 
BRANCH  16  17
ATOM     17  N   UNL     1      -4.429  12.393  22.115  0.00  0.00    +0.000 N 
ATOM     18  H   UNL     1      -5.430  12.579  22.015  0.00  0.00    +0.000 HD
ATOM     19  H   UNL     1      -4.208  11.454  22.437  0.00  0.00    +0.000 HD
ENDBRANCH  16  17
ENDBRANCH   4   7
BRANCH   1  23
ATOM     20  N   UNL     1       2.056   7.498  20.724  0.00  0.00    +0.000 N 
ATOM     21  C   UNL     1       0.964   8.278  21.075  0.00  0.00    +0.000 C 
ATOM     22  O   UNL     1      -0.202   7.901  21.051  0.00  0.00    +0.000 OA
ATOM     23  N   UNL     1       1.346   9.565  21.431  0.00  0.00    +0.000 N 
ATOM     24  H   UNL     1       2.926   7.727  21.183  0.00  0.00    +0.000 HD
ATOM     25  H   UNL     1       2.142   9.916  20.917  0.00  0.00    +0.000 HD
BRANCH  20  30
ATOM     26  C   UNL     1       1.761   2.353  18.194  0.00  0.00    +0.000 C 
ATOM     27  C   UNL     1       1.818   3.698  18.857  0.00  0.00    +0.000 A 
ATOM     28  C   UNL     1       1.451   3.845  20.195  0.00  0.00    +0.000 A 
ATOM     29  C   UNL     1       1.519   5.094  20.815  0.00  0.00    +0.000 A 
ATOM     30  C   UNL     1       1.962   6.222  20.119  0.00  0.00    +0.000 A 
ATOM     31  C   UNL     1       2.297   6.086  18.769  0.00  0.00    +0.000 A 
ATOM     32  C   UNL     1       2.238   4.830  18.146  0.00  0.00    +0.000 A 
ENDBRANCH  20  30
ENDBRANCH   1  23
TORSDOF 4
ENDMDL
MODEL 2
REMARK VINA RESULT:      -7.8      1.014      1.897
REMARK  Name = 
REMARK  5 active torsions:
REMARK  status: ('A' for Active; 'I' for Inactive)
REMARK    1  A    between atoms: C_1  and  C_2
REMARK    2  A    between atoms: C_5  and  N_6
REMARK    3  A    between atoms: N_9  and  C_10
REMARK    4  A    between atoms: C_13  and  C_14
REMARK    5  A    between atoms: C_23  and  N_24
REMARK                            x       y       z     vdW  Elec       q    Type
REMARK                         _______ _______ _______ _____ _____    ______ ____
ROOT
ATOM      1  C   UNL     1       0.284  10.295  21.744  0.00  0.00    +0.000 A 
ATOM      2  C   UNL     1      -0.001  11.389  20.920  0.00  0.00    +0.000 A 
ATOM      3  C   UNL     1      -1.010  12.296  21.263  0.00  0.00    +0.000 A 
ATOM      4  C   UNL     1      -1.733  12.125  22.447  0.00  0.00    +0.000 A 
ATOM      5  C   UNL     1      -1.441  11.034  23.277  0.00  0.00    +0.000 A 
ATOM      6  C   UNL     1      -0.454  10.109  22.914  0.00  0.00    +0.000 A 
ENDROOT
BRANCH   4   7
ATOM      7  C   UNL     1      -2.837  13.032  22.787  0.00  0.00    +0.000 A 
ATOM      8  C   UNL     1      -4.212  12.824  22.237  0.00  0.00    +0.000 A 
ATOM      9  N   UNL     1      -5.258  13.563  22.447  0.00  0.00    +0.000 NA
ATOM     10  C   UNL     1      -5.061  14.644  23.259  0.00  0.00    +0.000 A 
ATOM     11  C   UNL     1      -5.892  15.646  23.699  0.00  0.00    +0.000 A 
ATOM     12 BR   UNL     1      -7.707  15.902  23.334  0.00  0.00    +0.000 Br
ATOM     13  C   UNL     1      -5.111  16.491  24.494  0.00  0.00    +0.000 A 
ATOM     14  N   UNL     1      -3.845  16.080  24.578  0.00  0.00    +0.000 NA
ATOM     15  N   UNL     1      -3.816  14.924  23.840  0.00  0.00    +0.000 N 
ATOM     16  C   UNL     1      -2.686  14.095  23.610  0.00  0.00    +0.000 A 
BRANCH  16  17
ATOM     17  N   UNL     1      -1.499  14.457  24.248  0.00  0.00    +0.000 N 
ATOM     18  H   UNL     1      -0.735  14.576  23.578  0.00  0.00    +0.000 HD
ATOM     19  H   UNL     1      -1.263  13.883  25.054  0.00  0.00    +0.000 HD
ENDBRANCH  16  17
ENDBRANCH   4   7
BRANCH   1  23
ATOM     20  N   UNL     1       2.145   7.336  20.763  0.00  0.00    +0.000 N 
ATOM     21  C   UNL     1       1.001   8.086  20.991  0.00  0.00    +0.000 C 
ATOM     22  O   UNL     1      -0.144   7.689  20.809  0.00  0.00    +0.000 OA
ATOM     23  N   UNL     1       1.307   9.370  21.424  0.00  0.00    +0.000 N 
ATOM     24  H   UNL     1       2.945   7.569  21.334  0.00  0.00    +0.000 HD
ATOM     25  H   UNL     1       2.154   9.749  21.025  0.00  0.00    +0.000 HD
BRANCH  20  30
ATOM     26  C   UNL     1       2.274   2.264  18.078  0.00  0.00    +0.000 C 
ATOM     27  C   UNL     1       2.220   3.588  18.781  0.00  0.00    +0.000 A 
ATOM     28  C   UNL     1       1.840   3.664  20.122  0.00  0.00    +0.000 A 
ATOM     29  C   UNL     1       1.804   4.896  20.779  0.00  0.00    +0.000 A 
ATOM     30  C   UNL     1       2.156   6.076  20.118  0.00  0.00    +0.000 A 
ATOM     31  C   UNL     1       2.505   6.008  18.767  0.00  0.00    +0.000 A 
ATOM     32  C   UNL     1       2.548   4.771  18.106  0.00  0.00    +0.000 A 
ENDBRANCH  20  30
ENDBRANCH   1  23
TORSDOF 4
ENDMDL
MODEL 3
REMARK VINA RESULT:      -7.7      0.996      1.893
REMARK  Name = 
REMARK  5 active torsions:
REMARK  status: ('A' for Active; 'I' for Inactive)
REMARK    1  A    between atoms: C_1  and  C_2
REMARK    2  A    between atoms: C_5  and  N_6
REMARK    3  A    between atoms: N_9  and  C_10
REMARK    4  A    between atoms: C_13  and  C_14
REMARK    5  A    between atoms: C_23  and  N_24
REMARK                            x       y       z     vdW  Elec       q    Type
REMARK                         _______ _______ _______ _____ _____    ______ ____
ROOT
ATOM      1  C   UNL     1       0.241  10.254  21.772  0.00  0.00    +0.000 A 
ATOM      2  C   UNL     1      -0.432  10.143  22.994  0.00  0.00    +0.000 A 
ATOM      3  C   UNL     1      -1.466  11.026  23.322  0.00  0.00    +0.000 A 
ATOM      4  C   UNL     1      -1.850  12.021  22.418  0.00  0.00    +0.000 A 
ATOM      5  C   UNL     1      -1.182  12.126  21.191  0.00  0.00    +0.000 A 
ATOM      6  C   UNL     1      -0.124  11.263  20.880  0.00  0.00    +0.000 A 
ENDROOT
BRANCH   4   7
ATOM      7  C   UNL     1      -2.890  12.995  22.775  0.00  0.00    +0.000 A 
ATOM      8  C   UNL     1      -4.290  12.860  22.264  0.00  0.00    +0.000 A 
ATOM      9  N   UNL     1      -5.285  13.662  22.491  0.00  0.00    +0.000 NA
ATOM     10  C   UNL     1      -5.003  14.740  23.282  0.00  0.00    +0.000 A 
ATOM     11  C   UNL     1      -5.762  15.794  23.731  0.00  0.00    +0.000 A 
ATOM     12 BR   UNL     1      -7.568  16.151  23.410  0.00  0.00    +0.000 Br
ATOM     13  C   UNL     1      -4.912  16.602  24.492  0.00  0.00    +0.000 A 
ATOM     14  N   UNL     1      -3.670  16.119  24.548  0.00  0.00    +0.000 NA
ATOM     15  N   UNL     1      -3.728  14.954  23.826  0.00  0.00    +0.000 N 
ATOM     16  C   UNL     1      -2.655  14.058  23.578  0.00  0.00    +0.000 A 
BRANCH  16  17
ATOM     17  N   UNL     1      -1.432  14.358  24.179  0.00  0.00    +0.000 N 
ATOM     18  H   UNL     1      -0.691  13.733  23.853  0.00  0.00    +0.000 HD
ATOM     19  H   UNL     1      -1.475  14.463  25.189  0.00  0.00    +0.000 HD
ENDBRANCH  16  17
ENDBRANCH   4   7
BRANCH   1  23
ATOM     20  N   UNL     1       2.169   7.366  20.715  0.00  0.00    +0.000 N 
ATOM     21  C   UNL     1       1.008   8.075  20.981  0.00  0.00    +0.000 C 
ATOM     22  O   UNL     1      -0.128   7.642  20.830  0.00  0.00    +0.000 OA
ATOM     23  N   UNL     1       1.284   9.366  21.415  0.00  0.00    +0.000 N 
ATOM     24  H   UNL     1       2.978   7.621  21.264  0.00  0.00    +0.000 HD
ATOM     25  H   UNL     1       2.106   9.776  20.995  0.00  0.00    +0.000 HD
BRANCH  20  30
ATOM     26  C   UNL     1       2.229   2.235  18.141  0.00  0.00    +0.000 C 
ATOM     27  C   UNL     1       2.233   3.577  18.810  0.00  0.00    +0.000 A 
ATOM     28  C   UNL     1       2.483   4.736  18.073  0.00  0.00    +0.000 A 
ATOM     29  C   UNL     1       2.473   5.987  18.695  0.00  0.00    +0.000 A 
ATOM     30  C   UNL     1       2.203   6.111  20.061  0.00  0.00    +0.000 A 
ATOM     31  C   UNL     1       1.986   4.950  20.808  0.00  0.00    +0.000 A 
ATOM     32  C   UNL     1       1.989   3.693  20.184  0.00  0.00    +0.000 A 
ENDBRANCH  20  30
ENDBRANCH   1  23
TORSDOF 4
ENDMDL
MODEL 4
REMARK VINA RESULT:      -7.6      1.025      1.675
REMARK  Name = 
REMARK  5 active torsions:
REMARK  status: ('A' for Active; 'I' for Inactive)
REMARK    1  A    between atoms: C_1  and  C_2
REMARK    2  A    between atoms: C_5  and  N_6
REMARK    3  A    between atoms: N_9  and  C_10
REMARK    4  A    between atoms: C_13  and  C_14
REMARK    5  A    between atoms: C_23  and  N_24
REMARK                            x       y       z     vdW  Elec       q    Type
REMARK                         _______ _______ _______ _____ _____    ______ ____
ROOT
ATOM      1  C   UNL     1       0.062  10.510  22.039  0.00  0.00    +0.000 A 
ATOM      2  C   UNL     1      -0.781  10.318  23.139  0.00  0.00    +0.000 A 
ATOM      3  C   UNL     1      -1.814  11.221  23.412  0.00  0.00    +0.000 A 
ATOM      4  C   UNL     1      -2.024  12.319  22.574  0.00  0.00    +0.000 A 
ATOM      5  C   UNL     1      -1.186  12.507  21.467  0.00  0.00    +0.000 A 
ATOM      6  C   UNL     1      -0.131  11.621  21.215  0.00  0.00    +0.000 A 
ENDROOT
BRANCH   4   7
ATOM      7  C   UNL     1      -3.063  13.310  22.885  0.00  0.00    +0.000 A 
ATOM      8  C   UNL     1      -4.417  13.242  22.252  0.00  0.00    +0.000 A 
ATOM      9  N   UNL     1      -5.405  14.065  22.430  0.00  0.00    +0.000 NA
ATOM     10  C   UNL     1      -5.161  15.099  23.291  0.00  0.00    +0.000 A 
ATOM     11  C   UNL     1      -5.927  16.156  23.720  0.00  0.00    +0.000 A 
ATOM     12 BR   UNL     1      -7.687  16.584  23.264  0.00  0.00    +0.000 Br
ATOM     13  C   UNL     1      -5.122  16.904  24.587  0.00  0.00    +0.000 A 
ATOM     14  N   UNL     1      -3.904  16.379  24.726  0.00  0.00    +0.000 NA
ATOM     15  N   UNL     1      -3.933  15.248  23.949  0.00  0.00    +0.000 N 
ATOM     16  C   UNL     1      -2.868  14.329  23.753  0.00  0.00    +0.000 A 
BRANCH  16  17
ATOM     17  N   UNL     1      -1.694  14.564  24.468  0.00  0.00    +0.000 N 
ATOM     18  H   UNL     1      -1.892  14.923  25.406  0.00  0.00    +0.000 HD
ATOM     19  H   UNL     1      -0.990  15.093  23.958  0.00  0.00    +0.000 HD
ENDBRANCH  16  17
ENDBRANCH   4   7
BRANCH   1  23
ATOM     20  N   UNL     1       2.001   7.641  20.947  0.00  0.00    +0.000 N 
ATOM     21  C   UNL     1       0.845   8.387  21.123  0.00  0.00    +0.000 C 
ATOM     22  O   UNL     1      -0.274   8.040  20.762  0.00  0.00    +0.000 OA
ATOM     23  N   UNL     1       1.107   9.605  21.736  0.00  0.00    +0.000 N 
ATOM     24  H   UNL     1       2.728   7.788  21.633  0.00  0.00    +0.000 HD
ATOM     25  H   UNL     1       2.000  10.008  21.488  0.00  0.00    +0.000 HD
BRANCH  20  30
ATOM     26  C   UNL     1       2.400   2.912  17.718  0.00  0.00    +0.000 C 
ATOM     27  C   UNL     1       2.276   4.146  18.562  0.00  0.00    +0.000 A 
ATOM     28  C   UNL     1       1.836   4.059  19.884  0.00  0.00    +0.000 A 
ATOM     29  C   UNL     1       1.734   5.207  20.673  0.00  0.00    +0.000 A 
ATOM     30  C   UNL     1       2.078   6.463  20.166  0.00  0.00    +0.000 A 
ATOM     31  C   UNL     1       2.486   6.559  18.833  0.00  0.00    +0.000 A 
ATOM     32  C   UNL     1       2.596   5.406  18.040  0.00  0.00    +0.000 A 
ENDBRANCH  20  30
ENDBRANCH   1  23
TORSDOF 4
ENDMDL
MODEL 5
REMARK VINA RESULT:      -7.4      2.029      3.108
REMARK  Name = 
REMARK  5 active torsions:
REMARK  status: ('A' for Active; 'I' for Inactive)
REMARK    1  A    between atoms: C_1  and  C_2
REMARK    2  A    between atoms: C_5  and  N_6
REMARK    3  A    between atoms: N_9  and  C_10
REMARK    4  A    between atoms: C_13  and  C_14
REMARK    5  A    between atoms: C_23  and  N_24
REMARK                            x       y       z     vdW  Elec       q    Type
REMARK                         _______ _______ _______ _____ _____    ______ ____
ROOT
ATOM      1  C   UNL     1       0.915   8.971  21.462  0.00  0.00    +0.000 A 
ATOM      2  C   UNL     1       0.702   9.999  20.537  0.00  0.00    +0.000 A 
ATOM      3  C   UNL     1      -0.081  11.108  20.872  0.00  0.00    +0.000 A 
ATOM      4  C   UNL     1      -0.646  11.208  22.147  0.00  0.00    +0.000 A 
ATOM      5  C   UNL     1      -0.425  10.182  23.076  0.00  0.00    +0.000 A 
ATOM      6  C   UNL     1       0.331   9.056  22.727  0.00  0.00    +0.000 A 
ENDROOT
BRANCH   4   7
ATOM      7  C   UNL     1      -1.523  12.335  22.491  0.00  0.00    +0.000 A 
ATOM      8  C   UNL     1      -2.962  12.122  22.839  0.00  0.00    +0.000 A 
ATOM      9  N   UNL     1      -3.837  13.033  23.139  0.00  0.00    +0.000 NA
ATOM     10  C   UNL     1      -3.373  14.319  23.128  0.00  0.00    +0.000 A 
ATOM     11  C   UNL     1      -3.975  15.530  23.372  0.00  0.00    +0.000 A 
ATOM     12 BR   UNL     1      -5.749  15.880  23.843  0.00  0.00    +0.000 Br
ATOM     13  C   UNL     1      -2.992  16.508  23.182  0.00  0.00    +0.000 A 
ATOM     14  N   UNL     1      -1.815  15.983  22.838  0.00  0.00    +0.000 NA
ATOM     15  N   UNL     1      -2.039  14.629  22.831  0.00  0.00    +0.000 N 
ATOM     16  C   UNL     1      -1.093  13.617  22.519  0.00  0.00    +0.000 A 
BRANCH  16  17
ATOM     17  N   UNL     1       0.211  14.035  22.252  0.00  0.00    +0.000 N 
ATOM     18  H   UNL     1       0.527  13.712  21.334  0.00  0.00    +0.000 HD
ATOM     19  H   UNL     1       0.871  13.861  23.006  0.00  0.00    +0.000 HD
ENDBRANCH  16  17
ENDBRANCH   4   7
BRANCH   1  23
ATOM     20  N   UNL     1       2.821   6.398  19.749  0.00  0.00    +0.000 N 
ATOM     21  C   UNL     1       2.069   7.560  19.837  0.00  0.00    +0.000 C 
ATOM     22  O   UNL     1       1.771   8.275  18.887  0.00  0.00    +0.000 OA
ATOM     23  N   UNL     1       1.712   7.844  21.149  0.00  0.00    +0.000 N 
ATOM     24  H   UNL     1       2.632   5.698  20.451  0.00  0.00    +0.000 HD
ATOM     25  H   UNL     1       2.406   7.574  21.832  0.00  0.00    +0.000 HD
BRANCH  20  30
ATOM     26  C   UNL     1       5.499   4.600  15.001  0.00  0.00    +0.000 C 
ATOM     27  C   UNL     1       4.817   5.073  16.250  0.00  0.00    +0.000 A 
ATOM     28  C   UNL     1       4.884   6.415  16.630  0.00  0.00    +0.000 A 
ATOM     29  C   UNL     1       4.237   6.857  17.785  0.00  0.00    +0.000 A 
ATOM     30  C   UNL     1       3.501   5.976  18.582  0.00  0.00    +0.000 A 
ATOM     31  C   UNL     1       3.459   4.626  18.224  0.00  0.00    +0.000 A 
ATOM     32  C   UNL     1       4.103   4.180  17.059  0.00  0.00    +0.000 A 
ENDBRANCH  20  30
ENDBRANCH   1  23
TORSDOF 4
ENDMDL
MODEL 6
REMARK VINA RESULT:      -7.3      2.368      3.359
REMARK  Name = 
REMARK  5 active torsions:
REMARK  status: ('A' for Active; 'I' for Inactive)
REMARK    1  A    between atoms: C_1  and  C_2
REMARK    2  A    between atoms: C_5  and  N_6
REMARK    3  A    between atoms: N_9  and  C_10
REMARK    4  A    between atoms: C_13  and  C_14
REMARK    5  A    between atoms: C_23  and  N_24
REMARK                            x       y       z     vdW  Elec       q    Type
REMARK                         _______ _______ _______ _____ _____    ______ ____
ROOT
ATOM      1  C   UNL     1       1.211   8.638  20.760  0.00  0.00    +0.000 A 
ATOM      2  C   UNL     1       1.237   9.817  20.006  0.00  0.00    +0.000 A 
ATOM      3  C   UNL     1       0.393  10.886  20.326  0.00  0.00    +0.000 A 
ATOM      4  C   UNL     1      -0.474  10.792  21.418  0.00  0.00    +0.000 A 
ATOM      5  C   UNL     1      -0.493   9.615  22.178  0.00  0.00    +0.000 A 
ATOM      6  C   UNL     1       0.327   8.532  21.835  0.00  0.00    +0.000 A 
ENDROOT
BRANCH   4   7
ATOM      7  C   UNL     1      -1.410  11.881  21.727  0.00  0.00    +0.000 A 
ATOM      8  C   UNL     1      -1.394  12.568  23.056  0.00  0.00    +0.000 A 
ATOM      9  N   UNL     1      -2.179  13.523  23.451  0.00  0.00    +0.000 NA
ATOM     10  C   UNL     1      -3.115  13.929  22.542  0.00  0.00    +0.000 A 
ATOM     11  C   UNL     1      -4.108  14.878  22.585  0.00  0.00    +0.000 A 
ATOM     12 BR   UNL     1      -4.560  16.033  23.983  0.00  0.00    +0.000 Br
ATOM     13  C   UNL     1      -4.767  14.820  21.353  0.00  0.00    +0.000 A 
ATOM     14  N   UNL     1      -4.247  13.897  20.542  0.00  0.00    +0.000 NA
ATOM     15  N   UNL     1      -3.208  13.363  21.263  0.00  0.00    +0.000 N 
ATOM     16  C   UNL     1      -2.331  12.329  20.842  0.00  0.00    +0.000 A 
BRANCH  16  17
ATOM     17  N   UNL     1      -2.502  11.847  19.544  0.00  0.00    +0.000 N 
ATOM     18  H   UNL     1      -2.746  12.599  18.895  0.00  0.00    +0.000 HD
ATOM     19  H   UNL     1      -3.099  11.026  19.476  0.00  0.00    +0.000 HD
ENDBRANCH  16  17
ENDBRANCH   4   7
BRANCH   1  23
ATOM     20  N   UNL     1       3.232   6.134  19.079  0.00  0.00    +0.000 N 
ATOM     21  C   UNL     1       2.423   7.257  19.151  0.00  0.00    +0.000 C 
ATOM     22  O   UNL     1       2.083   7.938  18.191  0.00  0.00    +0.000 OA
ATOM     23  N   UNL     1       2.062   7.547  20.461  0.00  0.00    +0.000 N 
ATOM     24  H   UNL     1       3.084   5.438  19.796  0.00  0.00    +0.000 HD
ATOM     25  H   UNL     1       2.773   7.326  21.143  0.00  0.00    +0.000 HD
BRANCH  20  30
ATOM     26  C   UNL     1       5.959   4.390  14.339  0.00  0.00    +0.000 C 
ATOM     27  C   UNL     1       5.264   4.848  15.586  0.00  0.00    +0.000 A 
ATOM     28  C   UNL     1       5.345   6.181  15.993  0.00  0.00    +0.000 A 
ATOM     29  C   UNL     1       4.686   6.610  17.147  0.00  0.00    +0.000 A 
ATOM     30  C   UNL     1       3.925   5.724  17.915  0.00  0.00    +0.000 A 
ATOM     31  C   UNL     1       3.869   4.382  17.529  0.00  0.00    +0.000 A 
ATOM     32  C   UNL     1       4.524   3.950  16.366  0.00  0.00    +0.000 A 
ENDBRANCH  20  30
ENDBRANCH   1  23
TORSDOF 4
ENDMDL
MODEL 7
REMARK VINA RESULT:      -7.3      2.339      3.475
REMARK  Name = 
REMARK  5 active torsions:
REMARK  status: ('A' for Active; 'I' for Inactive)
REMARK    1  A    between atoms: C_1  and  C_2
REMARK    2  A    between atoms: C_5  and  N_6
REMARK    3  A    between atoms: N_9  and  C_10
REMARK    4  A    between atoms: C_13  and  C_14
REMARK    5  A    between atoms: C_23  and  N_24
REMARK                            x       y       z     vdW  Elec       q    Type
REMARK                         _______ _______ _______ _____ _____    ______ ____
ROOT
ATOM      1  C   UNL     1       1.082   8.488  21.139  0.00  0.00    +0.000 A 
ATOM      2  C   UNL     1       1.073   8.879  22.483  0.00  0.00    +0.000 A 
ATOM      3  C   UNL     1       0.362  10.012  22.891  0.00  0.00    +0.000 A 
ATOM      4  C   UNL     1      -0.365  10.757  21.958  0.00  0.00    +0.000 A 
ATOM      5  C   UNL     1      -0.363  10.360  20.615  0.00  0.00    +0.000 A 
ATOM      6  C   UNL     1       0.378   9.246  20.202  0.00  0.00    +0.000 A 
ENDROOT
BRANCH   4   7
ATOM      7  C   UNL     1      -1.063  11.985  22.362  0.00  0.00    +0.000 A 
ATOM      8  C   UNL     1      -2.383  11.934  23.064  0.00  0.00    +0.000 A 
ATOM      9  N   UNL     1      -3.102  12.943  23.450  0.00  0.00    +0.000 NA
ATOM     10  C   UNL     1      -2.581  14.176  23.174  0.00  0.00    +0.000 A 
ATOM     11  C   UNL     1      -3.032  15.454  23.404  0.00  0.00    +0.000 A 
ATOM     12 BR   UNL     1      -4.613  16.001  24.237  0.00  0.00    +0.000 Br
ATOM     13  C   UNL     1      -2.071  16.318  22.870  0.00  0.00    +0.000 A 
ATOM     14  N   UNL     1      -1.047  15.660  22.323  0.00  0.00    +0.000 NA
ATOM     15  N   UNL     1      -1.345  14.337  22.533  0.00  0.00    +0.000 N 
ATOM     16  C   UNL     1      -0.565  13.221  22.131  0.00  0.00    +0.000 A 
BRANCH  16  17
ATOM     17  N   UNL     1       0.656  13.495  21.514  0.00  0.00    +0.000 N 
ATOM     18  H   UNL     1       1.270  14.041  22.124  0.00  0.00    +0.000 HD
ATOM     19  H   UNL     1       0.576  13.859  20.568  0.00  0.00    +0.000 HD
ENDBRANCH  16  17
ENDBRANCH   4   7
BRANCH   1  23
ATOM     20  N   UNL     1       2.939   6.050  19.192  0.00  0.00    +0.000 N 
ATOM     21  C   UNL     1       2.320   7.269  19.424  0.00  0.00    +0.000 C 
ATOM     22  O   UNL     1       2.267   8.192  18.618  0.00  0.00    +0.000 OA
ATOM     23  N   UNL     1       1.786   7.340  20.704  0.00  0.00    +0.000 N 
ATOM     24  H   UNL     1       2.557   5.261  19.694  0.00  0.00    +0.000 HD
ATOM     25  H   UNL     1       2.321   6.843  21.402  0.00  0.00    +0.000 HD
BRANCH  20  30
ATOM     26  C   UNL     1       6.155   4.827  14.597  0.00  0.00    +0.000 C 
ATOM     27  C   UNL     1       5.331   5.150  15.809  0.00  0.00    +0.000 A 
ATOM     28  C   UNL     1       5.317   6.443  16.333  0.00  0.00    +0.000 A 
ATOM     29  C   UNL     1       4.539   6.746  17.452  0.00  0.00    +0.000 A 
ATOM     30  C   UNL     1       3.750   5.770  18.067  0.00  0.00    +0.000 A 
ATOM     31  C   UNL     1       3.788   4.465  17.566  0.00  0.00    +0.000 A 
ATOM     32  C   UNL     1       4.563   4.161  16.437  0.00  0.00    +0.000 A 
ENDBRANCH  20  30
ENDBRANCH   1  23
TORSDOF 4
ENDMDL
MODEL 8
REMARK VINA RESULT:      -7.3      2.024      2.747
REMARK  Name = 
REMARK  5 active torsions:
REMARK  status: ('A' for Active; 'I' for Inactive)
REMARK    1  A    between atoms: C_1  and  C_2
REMARK    2  A    between atoms: C_5  and  N_6
REMARK    3  A    between atoms: N_9  and  C_10
REMARK    4  A    between atoms: C_13  and  C_14
REMARK    5  A    between atoms: C_23  and  N_24
REMARK                            x       y       z     vdW  Elec       q    Type
REMARK                         _______ _______ _______ _____ _____    ______ ____
ROOT
ATOM      1  C   UNL     1       1.002   8.936  21.310  0.00  0.00    +0.000 A 
ATOM      2  C   UNL     1       1.074  10.100  20.537  0.00  0.00    +0.000 A 
ATOM      3  C   UNL     1       0.248  11.194  20.816  0.00  0.00    +0.000 A 
ATOM      4  C   UNL     1      -0.649  11.139  21.886  0.00  0.00    +0.000 A 
ATOM      5  C   UNL     1      -0.715   9.977  22.666  0.00  0.00    +0.000 A 
ATOM      6  C   UNL     1       0.088   8.870  22.364  0.00  0.00    +0.000 A 
ENDROOT
BRANCH   4   7
ATOM      7  C   UNL     1      -1.567  12.255  22.151  0.00  0.00    +0.000 A 
ATOM      8  C   UNL     1      -1.538  12.995  23.451  0.00  0.00    +0.000 A 
ATOM      9  N   UNL     1      -2.307  13.978  23.807  0.00  0.00    +0.000 NA
ATOM     10  C   UNL     1      -3.238  14.361  22.883  0.00  0.00    +0.000 A 
ATOM     11  C   UNL     1      -4.216  15.327  22.888  0.00  0.00    +0.000 A 
ATOM     12 BR   UNL     1      -4.647  16.545  24.238  0.00  0.00    +0.000 Br
ATOM     13  C   UNL     1      -4.877  15.230  21.660  0.00  0.00    +0.000 A 
ATOM     14  N   UNL     1      -4.373  14.266  20.888  0.00  0.00    +0.000 NA
ATOM     15  N   UNL     1      -3.342  13.746  21.628  0.00  0.00    +0.000 N 
ATOM     16  C   UNL     1      -2.482  12.681  21.250  0.00  0.00    +0.000 A 
BRANCH  16  17
ATOM     17  N   UNL     1      -2.663  12.149  19.973  0.00  0.00    +0.000 N 
ATOM     18  H   UNL     1      -2.433  11.152  19.946  0.00  0.00    +0.000 HD
ATOM     19  H   UNL     1      -2.240  12.696  19.226  0.00  0.00    +0.000 HD
ENDBRANCH  16  17
ENDBRANCH   4   7
BRANCH   1  23
ATOM     20  N   UNL     1       2.935   6.302  19.726  0.00  0.00    +0.000 N 
ATOM     21  C   UNL     1       2.133   7.433  19.753  0.00  0.00    +0.000 C 
ATOM     22  O   UNL     1       1.750   8.044  18.762  0.00  0.00    +0.000 OA
ATOM     23  N   UNL     1       1.835   7.820  21.054  0.00  0.00    +0.000 N 
ATOM     24  H   UNL     1       2.818   5.661  20.498  0.00  0.00    +0.000 HD
ATOM     25  H   UNL     1       2.576   7.645  21.716  0.00  0.00    +0.000 HD
BRANCH  20  30
ATOM     26  C   UNL     1       5.600   4.360  15.028  0.00  0.00    +0.000 C 
ATOM     27  C   UNL     1       4.887   4.866  16.247  0.00  0.00    +0.000 A 
ATOM     28  C   UNL     1       4.061   4.018  16.987  0.00  0.00    +0.000 A 
ATOM     29  C   UNL     1       3.408   4.486  18.130  0.00  0.00    +0.000 A 
ATOM     30  C   UNL     1       3.570   5.804  18.564  0.00  0.00    +0.000 A 
ATOM     31  C   UNL     1       4.369   6.665  17.806  0.00  0.00    +0.000 A 
ATOM     32  C   UNL     1       5.032   6.195  16.662  0.00  0.00    +0.000 A 
ENDBRANCH  20  30
ENDBRANCH   1  23
TORSDOF 4
ENDMDL
MODEL 9
REMARK VINA RESULT:      -7.2      2.366      3.508
REMARK  Name = 
REMARK  5 active torsions:
REMARK  status: ('A' for Active; 'I' for Inactive)
REMARK    1  A    between atoms: C_1  and  C_2
REMARK    2  A    between atoms: C_5  and  N_6
REMARK    3  A    between atoms: N_9  and  C_10
REMARK    4  A    between atoms: C_13  and  C_14
REMARK    5  A    between atoms: C_23  and  N_24
REMARK                            x       y       z     vdW  Elec       q    Type
REMARK                         _______ _______ _______ _____ _____    ______ ____
ROOT
ATOM      1  C   UNL     1       1.137   8.626  20.974  0.00  0.00    +0.000 A 
ATOM      2  C   UNL     1       0.559   9.476  20.024  0.00  0.00    +0.000 A 
ATOM      3  C   UNL     1      -0.134  10.624  20.422  0.00  0.00    +0.000 A 
ATOM      4  C   UNL     1      -0.242  10.942  21.779  0.00  0.00    +0.000 A 
ATOM      5  C   UNL     1       0.344  10.096  22.730  0.00  0.00    +0.000 A 
ATOM      6  C   UNL     1       1.008   8.929  22.331  0.00  0.00    +0.000 A 
ENDROOT
BRANCH   4   7
ATOM      7  C   UNL     1      -1.022  12.109  22.214  0.00  0.00    +0.000 A 
ATOM      8  C   UNL     1      -2.389  11.954  22.801  0.00  0.00    +0.000 A 
ATOM      9  N   UNL     1      -3.179  12.903  23.202  0.00  0.00    +0.000 NA
ATOM     10  C   UNL     1      -2.691  14.172  23.062  0.00  0.00    +0.000 A 
ATOM     11  C   UNL     1      -3.214  15.411  23.350  0.00  0.00    +0.000 A 
ATOM     12 BR   UNL     1      -4.877  15.833  24.090  0.00  0.00    +0.000 Br
ATOM     13  C   UNL     1      -2.252  16.348  22.962  0.00  0.00    +0.000 A 
ATOM     14  N   UNL     1      -1.161  15.774  22.452  0.00  0.00    +0.000 NA
ATOM     15  N   UNL     1      -1.417  14.429  22.538  0.00  0.00    +0.000 N 
ATOM     16  C   UNL     1      -0.561  13.377  22.119  0.00  0.00    +0.000 A 
BRANCH  16  17
ATOM     17  N   UNL     1       0.692  13.743  21.625  0.00  0.00    +0.000 N 
ATOM     18  H   UNL     1       0.608  14.355  20.809  0.00  0.00    +0.000 HD
ATOM     19  H   UNL     1       1.337  12.967  21.501  0.00  0.00    +0.000 HD
ENDBRANCH  16  17
ENDBRANCH   4   7
BRANCH   1  23
ATOM     20  N   UNL     1       2.982   6.096  19.137  0.00  0.00    +0.000 N 
ATOM     21  C   UNL     1       2.343   7.316  19.305  0.00  0.00    +0.000 C 
ATOM     22  O   UNL     1       2.241   8.178  18.439  0.00  0.00    +0.000 OA
ATOM     23  N   UNL     1       1.852   7.465  20.595  0.00  0.00    +0.000 N 
ATOM     24  H   UNL     1       2.636   5.337  19.706  0.00  0.00    +0.000 HD
ATOM     25  H   UNL     1       2.422   7.030  21.307  0.00  0.00    +0.000 HD
BRANCH  20  30
ATOM     26  C   UNL     1       6.215   4.792  14.577  0.00  0.00    +0.000 C 
ATOM     27  C   UNL     1       5.354   5.130  15.758  0.00  0.00    +0.000 A 
ATOM     28  C   UNL     1       4.575   4.147  16.371  0.00  0.00    +0.000 A 
ATOM     29  C   UNL     1       3.785   4.459  17.479  0.00  0.00    +0.000 A 
ATOM     30  C   UNL     1       3.760   5.754  18.006  0.00  0.00    +0.000 A 
ATOM     31  C   UNL     1       4.512   6.748  17.373  0.00  0.00    +0.000 A 
ATOM     32  C   UNL     1       5.312   6.435  16.265  0.00  0.00    +0.000 A 
ENDBRANCH  20  30
ENDBRANCH   1  23
TORSDOF 4
ENDMDL
