MODEL 1
REMARK VINA RESULT:      -7.0      0.000      0.000
REMARK  Name = 
REMARK  7 active torsions:
REMARK  status: ('A' for Active; 'I' for Inactive)
REMARK    1  A    between atoms: C_1  and  C_2
REMARK    2  A    between atoms: C_2  and  C_3
REMARK    3  A    between atoms: C_3  and  N_4
REMARK    4  A    between atoms: C_8  and  C_9
REMARK    5  A    between atoms: C_9  and  C_10
REMARK    6  A    between atoms: N_12  and  C_13
REMARK    7  A    between atoms: C_16  and  C_17
REMARK                            x       y       z     vdW  Elec       q    Type
REMARK                         _______ _______ _______ _____ _____    ______ ____
ROOT
ATOM      1  C   UNL     1       7.700   6.891  18.162  0.00  0.00    +0.000 C 
ENDROOT
BRANCH   1   6
ATOM      2  N   UNL     1       5.990   4.642  15.985  0.00  0.00    +0.000 N 
ATOM      3  C   UNL     1       5.054   4.511  16.975  0.00  0.00    +0.000 C 
ATOM      4  O   UNL     1       4.258   3.598  17.113  0.00  0.00    +0.000 OA
ATOM      5  S   UNL     1       5.098   5.880  18.066  0.00  0.00    +0.000 S 
ATOM      6  C   UNL     1       6.520   6.641  17.216  0.00  0.00    +0.000 C 
ATOM      7  C   UNL     1       6.856   5.714  16.057  0.00  0.00    +0.000 C 
ATOM      8  O   UNL     1       7.796   5.920  15.295  0.00  0.00    +0.000 OA
BRANCH   2   9
ATOM      9  C   UNL     1       6.142   3.607  14.982  0.00  0.00    +0.000 C 
BRANCH   9  11
ATOM     10  C   UNL     1       6.330   3.631  12.474  0.00  0.00    +0.000 C 
ATOM     11  C   UNL     1       5.468   4.002  13.668  0.00  0.00    +0.000 C 
ENDBRANCH   9  11
ENDBRANCH   2   9
ENDBRANCH   1   6
BRANCH   1  12
ATOM     12  C   UNL     1       8.019   8.366  18.198  0.00  0.00    +0.000 C 
ATOM     13  O   UNL     1       7.460   9.113  17.388  0.00  0.00    +0.000 OA
ATOM     14  N   UNL     1       8.959   8.771  19.120  0.00  0.00    +0.000 N 
ATOM     15  H   UNL     1       9.560   8.065  19.531  0.00  0.00    +0.000 HD
BRANCH  14  16
ATOM     16  C   UNL     1       9.369  10.121  19.237  0.00  0.00    +0.000 A 
ATOM     17  C   UNL     1       9.863  10.832  18.136  0.00  0.00    +0.000 A 
ATOM     18  C   UNL     1      10.379  12.109  18.267  0.00  0.00    +0.000 A 
ATOM     19  C   UNL     1      10.396  12.730  19.510  0.00  0.00    +0.000 A 
ATOM     20  C   UNL     1      10.995  14.092  19.659  0.00  0.00    +0.000 C 
ATOM     21  C   UNL     1       9.862  12.046  20.616  0.00  0.00    +0.000 A 
ATOM     22  C   UNL     1       9.335  10.756  20.480  0.00  0.00    +0.000 A 
ENDBRANCH  14  16
ENDBRANCH   1  12
TORSDOF 5
ENDMDL
MODEL 2
REMARK VINA RESULT:      -7.0      0.246      1.078
REMARK  Name = 
REMARK  7 active torsions:
REMARK  status: ('A' for Active; 'I' for Inactive)
REMARK    1  A    between atoms: C_1  and  C_2
REMARK    2  A    between atoms: C_2  and  C_3
REMARK    3  A    between atoms: C_3  and  N_4
REMARK    4  A    between atoms: C_8  and  C_9
REMARK    5  A    between atoms: C_9  and  C_10
REMARK    6  A    between atoms: N_12  and  C_13
REMARK    7  A    between atoms: C_16  and  C_17
REMARK                            x       y       z     vdW  Elec       q    Type
REMARK                         _______ _______ _______ _____ _____    ______ ____
ROOT
ATOM      1  C   UNL     1       7.703   6.835  18.115  0.00  0.00    +0.000 C 
ENDROOT
BRANCH   1   6
ATOM      2  N   UNL     1       5.924   4.595  15.984  0.00  0.00    +0.000 N 
ATOM      3  C   UNL     1       5.004   4.483  16.991  0.00  0.00    +0.000 C 
ATOM      4  O   UNL     1       4.198   3.582  17.150  0.00  0.00    +0.000 OA
ATOM      5  S   UNL     1       5.086   5.859  18.072  0.00  0.00    +0.000 S 
ATOM      6  C   UNL     1       6.503   6.594  17.192  0.00  0.00    +0.000 C 
ATOM      7  C   UNL     1       6.805   5.655  16.034  0.00  0.00    +0.000 C 
ATOM      8  O   UNL     1       7.734   5.843  15.254  0.00  0.00    +0.000 OA
BRANCH   2   9
ATOM      9  C   UNL     1       6.044   3.551  14.986  0.00  0.00    +0.000 C 
BRANCH   9  11
ATOM     10  C   UNL     1       6.113   3.351  12.480  0.00  0.00    +0.000 C 
ATOM     11  C   UNL     1       5.392   3.965  13.667  0.00  0.00    +0.000 C 
ENDBRANCH   9  11
ENDBRANCH   2   9
ENDBRANCH   1   6
BRANCH   1  12
ATOM     12  C   UNL     1       8.035   8.307  18.143  0.00  0.00    +0.000 C 
ATOM     13  O   UNL     1       7.531   9.045  17.290  0.00  0.00    +0.000 OA
ATOM     14  N   UNL     1       8.926   8.719  19.110  0.00  0.00    +0.000 N 
ATOM     15  H   UNL     1       9.495   8.014  19.567  0.00  0.00    +0.000 HD
BRANCH  14  16
ATOM     16  C   UNL     1       9.344  10.066  19.227  0.00  0.00    +0.000 A 
ATOM     17  C   UNL     1       9.251  10.759  20.441  0.00  0.00    +0.000 A 
ATOM     18  C   UNL     1       9.543  12.108  20.533  0.00  0.00    +0.000 A 
ATOM     19  C   UNL     1       9.965  12.808  19.410  0.00  0.00    +0.000 A 
ATOM     20  C   UNL     1      10.237  14.276  19.501  0.00  0.00    +0.000 C 
ATOM     21  C   UNL     1      10.107  12.117  18.195  0.00  0.00    +0.000 A 
ATOM     22  C   UNL     1       9.817  10.750  18.104  0.00  0.00    +0.000 A 
ENDBRANCH  14  16
ENDBRANCH   1  12
TORSDOF 5
ENDMDL
MODEL 3
REMARK VINA RESULT:      -6.9      4.601      6.205
REMARK  Name = 
REMARK  7 active torsions:
REMARK  status: ('A' for Active; 'I' for Inactive)
REMARK    1  A    between atoms: C_1  and  C_2
REMARK    2  A    between atoms: C_2  and  C_3
REMARK    3  A    between atoms: C_3  and  N_4
REMARK    4  A    between atoms: C_8  and  C_9
REMARK    5  A    between atoms: C_9  and  C_10
REMARK    6  A    between atoms: N_12  and  C_13
REMARK    7  A    between atoms: C_16  and  C_17
REMARK                            x       y       z     vdW  Elec       q    Type
REMARK                         _______ _______ _______ _____ _____    ______ ____
ROOT
ATOM      1  C   UNL     1       3.961   3.864  19.553  0.00  0.00    +0.000 C 
ENDROOT
BRANCH   1   6
ATOM      2  N   UNL     1       5.566   5.169  16.649  0.00  0.00    +0.000 N 
ATOM      3  C   UNL     1       6.157   6.086  17.476  0.00  0.00    +0.000 C 
ATOM      4  O   UNL     1       6.644   7.157  17.155  0.00  0.00    +0.000 OA
ATOM      5  S   UNL     1       6.172   5.517  19.133  0.00  0.00    +0.000 S 
ATOM      6  C   UNL     1       5.245   4.001  18.728  0.00  0.00    +0.000 C 
ATOM      7  C   UNL     1       5.000   4.052  17.227  0.00  0.00    +0.000 C 
ATOM      8  O   UNL     1       4.365   3.188  16.629  0.00  0.00    +0.000 OA
BRANCH   2   9
ATOM      9  C   UNL     1       5.427   5.448  15.233  0.00  0.00    +0.000 C 
BRANCH   9  11
ATOM     10  C   UNL     1       6.111   3.798  13.462  0.00  0.00    +0.000 C 
ATOM     11  C   UNL     1       6.591   4.862  14.434  0.00  0.00    +0.000 C 
ENDBRANCH   9  11
ENDBRANCH   2   9
ENDBRANCH   1   6
BRANCH   1  12
ATOM     12  C   UNL     1       2.999   4.966  19.185  0.00  0.00    +0.000 C 
ATOM     13  O   UNL     1       2.097   4.722  18.375  0.00  0.00    +0.000 OA
ATOM     14  N   UNL     1       3.227   6.200  19.755  0.00  0.00    +0.000 N 
ATOM     15  H   UNL     1       4.137   6.374  20.167  0.00  0.00    +0.000 HD
BRANCH  14  16
ATOM     16  C   UNL     1       2.417   7.325  19.470  0.00  0.00    +0.000 A 
ATOM     17  C   UNL     1       2.419   7.926  18.204  0.00  0.00    +0.000 A 
ATOM     18  C   UNL     1       1.725   9.096  17.953  0.00  0.00    +0.000 A 
ATOM     19  C   UNL     1       0.981   9.695  18.962  0.00  0.00    +0.000 A 
ATOM     20  C   UNL     1       0.268  10.984  18.702  0.00  0.00    +0.000 C 
ATOM     21  C   UNL     1       0.933   9.080  20.225  0.00  0.00    +0.000 A 
ATOM     22  C   UNL     1       1.630   7.893  20.475  0.00  0.00    +0.000 A 
ENDBRANCH  14  16
ENDBRANCH   1  12
TORSDOF 5
ENDMDL
MODEL 4
REMARK VINA RESULT:      -6.8      4.645      6.380
REMARK  Name = 
REMARK  7 active torsions:
REMARK  status: ('A' for Active; 'I' for Inactive)
REMARK    1  A    between atoms: C_1  and  C_2
REMARK    2  A    between atoms: C_2  and  C_3
REMARK    3  A    between atoms: C_3  and  N_4
REMARK    4  A    between atoms: C_8  and  C_9
REMARK    5  A    between atoms: C_9  and  C_10
REMARK    6  A    between atoms: N_12  and  C_13
REMARK    7  A    between atoms: C_16  and  C_17
REMARK                            x       y       z     vdW  Elec       q    Type
REMARK                         _______ _______ _______ _____ _____    ______ ____
ROOT
ATOM      1  C   UNL     1       3.640   3.882  19.486  0.00  0.00    +0.000 C 
ENDROOT
BRANCH   1   6
ATOM      2  N   UNL     1       5.481   5.170  16.717  0.00  0.00    +0.000 N 
ATOM      3  C   UNL     1       6.098   6.005  17.609  0.00  0.00    +0.000 C 
ATOM      4  O   UNL     1       6.680   7.047  17.357  0.00  0.00    +0.000 OA
ATOM      5  S   UNL     1       5.988   5.373  19.239  0.00  0.00    +0.000 S 
ATOM      6  C   UNL     1       4.970   3.951  18.727  0.00  0.00    +0.000 C 
ATOM      7  C   UNL     1       4.804   4.079  17.220  0.00  0.00    +0.000 C 
ATOM      8  O   UNL     1       4.136   3.291  16.558  0.00  0.00    +0.000 OA
BRANCH   2   9
ATOM      9  C   UNL     1       5.433   5.514  15.310  0.00  0.00    +0.000 C 
BRANCH   9  11
ATOM     10  C   UNL     1       6.100   3.822  13.573  0.00  0.00    +0.000 C 
ATOM     11  C   UNL     1       6.594   4.880  14.543  0.00  0.00    +0.000 C 
ENDBRANCH   9  11
ENDBRANCH   2   9
ENDBRANCH   1   6
BRANCH   1  12
ATOM     12  C   UNL     1       2.791   5.078  19.134  0.00  0.00    +0.000 C 
ATOM     13  O   UNL     1       1.938   4.961  18.247  0.00  0.00    +0.000 OA
ATOM     14  N   UNL     1       3.063   6.248  19.810  0.00  0.00    +0.000 N 
ATOM     15  H   UNL     1       3.950   6.323  20.297  0.00  0.00    +0.000 HD
BRANCH  14  16
ATOM     16  C   UNL     1       2.360   7.449  19.553  0.00  0.00    +0.000 A 
ATOM     17  C   UNL     1       1.559   8.052  20.532  0.00  0.00    +0.000 A 
ATOM     18  C   UNL     1       0.775   9.157  20.252  0.00  0.00    +0.000 A 
ATOM     19  C   UNL     1       0.786   9.714  18.979  0.00  0.00    +0.000 A 
ATOM     20  C   UNL     1      -0.096  10.880  18.665  0.00  0.00    +0.000 C 
ATOM     21  C   UNL     1       1.619   9.148  17.999  0.00  0.00    +0.000 A 
ATOM     22  C   UNL     1       2.416   8.034  18.286  0.00  0.00    +0.000 A 
ENDBRANCH  14  16
ENDBRANCH   1  12
TORSDOF 5
ENDMDL
MODEL 5
REMARK VINA RESULT:      -6.7      4.225      7.502
REMARK  Name = 
REMARK  7 active torsions:
REMARK  status: ('A' for Active; 'I' for Inactive)
REMARK    1  A    between atoms: C_1  and  C_2
REMARK    2  A    between atoms: C_2  and  C_3
REMARK    3  A    between atoms: C_3  and  N_4
REMARK    4  A    between atoms: C_8  and  C_9
REMARK    5  A    between atoms: C_9  and  C_10
REMARK    6  A    between atoms: N_12  and  C_13
REMARK    7  A    between atoms: C_16  and  C_17
REMARK                            x       y       z     vdW  Elec       q    Type
REMARK                         _______ _______ _______ _____ _____    ______ ____
ROOT
ATOM      1  C   UNL     1       7.124   6.637  17.261  0.00  0.00    +0.000 C 
ENDROOT
BRANCH   1   6
ATOM      2  N   UNL     1       4.191   4.788  18.096  0.00  0.00    +0.000 N 
ATOM      3  C   UNL     1       4.970   4.091  18.979  0.00  0.00    +0.000 C 
ATOM      4  O   UNL     1       4.736   2.992  19.453  0.00  0.00    +0.000 OA
ATOM      5  S   UNL     1       6.403   5.002  19.408  0.00  0.00    +0.000 S 
ATOM      6  C   UNL     1       6.000   6.366  18.267  0.00  0.00    +0.000 C 
ATOM      7  C   UNL     1       4.679   5.985  17.614  0.00  0.00    +0.000 C 
ATOM      8  O   UNL     1       4.139   6.680  16.759  0.00  0.00    +0.000 OA
BRANCH   2   9
ATOM      9  C   UNL     1       2.963   4.207  17.590  0.00  0.00    +0.000 C 
BRANCH   9  11
ATOM     10  C   UNL     1       1.207   3.247  19.113  0.00  0.00    +0.000 C 
ATOM     11  C   UNL     1       1.781   4.516  18.509  0.00  0.00    +0.000 C 
ENDBRANCH   9  11
ENDBRANCH   2   9
ENDBRANCH   1   6
BRANCH   1  12
ATOM     12  C   UNL     1       7.137   5.555  16.209  0.00  0.00    +0.000 C 
ATOM     13  O   UNL     1       7.787   4.526  16.424  0.00  0.00    +0.000 OA
ATOM     14  N   UNL     1       6.445   5.817  15.047  0.00  0.00    +0.000 N 
ATOM     15  H   UNL     1       6.194   6.780  14.848  0.00  0.00    +0.000 HD
BRANCH  14  16
ATOM     16  C   UNL     1       6.403   4.899  13.970  0.00  0.00    +0.000 A 
ATOM     17  C   UNL     1       5.363   3.969  13.842  0.00  0.00    +0.000 A 
ATOM     18  C   UNL     1       5.377   2.991  12.864  0.00  0.00    +0.000 A 
ATOM     19  C   UNL     1       6.429   2.927  11.959  0.00  0.00    +0.000 A 
ATOM     20  C   UNL     1       6.466   1.842  10.930  0.00  0.00    +0.000 C 
ATOM     21  C   UNL     1       7.457   3.881  12.045  0.00  0.00    +0.000 A 
ATOM     22  C   UNL     1       7.438   4.873  13.032  0.00  0.00    +0.000 A 
ENDBRANCH  14  16
ENDBRANCH   1  12
TORSDOF 5
ENDMDL
MODEL 6
REMARK VINA RESULT:      -6.6      4.316      7.354
REMARK  Name = 
REMARK  7 active torsions:
REMARK  status: ('A' for Active; 'I' for Inactive)
REMARK    1  A    between atoms: C_1  and  C_2
REMARK    2  A    between atoms: C_2  and  C_3
REMARK    3  A    between atoms: C_3  and  N_4
REMARK    4  A    between atoms: C_8  and  C_9
REMARK    5  A    between atoms: C_9  and  C_10
REMARK    6  A    between atoms: N_12  and  C_13
REMARK    7  A    between atoms: C_16  and  C_17
REMARK                            x       y       z     vdW  Elec       q    Type
REMARK                         _______ _______ _______ _____ _____    ______ ____
ROOT
ATOM      1  C   UNL     1       7.293   5.640  19.179  0.00  0.00    +0.000 C 
ENDROOT
BRANCH   1   6
ATOM      2  N   UNL     1       6.572   5.412  15.693  0.00  0.00    +0.000 N 
ATOM      3  C   UNL     1       5.884   6.587  15.833  0.00  0.00    +0.000 C 
ATOM      4  O   UNL     1       5.021   7.024  15.090  0.00  0.00    +0.000 OA
ATOM      5  S   UNL     1       6.420   7.464  17.252  0.00  0.00    +0.000 S 
ATOM      6  C   UNL     1       7.570   6.143  17.757  0.00  0.00    +0.000 C 
ATOM      7  C   UNL     1       7.451   5.059  16.696  0.00  0.00    +0.000 C 
ATOM      8  O   UNL     1       8.075   4.004  16.754  0.00  0.00    +0.000 OA
BRANCH   2   9
ATOM      9  C   UNL     1       6.270   4.517  14.595  0.00  0.00    +0.000 C 
BRANCH   9  11
ATOM     10  C   UNL     1       6.849   3.858  12.237  0.00  0.00    +0.000 C 
ATOM     11  C   UNL     1       7.204   4.757  13.409  0.00  0.00    +0.000 C 
ENDBRANCH   9  11
ENDBRANCH   2   9
ENDBRANCH   1   6
BRANCH   1  12
ATOM     12  C   UNL     1       5.873   5.140  19.274  0.00  0.00    +0.000 C 
ATOM     13  O   UNL     1       5.028   5.853  19.828  0.00  0.00    +0.000 OA
ATOM     14  N   UNL     1       5.626   3.884  18.764  0.00  0.00    +0.000 N 
ATOM     15  H   UNL     1       6.418   3.273  18.597  0.00  0.00    +0.000 HD
BRANCH  14  16
ATOM     16  C   UNL     1       4.344   3.286  18.816  0.00  0.00    +0.000 A 
ATOM     17  C   UNL     1       3.558   3.139  17.666  0.00  0.00    +0.000 A 
ATOM     18  C   UNL     1       2.258   2.668  17.729  0.00  0.00    +0.000 A 
ATOM     19  C   UNL     1       1.707   2.304  18.950  0.00  0.00    +0.000 A 
ATOM     20  C   UNL     1       0.288   1.837  19.022  0.00  0.00    +0.000 C 
ATOM     21  C   UNL     1       2.499   2.403  20.107  0.00  0.00    +0.000 A 
ATOM     22  C   UNL     1       3.815   2.874  20.042  0.00  0.00    +0.000 A 
ENDBRANCH  14  16
ENDBRANCH   1  12
TORSDOF 5
ENDMDL
MODEL 7
REMARK VINA RESULT:      -6.6      4.967      8.067
REMARK  Name = 
REMARK  7 active torsions:
REMARK  status: ('A' for Active; 'I' for Inactive)
REMARK    1  A    between atoms: C_1  and  C_2
REMARK    2  A    between atoms: C_2  and  C_3
REMARK    3  A    between atoms: C_3  and  N_4
REMARK    4  A    between atoms: C_8  and  C_9
REMARK    5  A    between atoms: C_9  and  C_10
REMARK    6  A    between atoms: N_12  and  C_13
REMARK    7  A    between atoms: C_16  and  C_17
REMARK                            x       y       z     vdW  Elec       q    Type
REMARK                         _______ _______ _______ _____ _____    ______ ____
ROOT
ATOM      1  C   UNL     1       5.427   6.235  17.453  0.00  0.00    +0.000 C 
ENDROOT
BRANCH   1   6
ATOM      2  N   UNL     1       2.684   5.761  19.683  0.00  0.00    +0.000 N 
ATOM      3  C   UNL     1       2.396   7.086  19.495  0.00  0.00    +0.000 C 
ATOM      4  O   UNL     1       1.730   7.801  20.224  0.00  0.00    +0.000 OA
ATOM      5  S   UNL     1       3.097   7.674  18.001  0.00  0.00    +0.000 S 
ATOM      6  C   UNL     1       3.913   6.085  17.640  0.00  0.00    +0.000 C 
ATOM      7  C   UNL     1       3.530   5.153  18.780  0.00  0.00    +0.000 C 
ATOM      8  O   UNL     1       3.946   4.000  18.860  0.00  0.00    +0.000 OA
BRANCH   2   9
ATOM      9  C   UNL     1       2.219   5.075  20.872  0.00  0.00    +0.000 C 
BRANCH   9  11
ATOM     10  C   UNL     1       1.317   2.750  21.196  0.00  0.00    +0.000 C 
ATOM     11  C   UNL     1       1.086   4.103  20.546  0.00  0.00    +0.000 C 
ENDBRANCH   9  11
ENDBRANCH   2   9
ENDBRANCH   1   6
BRANCH   1  12
ATOM     12  C   UNL     1       5.901   5.298  16.370  0.00  0.00    +0.000 C 
ATOM     13  O   UNL     1       6.595   4.326  16.688  0.00  0.00    +0.000 OA
ATOM     14  N   UNL     1       5.555   5.624  15.077  0.00  0.00    +0.000 N 
ATOM     15  H   UNL     1       5.242   6.572  14.891  0.00  0.00    +0.000 HD
BRANCH  14  16
ATOM     16  C   UNL     1       5.961   4.846  13.967  0.00  0.00    +0.000 A 
ATOM     17  C   UNL     1       5.143   3.838  13.442  0.00  0.00    +0.000 A 
ATOM     18  C   UNL     1       5.582   2.994  12.437  0.00  0.00    +0.000 A 
ATOM     19  C   UNL     1       6.855   3.148  11.905  0.00  0.00    +0.000 A 
ATOM     20  C   UNL     1       7.345   2.206  10.850  0.00  0.00    +0.000 C 
ATOM     21  C   UNL     1       7.672   4.184  12.389  0.00  0.00    +0.000 A 
ATOM     22  C   UNL     1       7.224   5.041  13.402  0.00  0.00    +0.000 A 
ENDBRANCH  14  16
ENDBRANCH   1  12
TORSDOF 5
ENDMDL
MODEL 8
REMARK VINA RESULT:      -6.5      5.828      8.655
REMARK  Name = 
REMARK  7 active torsions:
REMARK  status: ('A' for Active; 'I' for Inactive)
REMARK    1  A    between atoms: C_1  and  C_2
REMARK    2  A    between atoms: C_2  and  C_3
REMARK    3  A    between atoms: C_3  and  N_4
REMARK    4  A    between atoms: C_8  and  C_9
REMARK    5  A    between atoms: C_9  and  C_10
REMARK    6  A    between atoms: N_12  and  C_13
REMARK    7  A    between atoms: C_16  and  C_17
REMARK                            x       y       z     vdW  Elec       q    Type
REMARK                         _______ _______ _______ _____ _____    ______ ____
ROOT
ATOM      1  C   UNL     1       1.478   6.833  20.382  0.00  0.00    +0.000 C 
ENDROOT
BRANCH   1   6
ATOM      2  N   UNL     1       0.360  10.173  19.824  0.00  0.00    +0.000 N 
ATOM      3  C   UNL     1       0.159  10.254  21.176  0.00  0.00    +0.000 C 
ATOM      4  O   UNL     1      -0.561  11.043  21.763  0.00  0.00    +0.000 OA
ATOM      5  S   UNL     1       1.122   9.063  22.025  0.00  0.00    +0.000 S 
ATOM      6  C   UNL     1       1.766   8.335  20.483  0.00  0.00    +0.000 C 
ATOM      7  C   UNL     1       1.154   9.149  19.353  0.00  0.00    +0.000 C 
ATOM      8  O   UNL     1       1.359   8.896  18.169  0.00  0.00    +0.000 OA
BRANCH   2   9
ATOM      9  C   UNL     1      -0.357  11.056  18.926  0.00  0.00    +0.000 C 
BRANCH   9  11
ATOM     10  C   UNL     1      -1.799  10.005  17.153  0.00  0.00    +0.000 C 
ATOM     11  C   UNL     1      -1.740  10.501  18.587  0.00  0.00    +0.000 C 
ENDBRANCH   9  11
ENDBRANCH   2   9
ENDBRANCH   1   6
BRANCH   1  12
ATOM     12  C   UNL     1       2.601   6.149  19.641  0.00  0.00    +0.000 C 
ATOM     13  O   UNL     1       3.416   5.480  20.285  0.00  0.00    +0.000 OA
ATOM     14  N   UNL     1       2.661   6.361  18.280  0.00  0.00    +0.000 N 
ATOM     15  H   UNL     1       2.136   7.139  17.895  0.00  0.00    +0.000 HD
BRANCH  14  16
ATOM     16  C   UNL     1       3.680   5.802  17.473  0.00  0.00    +0.000 A 
ATOM     17  C   UNL     1       4.618   6.610  16.817  0.00  0.00    +0.000 A 
ATOM     18  C   UNL     1       5.541   6.082  15.931  0.00  0.00    +0.000 A 
ATOM     19  C   UNL     1       5.570   4.714  15.690  0.00  0.00    +0.000 A 
ATOM     20  C   UNL     1       6.537   4.150  14.698  0.00  0.00    +0.000 C 
ATOM     21  C   UNL     1       4.665   3.885  16.375  0.00  0.00    +0.000 A 
ATOM     22  C   UNL     1       3.737   4.421  17.275  0.00  0.00    +0.000 A 
ENDBRANCH  14  16
ENDBRANCH   1  12
TORSDOF 5
ENDMDL
MODEL 9
REMARK VINA RESULT:      -6.5      6.157      7.055
REMARK  Name = 
REMARK  7 active torsions:
REMARK  status: ('A' for Active; 'I' for Inactive)
REMARK    1  A    between atoms: C_1  and  C_2
REMARK    2  A    between atoms: C_2  and  C_3
REMARK    3  A    between atoms: C_3  and  N_4
REMARK    4  A    between atoms: C_8  and  C_9
REMARK    5  A    between atoms: C_9  and  C_10
REMARK    6  A    between atoms: N_12  and  C_13
REMARK    7  A    between atoms: C_16  and  C_17
REMARK                            x       y       z     vdW  Elec       q    Type
REMARK                         _______ _______ _______ _____ _____    ______ ____
ROOT
ATOM      1  C   UNL     1       2.780   6.496  19.788  0.00  0.00    +0.000 C 
ENDROOT
BRANCH   1   6
ATOM      2  N   UNL     1       4.055   4.448  17.161  0.00  0.00    +0.000 N 
ATOM      3  C   UNL     1       2.989   3.620  17.387  0.00  0.00    +0.000 C 
ATOM      4  O   UNL     1       2.891   2.447  17.070  0.00  0.00    +0.000 OA
ATOM      5  S   UNL     1       1.692   4.475  18.197  0.00  0.00    +0.000 S 
ATOM      6  C   UNL     1       2.658   6.014  18.338  0.00  0.00    +0.000 C 
ATOM      7  C   UNL     1       3.998   5.726  17.679  0.00  0.00    +0.000 C 
ATOM      8  O   UNL     1       4.905   6.552  17.632  0.00  0.00    +0.000 OA
BRANCH   2   9
ATOM      9  C   UNL     1       5.251   3.939  16.520  0.00  0.00    +0.000 C 
BRANCH   9  11
ATOM     10  C   UNL     1       6.738   4.812  14.690  0.00  0.00    +0.000 C 
ATOM     11  C   UNL     1       5.330   4.380  15.059  0.00  0.00    +0.000 C 
ENDBRANCH   9  11
ENDBRANCH   2   9
ENDBRANCH   1   6
BRANCH   1  12
ATOM     12  C   UNL     1       1.927   7.725  19.989  0.00  0.00    +0.000 C 
ATOM     13  O   UNL     1       1.677   8.439  19.012  0.00  0.00    +0.000 OA
ATOM     14  N   UNL     1       1.520   7.988  21.279  0.00  0.00    +0.000 N 
ATOM     15  H   UNL     1       2.004   7.521  22.038  0.00  0.00    +0.000 HD
BRANCH  14  16
ATOM     16  C   UNL     1       0.742   9.124  21.608  0.00  0.00    +0.000 A 
ATOM     17  C   UNL     1       0.884  10.334  20.915  0.00  0.00    +0.000 A 
ATOM     18  C   UNL     1       0.217  11.480  21.309  0.00  0.00    +0.000 A 
ATOM     19  C   UNL     1      -0.639  11.448  22.402  0.00  0.00    +0.000 A 
ATOM     20  C   UNL     1      -1.324  12.698  22.854  0.00  0.00    +0.000 C 
ATOM     21  C   UNL     1      -0.827  10.231  23.080  0.00  0.00    +0.000 A 
ATOM     22  C   UNL     1      -0.156   9.071  22.677  0.00  0.00    +0.000 A 
ENDBRANCH  14  16
ENDBRANCH   1  12
TORSDOF 5
ENDMDL
