MODEL 1
REMARK VINA RESULT:      -8.1      0.000      0.000
REMARK  Name = 
REMARK  2 active torsions:
REMARK  status: ('A' for Active; 'I' for Inactive)
REMARK    1  A    between atoms: C_1  and  C_2
REMARK    2  A    between atoms: N_10  and  C_11
REMARK                            x       y       z     vdW  Elec       q    Type
REMARK                         _______ _______ _______ _____ _____    ______ ____
ROOT
ATOM      1  C   UNL     1       2.595   2.085  17.805  0.00  0.00    +0.000 C 
ATOM      2  C   UNL     1       2.465   3.489  18.408  0.00  0.00    +0.000 C 
ATOM      3  C   UNL     1       1.110   3.714  19.091  0.00  0.00    +0.000 C 
ATOM      4  C   UNL     1       0.987   2.957  20.408  0.00  0.00    +0.000 C 
ATOM      5  C   UNL     1       2.156   3.288  21.327  0.00  0.00    +0.000 C 
ATOM      6  C   UNL     1       3.503   3.089  20.641  0.00  0.00    +0.000 C 
ATOM      7  N   UNL     1       3.569   3.772  19.348  0.00  0.00    +0.000 N 
ATOM      8  C   UNL     1       4.821   4.229  18.944  0.00  0.00    +0.000 C 
ATOM      9  O   UNL     1       5.847   4.055  19.597  0.00  0.00    +0.000 OA
ATOM     10  N   UNL     1       4.812   4.914  17.757  0.00  0.00    +0.000 N 
ATOM     11  H   UNL     1       3.961   5.427  17.604  0.00  0.00    +0.000 HD
ENDROOT
BRANCH  10  12
ATOM     12  C   UNL     1       6.022   5.536  17.232  0.00  0.00    +0.000 C 
ATOM     13  C   UNL     1       7.064   4.456  16.892  0.00  0.00    +0.000 C 
ATOM     14  C   UNL     1       6.747   3.699  15.602  0.00  0.00    +0.000 C 
ATOM     15  C   UNL     1       6.492   4.646  14.428  0.00  0.00    +0.000 C 
ATOM     16  C   UNL     1       5.352   5.611  14.773  0.00  0.00    +0.000 C 
ATOM     17  C   UNL     1       5.702   6.429  16.023  0.00  0.00    +0.000 C 
ATOM     18  O   UNL     1       7.670   5.424  14.140  0.00  0.00    +0.000 OA
ATOM     19  C   UNL     1       7.695   5.474  12.712  0.00  0.00    +0.000 C 
ATOM     20  C   UNL     1       7.250   4.083  12.365  0.00  0.00    +0.000 C 
ATOM     21  O   UNL     1       6.152   3.872  13.263  0.00  0.00    +0.000 OA
ENDBRANCH  10  12
TORSDOF 1
ENDMDL
MODEL 2
REMARK VINA RESULT:      -7.5      0.975      1.209
REMARK  Name = 
REMARK  2 active torsions:
REMARK  status: ('A' for Active; 'I' for Inactive)
REMARK    1  A    between atoms: C_1  and  C_2
REMARK    2  A    between atoms: N_10  and  C_11
REMARK                            x       y       z     vdW  Elec       q    Type
REMARK                         _______ _______ _______ _____ _____    ______ ____
ROOT
ATOM      1  C   UNL     1       4.191   2.151  20.315  0.00  0.00    +0.000 C 
ATOM      2  C   UNL     1       3.370   2.834  19.214  0.00  0.00    +0.000 C 
ATOM      3  C   UNL     1       1.951   2.263  19.099  0.00  0.00    +0.000 C 
ATOM      4  C   UNL     1       1.056   2.686  20.258  0.00  0.00    +0.000 C 
ATOM      5  C   UNL     1       1.055   4.202  20.409  0.00  0.00    +0.000 C 
ATOM      6  C   UNL     1       2.466   4.772  20.498  0.00  0.00    +0.000 C 
ATOM      7  N   UNL     1       3.322   4.297  19.411  0.00  0.00    +0.000 N 
ATOM      8  C   UNL     1       4.328   5.160  18.981  0.00  0.00    +0.000 C 
ATOM      9  O   UNL     1       4.538   6.259  19.491  0.00  0.00    +0.000 OA
ATOM     10  N   UNL     1       5.058   4.689  17.921  0.00  0.00    +0.000 N 
ATOM     11  H   UNL     1       4.519   4.114  17.296  0.00  0.00    +0.000 HD
ENDROOT
BRANCH  10  12
ATOM     12  C   UNL     1       6.091   5.502  17.291  0.00  0.00    +0.000 C 
ATOM     13  C   UNL     1       7.305   4.626  16.934  0.00  0.00    +0.000 C 
ATOM     14  C   UNL     1       7.073   3.749  15.703  0.00  0.00    +0.000 C 
ATOM     15  C   UNL     1       6.573   4.559  14.506  0.00  0.00    +0.000 C 
ATOM     16  C   UNL     1       5.287   5.304  14.880  0.00  0.00    +0.000 C 
ATOM     17  C   UNL     1       5.537   6.244  16.066  0.00  0.00    +0.000 C 
ATOM     18  O   UNL     1       7.557   5.533  14.107  0.00  0.00    +0.000 OA
ATOM     19  C   UNL     1       7.494   5.505  12.680  0.00  0.00    +0.000 C 
ATOM     20  C   UNL     1       7.313   4.036  12.427  0.00  0.00    +0.000 C 
ATOM     21  O   UNL     1       6.328   3.669  13.403  0.00  0.00    +0.000 OA
ENDBRANCH  10  12
TORSDOF 1
ENDMDL
MODEL 3
REMARK VINA RESULT:      -6.4      4.675      6.476
REMARK  Name = 
REMARK  2 active torsions:
REMARK  status: ('A' for Active; 'I' for Inactive)
REMARK    1  A    between atoms: C_1  and  C_2
REMARK    2  A    between atoms: N_10  and  C_11
REMARK                            x       y       z     vdW  Elec       q    Type
REMARK                         _______ _______ _______ _____ _____    ______ ____
ROOT
ATOM      1  C   UNL     1       2.068   9.102  22.271  0.00  0.00    +0.000 C 
ATOM      2  C   UNL     1       0.866   8.713  21.402  0.00  0.00    +0.000 C 
ATOM      3  C   UNL     1      -0.472   9.115  22.035  0.00  0.00    +0.000 C 
ATOM      4  C   UNL     1      -0.713  10.619  21.983  0.00  0.00    +0.000 C 
ATOM      5  C   UNL     1      -0.573  11.136  20.558  0.00  0.00    +0.000 C 
ATOM      6  C   UNL     1       0.747  10.715  19.920  0.00  0.00    +0.000 C 
ATOM      7  N   UNL     1       0.983   9.276  20.042  0.00  0.00    +0.000 N 
ATOM      8  C   UNL     1       1.718   8.672  19.024  0.00  0.00    +0.000 C 
ATOM      9  O   UNL     1       2.190   9.291  18.074  0.00  0.00    +0.000 OA
ATOM     10  N   UNL     1       1.855   7.315  19.160  0.00  0.00    +0.000 N 
ATOM     11  H   UNL     1       1.063   6.881  19.601  0.00  0.00    +0.000 HD
ENDROOT
BRANCH  10  12
ATOM     12  C   UNL     1       2.520   6.515  18.138  0.00  0.00    +0.000 C 
ATOM     13  C   UNL     1       3.973   6.228  18.557  0.00  0.00    +0.000 C 
ATOM     14  C   UNL     1       4.086   5.158  19.643  0.00  0.00    +0.000 C 
ATOM     15  C   UNL     1       3.329   3.881  19.273  0.00  0.00    +0.000 C 
ATOM     16  C   UNL     1       1.857   4.208  18.998  0.00  0.00    +0.000 C 
ATOM     17  C   UNL     1       1.738   5.224  17.854  0.00  0.00    +0.000 C 
ATOM     18  O   UNL     1       3.888   3.288  18.085  0.00  0.00    +0.000 OA
ATOM     19  C   UNL     1       3.847   1.887  18.362  0.00  0.00    +0.000 C 
ATOM     20  C   UNL     1       4.220   1.867  19.816  0.00  0.00    +0.000 C 
ATOM     21  O   UNL     1       3.435   2.939  20.355  0.00  0.00    +0.000 OA
ENDBRANCH  10  12
TORSDOF 1
ENDMDL
MODEL 4
REMARK VINA RESULT:      -6.0      9.626     12.491
REMARK  Name = 
REMARK  2 active torsions:
REMARK  status: ('A' for Active; 'I' for Inactive)
REMARK    1  A    between atoms: C_1  and  C_2
REMARK    2  A    between atoms: N_10  and  C_11
REMARK                            x       y       z     vdW  Elec       q    Type
REMARK                         _______ _______ _______ _____ _____    ______ ____
ROOT
ATOM      1  C   UNL     1       9.362  10.561  19.790  0.00  0.00    +0.000 C 
ATOM      2  C   UNL     1      10.209  11.805  20.083  0.00  0.00    +0.000 C 
ATOM      3  C   UNL     1      11.633  11.692  19.525  0.00  0.00    +0.000 C 
ATOM      4  C   UNL     1      11.677  11.817  18.007  0.00  0.00    +0.000 C 
ATOM      5  C   UNL     1      10.983  13.095  17.554  0.00  0.00    +0.000 C 
ATOM      6  C   UNL     1       9.576  13.220  18.129  0.00  0.00    +0.000 C 
ATOM      7  N   UNL     1       9.555  13.030  19.580  0.00  0.00    +0.000 N 
ATOM      8  C   UNL     1       8.574  13.721  20.289  0.00  0.00    +0.000 C 
ATOM      9  O   UNL     1       7.730  14.435  19.752  0.00  0.00    +0.000 OA
ATOM     10  N   UNL     1       8.640  13.553  21.647  0.00  0.00    +0.000 N 
ATOM     11  H   UNL     1       9.580  13.427  21.984  0.00  0.00    +0.000 HD
ENDROOT
BRANCH  10  12
ATOM     12  C   UNL     1       7.745  14.273  22.544  0.00  0.00    +0.000 C 
ATOM     13  C   UNL     1       6.341  13.644  22.504  0.00  0.00    +0.000 C 
ATOM     14  C   UNL     1       6.251  12.325  23.274  0.00  0.00    +0.000 C 
ATOM     15  C   UNL     1       6.785  12.456  24.702  0.00  0.00    +0.000 C 
ATOM     16  C   UNL     1       8.232  12.959  24.674  0.00  0.00    +0.000 C 
ATOM     17  C   UNL     1       8.314  14.320  23.971  0.00  0.00    +0.000 C 
ATOM     18  O   UNL     1       5.995  13.398  25.453  0.00  0.00    +0.000 OA
ATOM     19  C   UNL     1       5.902  12.797  26.746  0.00  0.00    +0.000 C 
ATOM     20  C   UNL     1       5.738  11.350  26.382  0.00  0.00    +0.000 C 
ATOM     21  O   UNL     1       6.717  11.174  25.350  0.00  0.00    +0.000 OA
ENDBRANCH  10  12
TORSDOF 1
ENDMDL
MODEL 5
REMARK VINA RESULT:      -5.8      5.277      7.059
REMARK  Name = 
REMARK  2 active torsions:
REMARK  status: ('A' for Active; 'I' for Inactive)
REMARK    1  A    between atoms: C_1  and  C_2
REMARK    2  A    between atoms: N_10  and  C_11
REMARK                            x       y       z     vdW  Elec       q    Type
REMARK                         _______ _______ _______ _____ _____    ______ ____
ROOT
ATOM      1  C   UNL     1       1.295   4.148  17.519  0.00  0.00    +0.000 C 
ATOM      2  C   UNL     1       1.294   4.399  19.032  0.00  0.00    +0.000 C 
ATOM      3  C   UNL     1       0.860   3.165  19.833  0.00  0.00    +0.000 C 
ATOM      4  C   UNL     1       1.925   2.075  19.848  0.00  0.00    +0.000 C 
ATOM      5  C   UNL     1       3.257   2.634  20.331  0.00  0.00    +0.000 C 
ATOM      6  C   UNL     1       3.676   3.875  19.551  0.00  0.00    +0.000 C 
ATOM      7  N   UNL     1       2.611   4.877  19.497  0.00  0.00    +0.000 N 
ATOM      8  C   UNL     1       3.008   6.212  19.431  0.00  0.00    +0.000 C 
ATOM      9  O   UNL     1       4.184   6.565  19.385  0.00  0.00    +0.000 OA
ATOM     10  N   UNL     1       1.971   7.107  19.444  0.00  0.00    +0.000 N 
ATOM     11  H   UNL     1       1.183   6.790  19.984  0.00  0.00    +0.000 HD
ENDROOT
BRANCH  10  12
ATOM     12  C   UNL     1       2.211   8.545  19.470  0.00  0.00    +0.000 C 
ATOM     13  C   UNL     1       1.951   9.147  18.078  0.00  0.00    +0.000 C 
ATOM     14  C   UNL     1       0.463   9.278  17.748  0.00  0.00    +0.000 C 
ATOM     15  C   UNL     1      -0.307  10.010  18.847  0.00  0.00    +0.000 C 
ATOM     16  C   UNL     1      -0.121   9.288  20.186  0.00  0.00    +0.000 C 
ATOM     17  C   UNL     1       1.366   9.225  20.558  0.00  0.00    +0.000 C 
ATOM     18  O   UNL     1       0.177  11.360  18.992  0.00  0.00    +0.000 OA
ATOM     19  C   UNL     1      -1.013  12.118  19.214  0.00  0.00    +0.000 C 
ATOM     20  C   UNL     1      -1.967  11.445  18.270  0.00  0.00    +0.000 C 
ATOM     21  O   UNL     1      -1.702  10.054  18.497  0.00  0.00    +0.000 OA
ENDBRANCH  10  12
TORSDOF 1
ENDMDL
MODEL 6
REMARK VINA RESULT:      -5.7      4.988      6.903
REMARK  Name = 
REMARK  2 active torsions:
REMARK  status: ('A' for Active; 'I' for Inactive)
REMARK    1  A    between atoms: C_1  and  C_2
REMARK    2  A    between atoms: N_10  and  C_11
REMARK                            x       y       z     vdW  Elec       q    Type
REMARK                         _______ _______ _______ _____ _____    ______ ____
ROOT
ATOM      1  C   UNL     1       1.230  10.582  21.190  0.00  0.00    +0.000 C 
ATOM      2  C   UNL     1       0.379   9.624  20.347  0.00  0.00    +0.000 C 
ATOM      3  C   UNL     1      -1.118   9.948  20.420  0.00  0.00    +0.000 C 
ATOM      4  C   UNL     1      -1.480  11.211  19.648  0.00  0.00    +0.000 C 
ATOM      5  C   UNL     1      -0.980  11.123  18.211  0.00  0.00    +0.000 C 
ATOM      6  C   UNL     1       0.504  10.776  18.139  0.00  0.00    +0.000 C 
ATOM      7  N   UNL     1       0.834   9.599  18.942  0.00  0.00    +0.000 N 
ATOM      8  C   UNL     1       1.891   8.809  18.493  0.00  0.00    +0.000 C 
ATOM      9  O   UNL     1       2.557   9.077  17.496  0.00  0.00    +0.000 OA
ATOM     10  N   UNL     1       2.115   7.688  19.249  0.00  0.00    +0.000 N 
ATOM     11  H   UNL     1       1.275   7.310  19.652  0.00  0.00    +0.000 HD
ENDROOT
BRANCH  10  12
ATOM     12  C   UNL     1       3.124   6.708  18.870  0.00  0.00    +0.000 C 
ATOM     13  C   UNL     1       3.405   5.758  20.048  0.00  0.00    +0.000 C 
ATOM     14  C   UNL     1       2.301   4.721  20.260  0.00  0.00    +0.000 C 
ATOM     15  C   UNL     1       1.969   3.963  18.973  0.00  0.00    +0.000 C 
ATOM     16  C   UNL     1       1.567   4.952  17.874  0.00  0.00    +0.000 C 
ATOM     17  C   UNL     1       2.704   5.946  17.604  0.00  0.00    +0.000 C 
ATOM     18  O   UNL     1       3.115   3.220  18.514  0.00  0.00    +0.000 OA
ATOM     19  C   UNL     1       2.551   1.994  18.047  0.00  0.00    +0.000 C 
ATOM     20  C   UNL     1       1.492   1.748  19.083  0.00  0.00    +0.000 C 
ATOM     21  O   UNL     1       0.894   3.043  19.231  0.00  0.00    +0.000 OA
ENDBRANCH  10  12
TORSDOF 1
ENDMDL
MODEL 7
REMARK VINA RESULT:      -5.7      4.325      5.183
REMARK  Name = 
REMARK  2 active torsions:
REMARK  status: ('A' for Active; 'I' for Inactive)
REMARK    1  A    between atoms: C_1  and  C_2
REMARK    2  A    between atoms: N_10  and  C_11
REMARK                            x       y       z     vdW  Elec       q    Type
REMARK                         _______ _______ _______ _____ _____    ______ ____
ROOT
ATOM      1  C   UNL     1       0.157   9.216  17.779  0.00  0.00    +0.000 C 
ATOM      2  C   UNL     1       1.446   9.512  18.555  0.00  0.00    +0.000 C 
ATOM      3  C   UNL     1       1.655  11.012  18.798  0.00  0.00    +0.000 C 
ATOM      4  C   UNL     1       0.701  11.572  19.845  0.00  0.00    +0.000 C 
ATOM      5  C   UNL     1       0.785  10.764  21.134  0.00  0.00    +0.000 C 
ATOM      6  C   UNL     1       0.602   9.270  20.889  0.00  0.00    +0.000 C 
ATOM      7  N   UNL     1       1.484   8.773  19.833  0.00  0.00    +0.000 N 
ATOM      8  C   UNL     1       1.907   7.449  19.940  0.00  0.00    +0.000 C 
ATOM      9  O   UNL     1       1.549   6.697  20.843  0.00  0.00    +0.000 OA
ATOM     10  N   UNL     1       2.779   7.057  18.958  0.00  0.00    +0.000 N 
ATOM     11  H   UNL     1       3.373   7.803  18.637  0.00  0.00    +0.000 HD
ENDROOT
BRANCH  10  12
ATOM     12  C   UNL     1       3.387   5.732  18.969  0.00  0.00    +0.000 C 
ATOM     13  C   UNL     1       3.182   5.047  17.607  0.00  0.00    +0.000 C 
ATOM     14  C   UNL     1       4.102   5.595  16.514  0.00  0.00    +0.000 C 
ATOM     15  C   UNL     1       5.569   5.595  16.945  0.00  0.00    +0.000 C 
ATOM     16  C   UNL     1       5.734   6.405  18.235  0.00  0.00    +0.000 C 
ATOM     17  C   UNL     1       4.872   5.811  19.356  0.00  0.00    +0.000 C 
ATOM     18  O   UNL     1       6.023   4.251  17.196  0.00  0.00    +0.000 OA
ATOM     19  C   UNL     1       7.349   4.243  16.665  0.00  0.00    +0.000 C 
ATOM     20  C   UNL     1       7.171   5.073  15.427  0.00  0.00    +0.000 C 
ATOM     21  O   UNL     1       6.369   6.165  15.895  0.00  0.00    +0.000 OA
ENDBRANCH  10  12
TORSDOF 1
ENDMDL
MODEL 8
REMARK VINA RESULT:      -5.7      9.869     12.587
REMARK  Name = 
REMARK  2 active torsions:
REMARK  status: ('A' for Active; 'I' for Inactive)
REMARK    1  A    between atoms: C_1  and  C_2
REMARK    2  A    between atoms: N_10  and  C_11
REMARK                            x       y       z     vdW  Elec       q    Type
REMARK                         _______ _______ _______ _____ _____    ______ ____
ROOT
ATOM      1  C   UNL     1       8.830  13.274  18.224  0.00  0.00    +0.000 C 
ATOM      2  C   UNL     1       9.398  12.402  19.352  0.00  0.00    +0.000 C 
ATOM      3  C   UNL     1      10.141  11.169  18.824  0.00  0.00    +0.000 C 
ATOM      4  C   UNL     1      11.485  11.521  18.197  0.00  0.00    +0.000 C 
ATOM      5  C   UNL     1      12.333  12.332  19.168  0.00  0.00    +0.000 C 
ATOM      6  C   UNL     1      11.585  13.545  19.711  0.00  0.00    +0.000 C 
ATOM      7  N   UNL     1      10.271  13.187  20.247  0.00  0.00    +0.000 N 
ATOM      8  C   UNL     1       9.790  13.964  21.299  0.00  0.00    +0.000 C 
ATOM      9  O   UNL     1      10.395  14.931  21.757  0.00  0.00    +0.000 OA
ATOM     10  N   UNL     1       8.585  13.545  21.800  0.00  0.00    +0.000 N 
ATOM     11  H   UNL     1       8.461  12.549  21.747  0.00  0.00    +0.000 HD
ENDROOT
BRANCH  10  12
ATOM     12  C   UNL     1       7.981  14.192  22.959  0.00  0.00    +0.000 C 
ATOM     13  C   UNL     1       6.450  14.038  22.909  0.00  0.00    +0.000 C 
ATOM     14  C   UNL     1       5.974  12.635  23.289  0.00  0.00    +0.000 C 
ATOM     15  C   UNL     1       6.558  12.173  24.625  0.00  0.00    +0.000 C 
ATOM     16  C   UNL     1       8.088  12.218  24.571  0.00  0.00    +0.000 C 
ATOM     17  C   UNL     1       8.572  13.642  24.267  0.00  0.00    +0.000 C 
ATOM     18  O   UNL     1       6.119  13.034  25.694  0.00  0.00    +0.000 OA
ATOM     19  C   UNL     1       5.876  12.128  26.772  0.00  0.00    +0.000 C 
ATOM     20  C   UNL     1       5.260  10.968  26.044  0.00  0.00    +0.000 C 
ATOM     21  O   UNL     1       6.110  10.833  24.896  0.00  0.00    +0.000 OA
ENDBRANCH  10  12
TORSDOF 1
ENDMDL
MODEL 9
REMARK VINA RESULT:      -5.7      5.856      7.713
REMARK  Name = 
REMARK  2 active torsions:
REMARK  status: ('A' for Active; 'I' for Inactive)
REMARK    1  A    between atoms: C_1  and  C_2
REMARK    2  A    between atoms: N_10  and  C_11
REMARK                            x       y       z     vdW  Elec       q    Type
REMARK                         _______ _______ _______ _____ _____    ______ ____
ROOT
ATOM      1  C   UNL     1       3.814   5.030  18.410  0.00  0.00    +0.000 C 
ATOM      2  C   UNL     1       2.297   5.249  18.448  0.00  0.00    +0.000 C 
ATOM      3  C   UNL     1       1.512   4.008  18.004  0.00  0.00    +0.000 C 
ATOM      4  C   UNL     1       1.543   2.895  19.045  0.00  0.00    +0.000 C 
ATOM      5  C   UNL     1       1.079   3.415  20.399  0.00  0.00    +0.000 C 
ATOM      6  C   UNL     1       1.842   4.663  20.829  0.00  0.00    +0.000 C 
ATOM      7  N   UNL     1       1.852   5.689  19.786  0.00  0.00    +0.000 N 
ATOM      8  C   UNL     1       1.899   7.015  20.211  0.00  0.00    +0.000 C 
ATOM      9  O   UNL     1       1.964   7.344  21.393  0.00  0.00    +0.000 OA
ATOM     10  N   UNL     1       1.844   7.933  19.194  0.00  0.00    +0.000 N 
ATOM     11  H   UNL     1       1.293   7.622  18.412  0.00  0.00    +0.000 HD
ENDROOT
BRANCH  10  12
ATOM     12  C   UNL     1       1.794   9.364  19.467  0.00  0.00    +0.000 C 
ATOM     13  C   UNL     1       1.502  10.137  18.169  0.00  0.00    +0.000 C 
ATOM     14  C   UNL     1       0.040  10.045  17.729  0.00  0.00    +0.000 C 
ATOM     15  C   UNL     1      -0.923  10.423  18.855  0.00  0.00    +0.000 C 
ATOM     16  C   UNL     1      -0.677   9.529  20.075  0.00  0.00    +0.000 C 
ATOM     17  C   UNL     1       0.768   9.679  20.567  0.00  0.00    +0.000 C 
ATOM     18  O   UNL     1      -0.724  11.793  19.253  0.00  0.00    +0.000 OA
ATOM     19  C   UNL     1      -2.052  12.269  19.482  0.00  0.00    +0.000 C 
ATOM     20  C   UNL     1      -2.797  11.603  18.362  0.00  0.00    +0.000 C 
ATOM     21  O   UNL     1      -2.276  10.267  18.391  0.00  0.00    +0.000 OA
ENDBRANCH  10  12
TORSDOF 1
ENDMDL
