MODEL 1
REMARK VINA RESULT:      -8.2      0.000      0.000
REMARK  Name = 
REMARK  3 active torsions:
REMARK  status: ('A' for Active; 'I' for Inactive)
REMARK    1  A    between atoms: C_2  and  C_16
REMARK    2  A    between atoms: C_7  and  C_8
REMARK    3  A    between atoms: C_20  and  N_21
REMARK                            x       y       z     vdW  Elec       q    Type
REMARK                         _______ _______ _______ _____ _____    ______ ____
ROOT
ATOM      1  O   UNL     1       1.410   5.748  20.612  0.00  0.00    +0.000 OA
ATOM      2  C   UNL     1       2.207   6.293  19.859  0.00  0.00    +0.000 C 
ATOM      3  N   UNL     1       2.292   7.645  19.601  0.00  0.00    +0.000 N 
ATOM      4  C   UNL     1       1.446   8.584  20.192  0.00  0.00    +0.000 A 
ATOM      5  C   UNL     1       1.108   8.532  21.536  0.00  0.00    +0.000 A 
ATOM      6  C   UNL     1       0.215   9.479  22.040  0.00  0.00    +0.000 A 
ATOM      7  C   UNL     1      -0.355  10.441  21.197  0.00  0.00    +0.000 A 
ATOM      8  C   UNL     1       0.093  10.416  19.874  0.00  0.00    +0.000 A 
ATOM      9  N   UNL     1       1.004   9.546  19.364  0.00  0.00    +0.000 NA
ATOM     10  H   UNL     1       2.625   7.933  18.691  0.00  0.00    +0.000 HD
ENDROOT
BRANCH   7  11
ATOM     11  C   UNL     1      -1.370  11.406  21.671  0.00  0.00    +0.000 A 
ATOM     12  C   UNL     1      -1.730  11.484  23.029  0.00  0.00    +0.000 A 
ATOM     13  C   UNL     1      -2.704  12.385  23.474  0.00  0.00    +0.000 A 
ATOM     14  C   UNL     1      -3.333  13.236  22.571  0.00  0.00    +0.000 A 
ATOM     15  C   UNL     1      -2.994  13.183  21.224  0.00  0.00    +0.000 A 
ATOM     16  C   UNL     1      -2.027  12.274  20.779  0.00  0.00    +0.000 A 
ENDBRANCH   7  11
BRANCH   2  17
ATOM     17  C   UNL     1       3.144   5.443  19.083  0.00  0.00    +0.000 A 
ATOM     18  C   UNL     1       2.669   4.628  18.048  0.00  0.00    +0.000 A 
ATOM     19  C   UNL     1       3.564   3.892  17.267  0.00  0.00    +0.000 A 
ATOM     20  C   UNL     1       4.936   3.962  17.523  0.00  0.00    +0.000 A 
ATOM     21  C   UNL     1       5.411   4.776  18.568  0.00  0.00    +0.000 A 
ATOM     22  C   UNL     1       4.518   5.523  19.347  0.00  0.00    +0.000 A 
BRANCH  21  23
ATOM     23  N   UNL     1       6.854   4.844  18.835  0.00  0.00    +0.000 N 
ATOM     24  O   UNL     1       7.217   5.349  19.907  0.00  0.00    +0.000 OA
ATOM     25  O   UNL     1       7.622   4.403  17.971  0.00  0.00    +0.000 OA
ENDBRANCH  21  23
ENDBRANCH   2  17
TORSDOF 3
ENDMDL
MODEL 2
REMARK VINA RESULT:      -8.2      0.436      1.237
REMARK  Name = 
REMARK  3 active torsions:
REMARK  status: ('A' for Active; 'I' for Inactive)
REMARK    1  A    between atoms: C_2  and  C_16
REMARK    2  A    between atoms: C_7  and  C_8
REMARK    3  A    between atoms: C_20  and  N_21
REMARK                            x       y       z     vdW  Elec       q    Type
REMARK                         _______ _______ _______ _____ _____    ______ ____
ROOT
ATOM      1  O   UNL     1       1.646   5.590  20.383  0.00  0.00    +0.000 OA
ATOM      2  C   UNL     1       2.393   6.140  19.583  0.00  0.00    +0.000 C 
ATOM      3  N   UNL     1       2.448   7.491  19.315  0.00  0.00    +0.000 N 
ATOM      4  C   UNL     1       1.628   8.425  19.951  0.00  0.00    +0.000 A 
ATOM      5  C   UNL     1       1.369   8.375  21.312  0.00  0.00    +0.000 A 
ATOM      6  C   UNL     1       0.497   9.315  21.864  0.00  0.00    +0.000 A 
ATOM      7  C   UNL     1      -0.131  10.268  21.051  0.00  0.00    +0.000 A 
ATOM      8  C   UNL     1       0.239  10.241  19.704  0.00  0.00    +0.000 A 
ATOM      9  N   UNL     1       1.128   9.378  19.146  0.00  0.00    +0.000 NA
ATOM     10  H   UNL     1       2.725   7.778  18.386  0.00  0.00    +0.000 HD
ENDROOT
BRANCH   7  11
ATOM     11  C   UNL     1      -1.127  11.224  21.579  0.00  0.00    +0.000 A 
ATOM     12  C   UNL     1      -1.772  12.150  20.740  0.00  0.00    +0.000 A 
ATOM     13  C   UNL     1      -2.701  13.068  21.243  0.00  0.00    +0.000 A 
ATOM     14  C   UNL     1      -3.013  13.073  22.600  0.00  0.00    +0.000 A 
ATOM     15  C   UNL     1      -2.393  12.166  23.452  0.00  0.00    +0.000 A 
ATOM     16  C   UNL     1      -1.457  11.256  22.947  0.00  0.00    +0.000 A 
ENDBRANCH   7  11
BRANCH   2  17
ATOM     17  C   UNL     1       3.292   5.296  18.757  0.00  0.00    +0.000 A 
ATOM     18  C   UNL     1       2.761   4.421  17.802  0.00  0.00    +0.000 A 
ATOM     19  C   UNL     1       3.613   3.689  16.971  0.00  0.00    +0.000 A 
ATOM     20  C   UNL     1       4.999   3.823  17.097  0.00  0.00    +0.000 A 
ATOM     21  C   UNL     1       5.530   4.698  18.064  0.00  0.00    +0.000 A 
ATOM     22  C   UNL     1       4.679   5.441  18.891  0.00  0.00    +0.000 A 
BRANCH  21  23
ATOM     23  N   UNL     1       6.986   4.833  18.195  0.00  0.00    +0.000 N 
ATOM     24  O   UNL     1       7.668   4.738  17.164  0.00  0.00    +0.000 OA
ATOM     25  O   UNL     1       7.449   5.024  19.327  0.00  0.00    +0.000 OA
ENDBRANCH  21  23
ENDBRANCH   2  17
TORSDOF 3
ENDMDL
MODEL 3
REMARK VINA RESULT:      -8.1      1.734      2.152
REMARK  Name = 
REMARK  3 active torsions:
REMARK  status: ('A' for Active; 'I' for Inactive)
REMARK    1  A    between atoms: C_2  and  C_16
REMARK    2  A    between atoms: C_7  and  C_8
REMARK    3  A    between atoms: C_20  and  N_21
REMARK                            x       y       z     vdW  Elec       q    Type
REMARK                         _______ _______ _______ _____ _____    ______ ____
ROOT
ATOM      1  O   UNL     1       2.958   8.500  17.602  0.00  0.00    +0.000 OA
ATOM      2  C   UNL     1       2.872   7.487  18.284  0.00  0.00    +0.000 C 
ATOM      3  N   UNL     1       2.164   7.353  19.460  0.00  0.00    +0.000 N 
ATOM      4  C   UNL     1       1.434   8.397  20.029  0.00  0.00    +0.000 A 
ATOM      5  C   UNL     1       0.642   9.245  19.268  0.00  0.00    +0.000 A 
ATOM      6  C   UNL     1      -0.017  10.298  19.906  0.00  0.00    +0.000 A 
ATOM      7  C   UNL     1       0.148  10.515  21.280  0.00  0.00    +0.000 A 
ATOM      8  C   UNL     1       0.938   9.572  21.942  0.00  0.00    +0.000 A 
ATOM      9  N   UNL     1       1.546   8.503  21.364  0.00  0.00    +0.000 NA
ATOM     10  H   UNL     1       2.505   6.692  20.145  0.00  0.00    +0.000 HD
ENDROOT
BRANCH   7  11
ATOM     11  C   UNL     1      -0.461  11.667  21.976  0.00  0.00    +0.000 A 
ATOM     12  C   UNL     1       0.020  12.976  21.789  0.00  0.00    +0.000 A 
ATOM     13  C   UNL     1      -0.545  14.065  22.462  0.00  0.00    +0.000 A 
ATOM     14  C   UNL     1      -1.613  13.869  23.333  0.00  0.00    +0.000 A 
ATOM     15  C   UNL     1      -2.110  12.587  23.535  0.00  0.00    +0.000 A 
ATOM     16  C   UNL     1      -1.538  11.499  22.868  0.00  0.00    +0.000 A 
ENDBRANCH   7  11
BRANCH   2  17
ATOM     17  C   UNL     1       3.644   6.288  17.874  0.00  0.00    +0.000 A 
ATOM     18  C   UNL     1       3.010   5.045  17.755  0.00  0.00    +0.000 A 
ATOM     19  C   UNL     1       3.722   3.936  17.291  0.00  0.00    +0.000 A 
ATOM     20  C   UNL     1       5.072   4.063  16.950  0.00  0.00    +0.000 A 
ATOM     21  C   UNL     1       5.709   5.312  17.077  0.00  0.00    +0.000 A 
ATOM     22  C   UNL     1       4.996   6.428  17.533  0.00  0.00    +0.000 A 
BRANCH  21  23
ATOM     23  N   UNL     1       7.128   5.440  16.722  0.00  0.00    +0.000 N 
ATOM     24  O   UNL     1       7.832   4.422  16.788  0.00  0.00    +0.000 OA
ATOM     25  O   UNL     1       7.540   6.558  16.387  0.00  0.00    +0.000 OA
ENDBRANCH  21  23
ENDBRANCH   2  17
TORSDOF 3
ENDMDL
MODEL 4
REMARK VINA RESULT:      -8.0      1.724      1.982
REMARK  Name = 
REMARK  3 active torsions:
REMARK  status: ('A' for Active; 'I' for Inactive)
REMARK    1  A    between atoms: C_2  and  C_16
REMARK    2  A    between atoms: C_7  and  C_8
REMARK    3  A    between atoms: C_20  and  N_21
REMARK                            x       y       z     vdW  Elec       q    Type
REMARK                         _______ _______ _______ _____ _____    ______ ____
ROOT
ATOM      1  O   UNL     1       2.893   8.491  17.593  0.00  0.00    +0.000 OA
ATOM      2  C   UNL     1       2.841   7.485  18.290  0.00  0.00    +0.000 C 
ATOM      3  N   UNL     1       2.163   7.355  19.484  0.00  0.00    +0.000 N 
ATOM      4  C   UNL     1       1.429   8.395  20.056  0.00  0.00    +0.000 A 
ATOM      5  C   UNL     1       0.606   9.219  19.305  0.00  0.00    +0.000 A 
ATOM      6  C   UNL     1      -0.056  10.269  19.944  0.00  0.00    +0.000 A 
ATOM      7  C   UNL     1       0.138  10.507  21.311  0.00  0.00    +0.000 A 
ATOM      8  C   UNL     1       0.960   9.586  21.966  0.00  0.00    +0.000 A 
ATOM      9  N   UNL     1       1.571   8.520  21.387  0.00  0.00    +0.000 NA
ATOM     10  H   UNL     1       2.532   6.709  20.169  0.00  0.00    +0.000 HD
ENDROOT
BRANCH   7  11
ATOM     11  C   UNL     1      -0.473  11.658  22.008  0.00  0.00    +0.000 A 
ATOM     12  C   UNL     1      -1.565  11.494  22.879  0.00  0.00    +0.000 A 
ATOM     13  C   UNL     1      -2.155  12.586  23.524  0.00  0.00    +0.000 A 
ATOM     14  C   UNL     1      -1.658  13.870  23.319  0.00  0.00    +0.000 A 
ATOM     15  C   UNL     1      -0.578  14.061  22.466  0.00  0.00    +0.000 A 
ATOM     16  C   UNL     1       0.004  12.968  21.815  0.00  0.00    +0.000 A 
ENDBRANCH   7  11
BRANCH   2  17
ATOM     17  C   UNL     1       3.622   6.294  17.876  0.00  0.00    +0.000 A 
ATOM     18  C   UNL     1       2.994   5.051  17.730  0.00  0.00    +0.000 A 
ATOM     19  C   UNL     1       3.716   3.950  17.262  0.00  0.00    +0.000 A 
ATOM     20  C   UNL     1       5.071   4.085  16.946  0.00  0.00    +0.000 A 
ATOM     21  C   UNL     1       5.703   5.334  17.101  0.00  0.00    +0.000 A 
ATOM     22  C   UNL     1       4.979   6.442  17.560  0.00  0.00    +0.000 A 
BRANCH  21  23
ATOM     23  N   UNL     1       7.127   5.470  16.771  0.00  0.00    +0.000 N 
ATOM     24  O   UNL     1       7.536   6.593  16.442  0.00  0.00    +0.000 OA
ATOM     25  O   UNL     1       7.833   4.456  16.830  0.00  0.00    +0.000 OA
ENDBRANCH  21  23
ENDBRANCH   2  17
TORSDOF 3
ENDMDL
MODEL 5
REMARK VINA RESULT:      -8.0      1.383      1.835
REMARK  Name = 
REMARK  3 active torsions:
REMARK  status: ('A' for Active; 'I' for Inactive)
REMARK    1  A    between atoms: C_2  and  C_16
REMARK    2  A    between atoms: C_7  and  C_8
REMARK    3  A    between atoms: C_20  and  N_21
REMARK                            x       y       z     vdW  Elec       q    Type
REMARK                         _______ _______ _______ _____ _____    ______ ____
ROOT
ATOM      1  O   UNL     1       1.847   5.550  19.629  0.00  0.00    +0.000 OA
ATOM      2  C   UNL     1       2.622   6.174  18.914  0.00  0.00    +0.000 C 
ATOM      3  N   UNL     1       2.688   7.545  18.787  0.00  0.00    +0.000 N 
ATOM      4  C   UNL     1       1.850   8.414  19.487  0.00  0.00    +0.000 A 
ATOM      5  C   UNL     1       1.546   8.227  20.827  0.00  0.00    +0.000 A 
ATOM      6  C   UNL     1       0.657   9.112  21.442  0.00  0.00    +0.000 A 
ATOM      7  C   UNL     1       0.058  10.145  20.710  0.00  0.00    +0.000 A 
ATOM      8  C   UNL     1       0.474  10.253  19.380  0.00  0.00    +0.000 A 
ATOM      9  N   UNL     1       1.379   9.446  18.767  0.00  0.00    +0.000 NA
ATOM     10  H   UNL     1       2.997   7.923  17.902  0.00  0.00    +0.000 HD
ENDROOT
BRANCH   7  11
ATOM     11  C   UNL     1      -0.952  11.048  21.299  0.00  0.00    +0.000 A 
ATOM     12  C   UNL     1      -1.684  11.949  20.505  0.00  0.00    +0.000 A 
ATOM     13  C   UNL     1      -2.628  12.817  21.065  0.00  0.00    +0.000 A 
ATOM     14  C   UNL     1      -2.868  12.796  22.436  0.00  0.00    +0.000 A 
ATOM     15  C   UNL     1      -2.161  11.913  23.245  0.00  0.00    +0.000 A 
ATOM     16  C   UNL     1      -1.211  11.053  22.683  0.00  0.00    +0.000 A 
ENDBRANCH   7  11
BRANCH   2  17
ATOM     17  C   UNL     1       3.546   5.414  18.037  0.00  0.00    +0.000 A 
ATOM     18  C   UNL     1       3.202   4.133  17.587  0.00  0.00    +0.000 A 
ATOM     19  C   UNL     1       4.038   3.454  16.697  0.00  0.00    +0.000 A 
ATOM     20  C   UNL     1       5.225   4.049  16.259  0.00  0.00    +0.000 A 
ATOM     21  C   UNL     1       5.573   5.334  16.719  0.00  0.00    +0.000 A 
ATOM     22  C   UNL     1       4.732   6.022  17.603  0.00  0.00    +0.000 A 
BRANCH  21  23
ATOM     23  N   UNL     1       6.822   5.954  16.259  0.00  0.00    +0.000 N 
ATOM     24  O   UNL     1       7.430   5.402  15.331  0.00  0.00    +0.000 OA
ATOM     25  O   UNL     1       7.200   6.984  16.832  0.00  0.00    +0.000 OA
ENDBRANCH  21  23
ENDBRANCH   2  17
TORSDOF 3
ENDMDL
MODEL 6
REMARK VINA RESULT:      -8.0      1.415      1.473
REMARK  Name = 
REMARK  3 active torsions:
REMARK  status: ('A' for Active; 'I' for Inactive)
REMARK    1  A    between atoms: C_2  and  C_16
REMARK    2  A    between atoms: C_7  and  C_8
REMARK    3  A    between atoms: C_20  and  N_21
REMARK                            x       y       z     vdW  Elec       q    Type
REMARK                         _______ _______ _______ _____ _____    ______ ____
ROOT
ATOM      1  O   UNL     1       1.798   5.497  19.499  0.00  0.00    +0.000 OA
ATOM      2  C   UNL     1       2.624   6.119  18.843  0.00  0.00    +0.000 C 
ATOM      3  N   UNL     1       2.742   7.490  18.770  0.00  0.00    +0.000 N 
ATOM      4  C   UNL     1       1.902   8.362  19.464  0.00  0.00    +0.000 A 
ATOM      5  C   UNL     1       1.531   8.139  20.781  0.00  0.00    +0.000 A 
ATOM      6  C   UNL     1       0.646   9.031  21.389  0.00  0.00    +0.000 A 
ATOM      7  C   UNL     1       0.115  10.110  20.671  0.00  0.00    +0.000 A 
ATOM      8  C   UNL     1       0.594  10.251  19.366  0.00  0.00    +0.000 A 
ATOM      9  N   UNL     1       1.499   9.435  18.763  0.00  0.00    +0.000 NA
ATOM     10  H   UNL     1       3.103   7.889  17.914  0.00  0.00    +0.000 HD
ENDROOT
BRANCH   7  11
ATOM     11  C   UNL     1      -0.891  11.026  21.248  0.00  0.00    +0.000 A 
ATOM     12  C   UNL     1      -1.126  11.078  22.634  0.00  0.00    +0.000 A 
ATOM     13  C   UNL     1      -2.091  11.932  23.179  0.00  0.00    +0.000 A 
ATOM     14  C   UNL     1      -2.837  12.763  22.348  0.00  0.00    +0.000 A 
ATOM     15  C   UNL     1      -2.623  12.735  20.975  0.00  0.00    +0.000 A 
ATOM     16  C   UNL     1      -1.664  11.873  20.432  0.00  0.00    +0.000 A 
ENDBRANCH   7  11
BRANCH   2  17
ATOM     17  C   UNL     1       3.562   5.359  17.980  0.00  0.00    +0.000 A 
ATOM     18  C   UNL     1       3.235   4.069  17.544  0.00  0.00    +0.000 A 
ATOM     19  C   UNL     1       4.083   3.389  16.666  0.00  0.00    +0.000 A 
ATOM     20  C   UNL     1       5.265   3.992  16.227  0.00  0.00    +0.000 A 
ATOM     21  C   UNL     1       5.595   5.286  16.673  0.00  0.00    +0.000 A 
ATOM     22  C   UNL     1       4.743   5.975  17.545  0.00  0.00    +0.000 A 
BRANCH  21  23
ATOM     23  N   UNL     1       6.840   5.915  16.212  0.00  0.00    +0.000 N 
ATOM     24  O   UNL     1       7.203   6.955  16.780  0.00  0.00    +0.000 OA
ATOM     25  O   UNL     1       7.447   5.376  15.277  0.00  0.00    +0.000 OA
ENDBRANCH  21  23
ENDBRANCH   2  17
TORSDOF 3
ENDMDL
MODEL 7
REMARK VINA RESULT:      -7.8      1.687      1.825
REMARK  Name = 
REMARK  3 active torsions:
REMARK  status: ('A' for Active; 'I' for Inactive)
REMARK    1  A    between atoms: C_2  and  C_16
REMARK    2  A    between atoms: C_7  and  C_8
REMARK    3  A    between atoms: C_20  and  N_21
REMARK                            x       y       z     vdW  Elec       q    Type
REMARK                         _______ _______ _______ _____ _____    ______ ____
ROOT
ATOM      1  O   UNL     1       1.382   5.917  20.813  0.00  0.00    +0.000 OA
ATOM      2  C   UNL     1       2.082   6.410  19.937  0.00  0.00    +0.000 C 
ATOM      3  N   UNL     1       2.111   7.738  19.568  0.00  0.00    +0.000 N 
ATOM      4  C   UNL     1       1.316   8.711  20.174  0.00  0.00    +0.000 A 
ATOM      5  C   UNL     1       1.127   8.761  21.547  0.00  0.00    +0.000 A 
ATOM      6  C   UNL     1       0.275   9.735  22.071  0.00  0.00    +0.000 A 
ATOM      7  C   UNL     1      -0.403  10.621  21.224  0.00  0.00    +0.000 A 
ATOM      8  C   UNL     1      -0.101  10.496  19.866  0.00  0.00    +0.000 A 
ATOM      9  N   UNL     1       0.766   9.599  19.327  0.00  0.00    +0.000 NA
ATOM     10  H   UNL     1       2.338   7.957  18.607  0.00  0.00    +0.000 HD
ENDROOT
BRANCH   7  11
ATOM     11  C   UNL     1      -1.379  11.608  21.730  0.00  0.00    +0.000 A 
ATOM     12  C   UNL     1      -1.794  11.607  23.075  0.00  0.00    +0.000 A 
ATOM     13  C   UNL     1      -2.732  12.530  23.550  0.00  0.00    +0.000 A 
ATOM     14  C   UNL     1      -3.270  13.484  22.691  0.00  0.00    +0.000 A 
ATOM     15  C   UNL     1      -2.875  13.510  21.358  0.00  0.00    +0.000 A 
ATOM     16  C   UNL     1      -1.945  12.580  20.883  0.00  0.00    +0.000 A 
ENDBRANCH   7  11
BRANCH   2  17
ATOM     17  C   UNL     1       2.946   5.512  19.131  0.00  0.00    +0.000 A 
ATOM     18  C   UNL     1       3.597   5.995  17.989  0.00  0.00    +0.000 A 
ATOM     19  C   UNL     1       4.473   5.170  17.279  0.00  0.00    +0.000 A 
ATOM     20  C   UNL     1       4.696   3.857  17.703  0.00  0.00    +0.000 A 
ATOM     21  C   UNL     1       4.035   3.371  18.847  0.00  0.00    +0.000 A 
ATOM     22  C   UNL     1       3.164   4.199  19.567  0.00  0.00    +0.000 A 
BRANCH  21  23
ATOM     23  N   UNL     1       4.269   1.990  19.287  0.00  0.00    +0.000 N 
ATOM     24  O   UNL     1       3.771   1.079  18.611  0.00  0.00    +0.000 OA
ATOM     25  O   UNL     1       4.941   1.817  20.312  0.00  0.00    +0.000 OA
ENDBRANCH  21  23
ENDBRANCH   2  17
TORSDOF 3
ENDMDL
MODEL 8
REMARK VINA RESULT:      -7.7      3.485      9.577
REMARK  Name = 
REMARK  3 active torsions:
REMARK  status: ('A' for Active; 'I' for Inactive)
REMARK    1  A    between atoms: C_2  and  C_16
REMARK    2  A    between atoms: C_7  and  C_8
REMARK    3  A    between atoms: C_20  and  N_21
REMARK                            x       y       z     vdW  Elec       q    Type
REMARK                         _______ _______ _______ _____ _____    ______ ____
ROOT
ATOM      1  O   UNL     1       1.307  10.243  22.284  0.00  0.00    +0.000 OA
ATOM      2  C   UNL     1       0.460  10.658  21.503  0.00  0.00    +0.000 C 
ATOM      3  N   UNL     1       0.256  10.219  20.212  0.00  0.00    +0.000 N 
ATOM      4  C   UNL     1       1.019   9.209  19.624  0.00  0.00    +0.000 A 
ATOM      5  C   UNL     1       1.369   8.055  20.308  0.00  0.00    +0.000 A 
ATOM      6  C   UNL     1       2.179   7.115  19.667  0.00  0.00    +0.000 A 
ATOM      7  C   UNL     1       2.657   7.352  18.372  0.00  0.00    +0.000 A 
ATOM      8  C   UNL     1       2.204   8.531  17.774  0.00  0.00    +0.000 A 
ATOM      9  N   UNL     1       1.370   9.438  18.348  0.00  0.00    +0.000 NA
ATOM     10  H   UNL     1      -0.108  10.880  19.539  0.00  0.00    +0.000 HD
ENDROOT
BRANCH   7  11
ATOM     11  C   UNL     1       3.586   6.425  17.691  0.00  0.00    +0.000 A 
ATOM     12  C   UNL     1       4.686   6.899  16.953  0.00  0.00    +0.000 A 
ATOM     13  C   UNL     1       5.554   6.023  16.293  0.00  0.00    +0.000 A 
ATOM     14  C   UNL     1       5.347   4.649  16.365  0.00  0.00    +0.000 A 
ATOM     15  C   UNL     1       4.270   4.152  17.090  0.00  0.00    +0.000 A 
ATOM     16  C   UNL     1       3.397   5.031  17.741  0.00  0.00    +0.000 A 
ENDBRANCH   7  11
BRANCH   2  17
ATOM     17  C   UNL     1      -0.404  11.787  21.929  0.00  0.00    +0.000 A 
ATOM     18  C   UNL     1       0.040  13.108  21.791  0.00  0.00    +0.000 A 
ATOM     19  C   UNL     1      -0.807  14.171  22.117  0.00  0.00    +0.000 A 
ATOM     20  C   UNL     1      -2.098  13.916  22.589  0.00  0.00    +0.000 A 
ATOM     21  C   UNL     1      -2.540  12.587  22.734  0.00  0.00    +0.000 A 
ATOM     22  C   UNL     1      -1.697  11.520  22.398  0.00  0.00    +0.000 A 
BRANCH  21  23
ATOM     23  N   UNL     1      -3.895  12.324  23.233  0.00  0.00    +0.000 N 
ATOM     24  O   UNL     1      -4.832  12.408  22.425  0.00  0.00    +0.000 OA
ATOM     25  O   UNL     1      -4.025  12.046  24.432  0.00  0.00    +0.000 OA
ENDBRANCH  21  23
ENDBRANCH   2  17
TORSDOF 3
ENDMDL
MODEL 9
REMARK VINA RESULT:      -7.6      2.285      2.818
REMARK  Name = 
REMARK  3 active torsions:
REMARK  status: ('A' for Active; 'I' for Inactive)
REMARK    1  A    between atoms: C_2  and  C_16
REMARK    2  A    between atoms: C_7  and  C_8
REMARK    3  A    between atoms: C_20  and  N_21
REMARK                            x       y       z     vdW  Elec       q    Type
REMARK                         _______ _______ _______ _____ _____    ______ ____
ROOT
ATOM      1  O   UNL     1       2.389   9.133  17.570  0.00  0.00    +0.000 OA
ATOM      2  C   UNL     1       2.407   8.106  18.237  0.00  0.00    +0.000 C 
ATOM      3  N   UNL     1       1.790   7.915  19.455  0.00  0.00    +0.000 N 
ATOM      4  C   UNL     1       1.043   8.907  20.091  0.00  0.00    +0.000 A 
ATOM      5  C   UNL     1       0.155   9.719  19.402  0.00  0.00    +0.000 A 
ATOM      6  C   UNL     1      -0.517  10.723  20.102  0.00  0.00    +0.000 A 
ATOM      7  C   UNL     1      -0.272  10.928  21.466  0.00  0.00    +0.000 A 
ATOM      8  C   UNL     1       0.614  10.023  22.056  0.00  0.00    +0.000 A 
ATOM      9  N   UNL     1       1.240   8.999  21.417  0.00  0.00    +0.000 NA
ATOM     10  H   UNL     1       2.214   7.264  20.103  0.00  0.00    +0.000 HD
ENDROOT
BRANCH   7  11
ATOM     11  C   UNL     1      -0.895  12.033  22.223  0.00  0.00    +0.000 A 
ATOM     12  C   UNL     1      -0.324  13.319  22.250  0.00  0.00    +0.000 A 
ATOM     13  C   UNL     1      -0.904  14.360  22.982  0.00  0.00    +0.000 A 
ATOM     14  C   UNL     1      -2.078  14.141  23.698  0.00  0.00    +0.000 A 
ATOM     15  C   UNL     1      -2.666  12.882  23.686  0.00  0.00    +0.000 A 
ATOM     16  C   UNL     1      -2.078  11.840  22.961  0.00  0.00    +0.000 A 
ENDBRANCH   7  11
BRANCH   2  17
ATOM     17  C   UNL     1       3.215   6.959  17.753  0.00  0.00    +0.000 A 
ATOM     18  C   UNL     1       4.470   7.174  17.170  0.00  0.00    +0.000 A 
ATOM     19  C   UNL     1       5.262   6.088  16.789  0.00  0.00    +0.000 A 
ATOM     20  C   UNL     1       4.800   4.783  16.983  0.00  0.00    +0.000 A 
ATOM     21  C   UNL     1       3.535   4.570  17.564  0.00  0.00    +0.000 A 
ATOM     22  C   UNL     1       2.742   5.656  17.955  0.00  0.00    +0.000 A 
BRANCH  21  23
ATOM     23  N   UNL     1       3.052   3.197  17.763  0.00  0.00    +0.000 N 
ATOM     24  O   UNL     1       1.885   2.945  17.432  0.00  0.00    +0.000 OA
ATOM     25  O   UNL     1       3.834   2.376  18.258  0.00  0.00    +0.000 OA
ENDBRANCH  21  23
ENDBRANCH   2  17
TORSDOF 3
ENDMDL
