MODEL 1
REMARK VINA RESULT:      -4.7      0.000      0.000
REMARK  Name = 
REMARK  1 active torsions:
REMARK  status: ('A' for Active; 'I' for Inactive)
REMARK    1  A    between atoms: C_1  and  N_2
REMARK                            x       y       z     vdW  Elec       q    Type
REMARK                         _______ _______ _______ _____ _____    ______ ____
ROOT
ATOM      1  C   UNL     1       3.733   3.276  17.635  0.00  0.00    +0.000 C 
ATOM      2  N   UNL     1       2.962   3.183  18.870  0.00  0.00    +0.000 N 
ATOM      3  C   UNL     1       1.660   3.662  18.955  0.00  0.00    +0.000 A 
ATOM      4  C   UNL     1       0.954   3.646  20.095  0.00  0.00    +0.000 A 
ATOM      5  C   UNL     1       1.558   3.111  21.298  0.00  0.00    +0.000 A 
ATOM      6  C   UNL     1       2.809   2.624  21.302  0.00  0.00    +0.000 A 
ATOM      7  C   UNL     1       3.577   2.661  20.011  0.00  0.00    +0.000 A 
ATOM      8  N   UNL     1       4.797   2.208  19.987  0.00  0.00    +0.000 NA
ATOM      9  H   UNL     1       5.074   1.869  20.912  0.00  0.00    +0.000 HD
ENDROOT
TORSDOF 0
ENDMDL
MODEL 2
REMARK VINA RESULT:      -4.5      0.826      2.365
REMARK  Name = 
REMARK  1 active torsions:
REMARK  status: ('A' for Active; 'I' for Inactive)
REMARK    1  A    between atoms: C_1  and  N_2
REMARK                            x       y       z     vdW  Elec       q    Type
REMARK                         _______ _______ _______ _____ _____    ______ ____
ROOT
ATOM      1  C   UNL     1       3.980   3.195  17.750  0.00  0.00    +0.000 C 
ATOM      2  N   UNL     1       3.093   3.205  18.908  0.00  0.00    +0.000 N 
ATOM      3  C   UNL     1       3.523   2.778  20.159  0.00  0.00    +0.000 A 
ATOM      4  C   UNL     1       2.709   2.718  21.225  0.00  0.00    +0.000 A 
ATOM      5  C   UNL     1       1.322   3.111  21.083  0.00  0.00    +0.000 A 
ATOM      6  C   UNL     1       0.827   3.538  19.911  0.00  0.00    +0.000 A 
ATOM      7  C   UNL     1       1.761   3.589  18.735  0.00  0.00    +0.000 A 
ATOM      8  N   UNL     1       1.306   3.988  17.582  0.00  0.00    +0.000 NA
ATOM      9  H   UNL     1       0.313   4.225  17.649  0.00  0.00    +0.000 HD
ENDROOT
TORSDOF 0
ENDMDL
MODEL 3
REMARK VINA RESULT:      -4.5      0.765      2.595
REMARK  Name = 
REMARK  1 active torsions:
REMARK  status: ('A' for Active; 'I' for Inactive)
REMARK    1  A    between atoms: C_1  and  N_2
REMARK                            x       y       z     vdW  Elec       q    Type
REMARK                         _______ _______ _______ _____ _____    ______ ____
ROOT
ATOM      1  C   UNL     1       2.600   2.731  21.463  0.00  0.00    +0.000 C 
ATOM      2  N   UNL     1       2.631   3.008  20.031  0.00  0.00    +0.000 N 
ATOM      3  C   UNL     1       1.541   3.568  19.374  0.00  0.00    +0.000 A 
ATOM      4  C   UNL     1       1.521   3.774  18.048  0.00  0.00    +0.000 A 
ATOM      5  C   UNL     1       2.674   3.402  17.254  0.00  0.00    +0.000 A 
ATOM      6  C   UNL     1       3.769   2.859  17.810  0.00  0.00    +0.000 A 
ATOM      7  C   UNL     1       3.759   2.636  19.296  0.00  0.00    +0.000 A 
ATOM      8  N   UNL     1       4.801   2.100  19.862  0.00  0.00    +0.000 NA
ATOM      9  H   UNL     1       5.524   1.896  19.167  0.00  0.00    +0.000 HD
ENDROOT
TORSDOF 0
ENDMDL
MODEL 4
REMARK VINA RESULT:      -4.5      5.522      5.817
REMARK  Name = 
REMARK  1 active torsions:
REMARK  status: ('A' for Active; 'I' for Inactive)
REMARK    1  A    between atoms: C_1  and  N_2
REMARK                            x       y       z     vdW  Elec       q    Type
REMARK                         _______ _______ _______ _____ _____    ______ ____
ROOT
ATOM      1  C   UNL     1       7.845   6.664  18.564  0.00  0.00    +0.000 C 
ATOM      2  N   UNL     1       7.017   6.106  17.501  0.00  0.00    +0.000 N 
ATOM      3  C   UNL     1       5.984   6.836  16.923  0.00  0.00    +0.000 A 
ATOM      4  C   UNL     1       5.168   6.323  15.989  0.00  0.00    +0.000 A 
ATOM      5  C   UNL     1       5.358   4.955  15.553  0.00  0.00    +0.000 A 
ATOM      6  C   UNL     1       6.334   4.183  16.057  0.00  0.00    +0.000 A 
ATOM      7  C   UNL     1       7.228   4.784  17.105  0.00  0.00    +0.000 A 
ATOM      8  N   UNL     1       8.175   4.055  17.621  0.00  0.00    +0.000 NA
ATOM      9  H   UNL     1       8.174   3.118  17.210  0.00  0.00    +0.000 HD
ENDROOT
TORSDOF 0
ENDMDL
MODEL 5
REMARK VINA RESULT:      -4.5      1.847      2.156
REMARK  Name = 
REMARK  1 active torsions:
REMARK  status: ('A' for Active; 'I' for Inactive)
REMARK    1  A    between atoms: C_1  and  N_2
REMARK                            x       y       z     vdW  Elec       q    Type
REMARK                         _______ _______ _______ _____ _____    ______ ____
ROOT
ATOM      1  C   UNL     1       5.274   5.032  19.071  0.00  0.00    +0.000 C 
ATOM      2  N   UNL     1       4.096   4.239  18.733  0.00  0.00    +0.000 N 
ATOM      3  C   UNL     1       3.010   4.795  18.068  0.00  0.00    +0.000 A 
ATOM      4  C   UNL     1       1.891   4.105  17.802  0.00  0.00    +0.000 A 
ATOM      5  C   UNL     1       1.794   2.721  18.219  0.00  0.00    +0.000 A 
ATOM      6  C   UNL     1       2.799   2.106  18.863  0.00  0.00    +0.000 A 
ATOM      7  C   UNL     1       4.037   2.908  19.151  0.00  0.00    +0.000 A 
ATOM      8  N   UNL     1       5.023   2.342  19.786  0.00  0.00    +0.000 NA
ATOM      9  H   UNL     1       4.797   1.370  20.009  0.00  0.00    +0.000 HD
ENDROOT
TORSDOF 0
ENDMDL
MODEL 6
REMARK VINA RESULT:      -4.4      1.223      1.223
REMARK  Name = 
REMARK  1 active torsions:
REMARK  status: ('A' for Active; 'I' for Inactive)
REMARK    1  A    between atoms: C_1  and  N_2
REMARK                            x       y       z     vdW  Elec       q    Type
REMARK                         _______ _______ _______ _____ _____    ______ ____
ROOT
ATOM      1  C   UNL     1       4.856   4.333  18.465  0.00  0.00    +0.000 C 
ATOM      2  N   UNL     1       3.833   4.043  19.463  0.00  0.00    +0.000 N 
ATOM      3  C   UNL     1       2.852   4.972  19.792  0.00  0.00    +0.000 A 
ATOM      4  C   UNL     1       1.939   4.754  20.751  0.00  0.00    +0.000 A 
ATOM      5  C   UNL     1       1.962   3.504  21.484  0.00  0.00    +0.000 A 
ATOM      6  C   UNL     1       2.873   2.552  21.226  0.00  0.00    +0.000 A 
ATOM      7  C   UNL     1       3.885   2.828  20.150  0.00  0.00    +0.000 A 
ATOM      8  N   UNL     1       4.789   1.929  19.886  0.00  0.00    +0.000 NA
ATOM      9  H   UNL     1       4.670   1.110  20.489  0.00  0.00    +0.000 HD
ENDROOT
TORSDOF 0
ENDMDL
MODEL 7
REMARK VINA RESULT:      -4.4      1.272      2.276
REMARK  Name = 
REMARK  1 active torsions:
REMARK  status: ('A' for Active; 'I' for Inactive)
REMARK    1  A    between atoms: C_1  and  N_2
REMARK                            x       y       z     vdW  Elec       q    Type
REMARK                         _______ _______ _______ _____ _____    ______ ____
ROOT
ATOM      1  C   UNL     1       4.775   1.983  20.526  0.00  0.00    +0.000 C 
ATOM      2  N   UNL     1       3.407   2.359  20.186  0.00  0.00    +0.000 N 
ATOM      3  C   UNL     1       2.533   2.868  21.139  0.00  0.00    +0.000 A 
ATOM      4  C   UNL     1       1.252   3.161  20.865  0.00  0.00    +0.000 A 
ATOM      5  C   UNL     1       0.744   2.945  19.526  0.00  0.00    +0.000 A 
ATOM      6  C   UNL     1       1.523   2.461  18.546  0.00  0.00    +0.000 A 
ATOM      7  C   UNL     1       2.951   2.136  18.885  0.00  0.00    +0.000 A 
ATOM      8  N   UNL     1       3.727   1.654  17.957  0.00  0.00    +0.000 NA
ATOM      9  H   UNL     1       3.218   1.560  17.074  0.00  0.00    +0.000 HD
ENDROOT
TORSDOF 0
ENDMDL
MODEL 8
REMARK VINA RESULT:      -4.3      1.676      1.908
REMARK  Name = 
REMARK  1 active torsions:
REMARK  status: ('A' for Active; 'I' for Inactive)
REMARK    1  A    between atoms: C_1  and  N_2
REMARK                            x       y       z     vdW  Elec       q    Type
REMARK                         _______ _______ _______ _____ _____    ______ ____
ROOT
ATOM      1  C   UNL     1       3.977   4.046  17.449  0.00  0.00    +0.000 C 
ATOM      2  N   UNL     1       2.938   4.015  18.473  0.00  0.00    +0.000 N 
ATOM      3  C   UNL     1       2.736   5.083  19.339  0.00  0.00    +0.000 A 
ATOM      4  C   UNL     1       1.830   5.054  20.329  0.00  0.00    +0.000 A 
ATOM      5  C   UNL     1       1.021   3.867  20.517  0.00  0.00    +0.000 A 
ATOM      6  C   UNL     1       1.150   2.793  19.722  0.00  0.00    +0.000 A 
ATOM      7  C   UNL     1       2.176   2.854  18.626  0.00  0.00    +0.000 A 
ATOM      8  N   UNL     1       2.332   1.823  17.847  0.00  0.00    +0.000 NA
ATOM      9  H   UNL     1       1.690   1.071  18.111  0.00  0.00    +0.000 HD
ENDROOT
TORSDOF 0
ENDMDL
MODEL 9
REMARK VINA RESULT:      -4.3      2.229      2.712
REMARK  Name = 
REMARK  1 active torsions:
REMARK  status: ('A' for Active; 'I' for Inactive)
REMARK    1  A    between atoms: C_1  and  N_2
REMARK                            x       y       z     vdW  Elec       q    Type
REMARK                         _______ _______ _______ _____ _____    ______ ____
ROOT
ATOM      1  C   UNL     1       3.027   6.325  18.190  0.00  0.00    +0.000 C 
ATOM      2  N   UNL     1       2.331   5.161  18.727  0.00  0.00    +0.000 N 
ATOM      3  C   UNL     1       1.982   4.084  17.920  0.00  0.00    +0.000 A 
ATOM      4  C   UNL     1       1.286   3.031  18.377  0.00  0.00    +0.000 A 
ATOM      5  C   UNL     1       0.874   2.999  19.765  0.00  0.00    +0.000 A 
ATOM      6  C   UNL     1       1.174   3.996  20.613  0.00  0.00    +0.000 A 
ATOM      7  C   UNL     1       1.949   5.164  20.071  0.00  0.00    +0.000 A 
ATOM      8  N   UNL     1       2.243   6.152  20.866  0.00  0.00    +0.000 NA
ATOM      9  H   UNL     1       1.881   5.976  21.807  0.00  0.00    +0.000 HD
ENDROOT
TORSDOF 0
ENDMDL
