MODEL 1
REMARK VINA RESULT:      -8.3      0.000      0.000
REMARK  Name = 
REMARK  10 active torsions:
REMARK  status: ('A' for Active; 'I' for Inactive)
REMARK    1  A    between atoms: C_1  and  O_2
REMARK    2  A    between atoms: O_2  and  C_3
REMARK    3  A    between atoms: C_3  and  C_4
REMARK    4  A    between atoms: C_4  and  N_5
REMARK    5  A    between atoms: C_8  and  C_9
REMARK    6  A    between atoms: C_9  and  N_10
REMARK    7  A    between atoms: C_11  and  C_13
REMARK    8  A    between atoms: C_19  and  C_20
REMARK    9  A    between atoms: C_25  and  O_26
REMARK   10  A    between atoms: O_26  and  C_27
REMARK                            x       y       z     vdW  Elec       q    Type
REMARK                         _______ _______ _______ _____ _____    ______ ____
ROOT
ATOM      1  C   UNL     1       2.284   7.447  19.149  0.00  0.00    +0.000 A 
ATOM      2  N   UNL     1       1.863   7.212  20.411  0.00  0.00    +0.000 NA
ATOM      3  N   UNL     1       2.365   5.993  20.692  0.00  0.00    +0.000 N 
ATOM      4  C   UNL     1       3.133   5.455  19.697  0.00  0.00    +0.000 A 
ATOM      5  C   UNL     1       3.882   4.277  19.622  0.00  0.00    +0.000 A 
ATOM      6  C   UNL     1       4.649   4.075  18.457  0.00  0.00    +0.000 A 
ATOM      7  C   UNL     1       4.635   4.963  17.366  0.00  0.00    +0.000 A 
ATOM      8  C   UNL     1       3.765   6.076  17.465  0.00  0.00    +0.000 A 
ATOM      9  C   UNL     1       3.064   6.359  18.655  0.00  0.00    +0.000 A 
ATOM     10  H   UNL     1       2.179   5.598  21.607  0.00  0.00    +0.000 HD
ENDROOT
BRANCH   7  11
ATOM     11  C   UNL     1       5.562   4.844  16.197  0.00  0.00    +0.000 A 
ATOM     12  C   UNL     1       5.079   4.275  14.995  0.00  0.00    +0.000 A 
ATOM     13  C   UNL     1       5.869   4.166  13.855  0.00  0.00    +0.000 A 
ATOM     14  C   UNL     1       7.155   4.646  13.917  0.00  0.00    +0.000 A 
ATOM     15  N   UNL     1       7.682   5.201  15.023  0.00  0.00    +0.000 NA
ATOM     16  C   UNL     1       6.894   5.297  16.131  0.00  0.00    +0.000 A 
BRANCH  16  17
ATOM     17  O   UNL     1       7.460   5.885  17.245  0.00  0.00    +0.000 OA
ATOM     18  C   UNL     1       7.344   7.307  17.262  0.00  0.00    +0.000 C 
ENDBRANCH  16  17
ENDBRANCH   7  11
BRANCH   1  20
ATOM     19  N   UNL     1       1.516   9.707  19.283  0.00  0.00    +0.000 N 
ATOM     20  C   UNL     1       2.012   8.721  18.457  0.00  0.00    +0.000 C 
ATOM     21  O   UNL     1       2.232   8.891  17.260  0.00  0.00    +0.000 OA
ATOM     22  H   UNL     1       1.398   9.447  20.259  0.00  0.00    +0.000 HD
BRANCH  19  23
ATOM     23  C   UNL     1       1.227  11.051  18.829  0.00  0.00    +0.000 C 
BRANCH  23  27
ATOM     24  N   UNL     1      -2.469  11.434  18.338  0.00  0.00    +0.000 NA
ATOM     25  C   UNL     1      -1.827  10.298  19.017  0.00  0.00    +0.000 C 
ATOM     26  C   UNL     1      -0.938  10.773  20.162  0.00  0.00    +0.000 C 
ATOM     27  C   UNL     1       0.149  11.740  19.683  0.00  0.00    +0.000 C 
ATOM     28  C   UNL     1      -0.530  12.883  18.910  0.00  0.00    +0.000 C 
ATOM     29  C   UNL     1      -1.468  12.374  17.807  0.00  0.00    +0.000 C 
BRANCH  24  30
ATOM     30  C   UNL     1      -3.368  10.977  17.255  0.00  0.00    +0.000 C 
BRANCH  30  31
ATOM     31  C   UNL     1      -2.821  11.274  15.848  0.00  0.00    +0.000 C 
BRANCH  31  33
ATOM     32  C   UNL     1      -3.673   9.979  14.092  0.00  0.00    +0.000 C 
ATOM     33  O   UNL     1      -2.673  10.063  15.102  0.00  0.00    +0.000 OA
ENDBRANCH  31  33
ENDBRANCH  30  31
ENDBRANCH  24  30
ENDBRANCH  23  27
ENDBRANCH  19  23
ENDBRANCH   1  20
TORSDOF 8
ENDMDL
MODEL 2
REMARK VINA RESULT:      -8.2      2.521      3.264
REMARK  Name = 
REMARK  10 active torsions:
REMARK  status: ('A' for Active; 'I' for Inactive)
REMARK    1  A    between atoms: C_1  and  O_2
REMARK    2  A    between atoms: O_2  and  C_3
REMARK    3  A    between atoms: C_3  and  C_4
REMARK    4  A    between atoms: C_4  and  N_5
REMARK    5  A    between atoms: C_8  and  C_9
REMARK    6  A    between atoms: C_9  and  N_10
REMARK    7  A    between atoms: C_11  and  C_13
REMARK    8  A    between atoms: C_19  and  C_20
REMARK    9  A    between atoms: C_25  and  O_26
REMARK   10  A    between atoms: O_26  and  C_27
REMARK                            x       y       z     vdW  Elec       q    Type
REMARK                         _______ _______ _______ _____ _____    ______ ____
ROOT
ATOM      1  C   UNL     1       1.891   5.552  19.932  0.00  0.00    +0.000 A 
ATOM      2  N   UNL     1       1.179   4.811  20.810  0.00  0.00    +0.000 NA
ATOM      3  N   UNL     1       1.447   3.542  20.445  0.00  0.00    +0.000 N 
ATOM      4  C   UNL     1       2.337   3.425  19.414  0.00  0.00    +0.000 A 
ATOM      5  C   UNL     1       2.927   2.315  18.803  0.00  0.00    +0.000 A 
ATOM      6  C   UNL     1       3.897   2.565  17.812  0.00  0.00    +0.000 A 
ATOM      7  C   UNL     1       4.235   3.860  17.379  0.00  0.00    +0.000 A 
ATOM      8  C   UNL     1       3.514   4.931  17.960  0.00  0.00    +0.000 A 
ATOM      9  C   UNL     1       2.614   4.721  19.024  0.00  0.00    +0.000 A 
ATOM     10  H   UNL     1       1.017   2.791  20.973  0.00  0.00    +0.000 HD
ENDROOT
BRANCH   7  11
ATOM     11  C   UNL     1       5.371   4.144  16.447  0.00  0.00    +0.000 A 
ATOM     12  C   UNL     1       5.119   4.197  15.055  0.00  0.00    +0.000 A 
ATOM     13  C   UNL     1       6.115   4.494  14.132  0.00  0.00    +0.000 A 
ATOM     14  C   UNL     1       7.377   4.754  14.609  0.00  0.00    +0.000 A 
ATOM     15  N   UNL     1       7.690   4.725  15.917  0.00  0.00    +0.000 NA
ATOM     16  C   UNL     1       6.702   4.430  16.807  0.00  0.00    +0.000 A 
BRANCH  16  17
ATOM     17  O   UNL     1       7.053   4.422  18.144  0.00  0.00    +0.000 OA
ATOM     18  C   UNL     1       7.524   5.683  18.617  0.00  0.00    +0.000 C 
ENDBRANCH  16  17
ENDBRANCH   7  11
BRANCH   1  20
ATOM     19  N   UNL     1       1.372   7.540  21.154  0.00  0.00    +0.000 N 
ATOM     20  C   UNL     1       1.944   7.024  20.011  0.00  0.00    +0.000 C 
ATOM     21  O   UNL     1       2.470   7.721  19.146  0.00  0.00    +0.000 OA
ATOM     22  H   UNL     1       0.988   6.857  21.803  0.00  0.00    +0.000 HD
BRANCH  19  23
ATOM     23  C   UNL     1       1.356   8.954  21.465  0.00  0.00    +0.000 C 
BRANCH  23  27
ATOM     24  N   UNL     1       0.261  12.010  19.591  0.00  0.00    +0.000 NA
ATOM     25  C   UNL     1       0.381  10.665  19.005  0.00  0.00    +0.000 C 
ATOM     26  C   UNL     1      -0.446   9.649  19.788  0.00  0.00    +0.000 C 
ATOM     27  C   UNL     1      -0.032   9.584  21.261  0.00  0.00    +0.000 C 
ATOM     28  C   UNL     1      -0.089  11.008  21.840  0.00  0.00    +0.000 C 
ATOM     29  C   UNL     1       0.697  12.021  20.996  0.00  0.00    +0.000 C 
BRANCH  24  30
ATOM     30  C   UNL     1       1.024  13.008  18.809  0.00  0.00    +0.000 C 
BRANCH  30  31
ATOM     31  C   UNL     1       0.446  14.430  18.915  0.00  0.00    +0.000 C 
BRANCH  31  33
ATOM     32  C   UNL     1       0.906  16.713  18.661  0.00  0.00    +0.000 C 
ATOM     33  O   UNL     1       1.466  15.404  18.677  0.00  0.00    +0.000 OA
ENDBRANCH  31  33
ENDBRANCH  30  31
ENDBRANCH  24  30
ENDBRANCH  23  27
ENDBRANCH  19  23
ENDBRANCH   1  20
TORSDOF 8
ENDMDL
MODEL 3
REMARK VINA RESULT:      -8.1      0.963      1.173
REMARK  Name = 
REMARK  10 active torsions:
REMARK  status: ('A' for Active; 'I' for Inactive)
REMARK    1  A    between atoms: C_1  and  O_2
REMARK    2  A    between atoms: O_2  and  C_3
REMARK    3  A    between atoms: C_3  and  C_4
REMARK    4  A    between atoms: C_4  and  N_5
REMARK    5  A    between atoms: C_8  and  C_9
REMARK    6  A    between atoms: C_9  and  N_10
REMARK    7  A    between atoms: C_11  and  C_13
REMARK    8  A    between atoms: C_19  and  C_20
REMARK    9  A    between atoms: C_25  and  O_26
REMARK   10  A    between atoms: O_26  and  C_27
REMARK                            x       y       z     vdW  Elec       q    Type
REMARK                         _______ _______ _______ _____ _____    ______ ____
ROOT
ATOM      1  C   UNL     1       2.168   7.601  19.186  0.00  0.00    +0.000 A 
ATOM      2  N   UNL     1       1.716   7.386  20.441  0.00  0.00    +0.000 NA
ATOM      3  N   UNL     1       2.204   6.168  20.750  0.00  0.00    +0.000 N 
ATOM      4  C   UNL     1       2.992   5.612  19.781  0.00  0.00    +0.000 A 
ATOM      5  C   UNL     1       3.736   4.430  19.739  0.00  0.00    +0.000 A 
ATOM      6  C   UNL     1       4.530   4.207  18.596  0.00  0.00    +0.000 A 
ATOM      7  C   UNL     1       4.546   5.081  17.493  0.00  0.00    +0.000 A 
ATOM      8  C   UNL     1       3.680   6.199  17.556  0.00  0.00    +0.000 A 
ATOM      9  C   UNL     1       2.954   6.502  18.726  0.00  0.00    +0.000 A 
ATOM     10  H   UNL     1       1.995   5.786  21.666  0.00  0.00    +0.000 HD
ENDROOT
BRANCH   7  11
ATOM     11  C   UNL     1       5.500   4.940  16.348  0.00  0.00    +0.000 A 
ATOM     12  C   UNL     1       5.051   4.327  15.154  0.00  0.00    +0.000 A 
ATOM     13  C   UNL     1       5.867   4.196  14.036  0.00  0.00    +0.000 A 
ATOM     14  C   UNL     1       7.144   4.697  14.109  0.00  0.00    +0.000 A 
ATOM     15  N   UNL     1       7.639   5.295  15.209  0.00  0.00    +0.000 NA
ATOM     16  C   UNL     1       6.825   5.412  16.296  0.00  0.00    +0.000 A 
BRANCH  16  17
ATOM     17  O   UNL     1       7.359   6.043  17.403  0.00  0.00    +0.000 OA
ATOM     18  C   UNL     1       7.357   7.466  17.305  0.00  0.00    +0.000 C 
ENDBRANCH  16  17
ENDBRANCH   7  11
BRANCH   1  20
ATOM     19  N   UNL     1       1.480   9.889  19.285  0.00  0.00    +0.000 N 
ATOM     20  C   UNL     1       1.921   8.867  18.471  0.00  0.00    +0.000 C 
ATOM     21  O   UNL     1       2.113   9.002  17.265  0.00  0.00    +0.000 OA
ATOM     22  H   UNL     1       1.381   9.656  20.270  0.00  0.00    +0.000 HD
BRANCH  19  23
ATOM     23  C   UNL     1       1.224  11.231  18.807  0.00  0.00    +0.000 C 
BRANCH  23  27
ATOM     24  N   UNL     1      -2.482  11.101  18.261  0.00  0.00    +0.000 NA
ATOM     25  C   UNL     1      -1.724  10.160  19.101  0.00  0.00    +0.000 C 
ATOM     26  C   UNL     1      -0.917  10.899  20.165  0.00  0.00    +0.000 C 
ATOM     27  C   UNL     1       0.059  11.906  19.549  0.00  0.00    +0.000 C 
ATOM     28  C   UNL     1      -0.734  12.836  18.614  0.00  0.00    +0.000 C 
ATOM     29  C   UNL     1      -1.587  12.064  17.598  0.00  0.00    +0.000 C 
BRANCH  24  30
ATOM     30  C   UNL     1      -3.302  10.388  17.257  0.00  0.00    +0.000 C 
BRANCH  30  31
ATOM     31  C   UNL     1      -4.342  11.291  16.573  0.00  0.00    +0.000 C 
BRANCH  31  33
ATOM     32  C   UNL     1      -6.116  12.679  17.218  0.00  0.00    +0.000 C 
ATOM     33  O   UNL     1      -5.520  11.395  17.377  0.00  0.00    +0.000 OA
ENDBRANCH  31  33
ENDBRANCH  30  31
ENDBRANCH  24  30
ENDBRANCH  23  27
ENDBRANCH  19  23
ENDBRANCH   1  20
TORSDOF 8
ENDMDL
MODEL 4
REMARK VINA RESULT:      -8.0      2.353      3.267
REMARK  Name = 
REMARK  10 active torsions:
REMARK  status: ('A' for Active; 'I' for Inactive)
REMARK    1  A    between atoms: C_1  and  O_2
REMARK    2  A    between atoms: O_2  and  C_3
REMARK    3  A    between atoms: C_3  and  C_4
REMARK    4  A    between atoms: C_4  and  N_5
REMARK    5  A    between atoms: C_8  and  C_9
REMARK    6  A    between atoms: C_9  and  N_10
REMARK    7  A    between atoms: C_11  and  C_13
REMARK    8  A    between atoms: C_19  and  C_20
REMARK    9  A    between atoms: C_25  and  O_26
REMARK   10  A    between atoms: O_26  and  C_27
REMARK                            x       y       z     vdW  Elec       q    Type
REMARK                         _______ _______ _______ _____ _____    ______ ____
ROOT
ATOM      1  C   UNL     1       2.202   5.701  19.801  0.00  0.00    +0.000 A 
ATOM      2  N   UNL     1       1.643   4.974  20.793  0.00  0.00    +0.000 NA
ATOM      3  N   UNL     1       2.001   3.708  20.500  0.00  0.00    +0.000 N 
ATOM      4  C   UNL     1       2.808   3.588  19.403  0.00  0.00    +0.000 A 
ATOM      5  C   UNL     1       3.449   2.489  18.825  0.00  0.00    +0.000 A 
ATOM      6  C   UNL     1       4.302   2.743  17.732  0.00  0.00    +0.000 A 
ATOM      7  C   UNL     1       4.474   4.023  17.175  0.00  0.00    +0.000 A 
ATOM      8  C   UNL     1       3.704   5.069  17.739  0.00  0.00    +0.000 A 
ATOM      9  C   UNL     1       2.922   4.867  18.894  0.00  0.00    +0.000 A 
ATOM     10  H   UNL     1       1.694   2.968  21.121  0.00  0.00    +0.000 HD
ENDROOT
BRANCH   7  11
ATOM     11  C   UNL     1       5.494   4.331  16.123  0.00  0.00    +0.000 A 
ATOM     12  C   UNL     1       5.207   4.006  14.775  0.00  0.00    +0.000 A 
ATOM     13  C   UNL     1       6.088   4.297  13.739  0.00  0.00    +0.000 A 
ATOM     14  C   UNL     1       7.264   4.933  14.055  0.00  0.00    +0.000 A 
ATOM     15  N   UNL     1       7.603   5.275  15.312  0.00  0.00    +0.000 NA
ATOM     16  C   UNL     1       6.728   4.979  16.314  0.00  0.00    +0.000 A 
BRANCH  16  17
ATOM     17  O   UNL     1       7.099   5.356  17.591  0.00  0.00    +0.000 OA
ATOM     18  C   UNL     1       7.336   6.757  17.727  0.00  0.00    +0.000 C 
ENDBRANCH  16  17
ENDBRANCH   7  11
BRANCH   1  20
ATOM     19  N   UNL     1       1.532   7.724  20.884  0.00  0.00    +0.000 N 
ATOM     20  C   UNL     1       2.116   7.173  19.764  0.00  0.00    +0.000 C 
ATOM     21  O   UNL     1       2.549   7.844  18.830  0.00  0.00    +0.000 OA
ATOM     22  H   UNL     1       1.233   7.062  21.597  0.00  0.00    +0.000 HD
BRANCH  19  23
ATOM     23  C   UNL     1       1.391   9.151  21.086  0.00  0.00    +0.000 C 
BRANCH  23  27
ATOM     24  N   UNL     1       0.082  12.400  19.753  0.00  0.00    +0.000 NA
ATOM     25  C   UNL     1       0.465  11.246  18.923  0.00  0.00    +0.000 C 
ATOM     26  C   UNL     1      -0.288   9.989  19.349  0.00  0.00    +0.000 C 
ATOM     27  C   UNL     1      -0.042   9.642  20.820  0.00  0.00    +0.000 C 
ATOM     28  C   UNL     1      -0.374  10.881  21.669  0.00  0.00    +0.000 C 
ATOM     29  C   UNL     1       0.346  12.144  21.178  0.00  0.00    +0.000 C 
BRANCH  24  30
ATOM     30  C   UNL     1       0.775  13.632  19.316  0.00  0.00    +0.000 C 
BRANCH  30  31
ATOM     31  C   UNL     1       2.273  13.419  19.043  0.00  0.00    +0.000 C 
BRANCH  31  33
ATOM     32  C   UNL     1       4.220  14.443  18.235  0.00  0.00    +0.000 C 
ATOM     33  O   UNL     1       2.796  14.493  18.256  0.00  0.00    +0.000 OA
ENDBRANCH  31  33
ENDBRANCH  30  31
ENDBRANCH  24  30
ENDBRANCH  23  27
ENDBRANCH  19  23
ENDBRANCH   1  20
TORSDOF 8
ENDMDL
MODEL 5
REMARK VINA RESULT:      -7.9      2.134      3.056
REMARK  Name = 
REMARK  10 active torsions:
REMARK  status: ('A' for Active; 'I' for Inactive)
REMARK    1  A    between atoms: C_1  and  O_2
REMARK    2  A    between atoms: O_2  and  C_3
REMARK    3  A    between atoms: C_3  and  C_4
REMARK    4  A    between atoms: C_4  and  N_5
REMARK    5  A    between atoms: C_8  and  C_9
REMARK    6  A    between atoms: C_9  and  N_10
REMARK    7  A    between atoms: C_11  and  C_13
REMARK    8  A    between atoms: C_19  and  C_20
REMARK    9  A    between atoms: C_25  and  O_26
REMARK   10  A    between atoms: O_26  and  C_27
REMARK                            x       y       z     vdW  Elec       q    Type
REMARK                         _______ _______ _______ _____ _____    ______ ____
ROOT
ATOM      1  C   UNL     1       2.258   7.168  19.275  0.00  0.00    +0.000 A 
ATOM      2  N   UNL     1       1.857   6.873  20.532  0.00  0.00    +0.000 NA
ATOM      3  N   UNL     1       2.405   5.663  20.764  0.00  0.00    +0.000 N 
ATOM      4  C   UNL     1       3.182   5.188  19.744  0.00  0.00    +0.000 A 
ATOM      5  C   UNL     1       3.971   4.042  19.621  0.00  0.00    +0.000 A 
ATOM      6  C   UNL     1       4.734   3.909  18.443  0.00  0.00    +0.000 A 
ATOM      7  C   UNL     1       4.678   4.835  17.385  0.00  0.00    +0.000 A 
ATOM      8  C   UNL     1       3.770   5.912  17.531  0.00  0.00    +0.000 A 
ATOM      9  C   UNL     1       3.071   6.126  18.737  0.00  0.00    +0.000 A 
ATOM     10  H   UNL     1       2.242   5.229  21.666  0.00  0.00    +0.000 HD
ENDROOT
BRANCH   7  11
ATOM     11  C   UNL     1       5.598   4.791  16.205  0.00  0.00    +0.000 A 
ATOM     12  C   UNL     1       5.131   4.226  14.993  0.00  0.00    +0.000 A 
ATOM     13  C   UNL     1       5.914   4.185  13.845  0.00  0.00    +0.000 A 
ATOM     14  C   UNL     1       7.174   4.728  13.906  0.00  0.00    +0.000 A 
ATOM     15  N   UNL     1       7.684   5.283  15.020  0.00  0.00    +0.000 NA
ATOM     16  C   UNL     1       6.904   5.312  16.137  0.00  0.00    +0.000 A 
BRANCH  16  17
ATOM     17  O   UNL     1       7.452   5.902  17.260  0.00  0.00    +0.000 OA
ATOM     18  C   UNL     1       7.350   7.325  17.265  0.00  0.00    +0.000 C 
ENDBRANCH  16  17
ENDBRANCH   7  11
BRANCH   1  20
ATOM     19  N   UNL     1       1.352   9.370  19.483  0.00  0.00    +0.000 N 
ATOM     20  C   UNL     1       1.935   8.455  18.633  0.00  0.00    +0.000 C 
ATOM     21  O   UNL     1       2.186   8.695  17.454  0.00  0.00    +0.000 OA
ATOM     22  H   UNL     1       1.215   9.058  20.441  0.00  0.00    +0.000 HD
BRANCH  19  23
ATOM     23  C   UNL     1       0.999  10.716  19.080  0.00  0.00    +0.000 C 
BRANCH  23  27
ATOM     24  N   UNL     1      -0.846  13.899  19.793  0.00  0.00    +0.000 NA
ATOM     25  C   UNL     1      -0.509  13.409  18.447  0.00  0.00    +0.000 C 
ATOM     26  C   UNL     1      -1.043  11.997  18.227  0.00  0.00    +0.000 C 
ATOM     27  C   UNL     1      -0.500  11.008  19.262  0.00  0.00    +0.000 C 
ATOM     28  C   UNL     1      -0.792  11.570  20.664  0.00  0.00    +0.000 C 
ATOM     29  C   UNL     1      -0.302  13.014  20.836  0.00  0.00    +0.000 C 
BRANCH  24  30
ATOM     30  C   UNL     1      -0.370  15.285  19.997  0.00  0.00    +0.000 C 
BRANCH  30  31
ATOM     31  C   UNL     1      -0.405  16.132  18.714  0.00  0.00    +0.000 C 
BRANCH  31  33
ATOM     32  C   UNL     1       0.445  18.039  17.651  0.00  0.00    +0.000 C 
ATOM     33  O   UNL     1       0.361  17.328  18.882  0.00  0.00    +0.000 OA
ENDBRANCH  31  33
ENDBRANCH  30  31
ENDBRANCH  24  30
ENDBRANCH  23  27
ENDBRANCH  19  23
ENDBRANCH   1  20
TORSDOF 8
ENDMDL
MODEL 6
REMARK VINA RESULT:      -7.9      2.350      3.384
REMARK  Name = 
REMARK  10 active torsions:
REMARK  status: ('A' for Active; 'I' for Inactive)
REMARK    1  A    between atoms: C_1  and  O_2
REMARK    2  A    between atoms: O_2  and  C_3
REMARK    3  A    between atoms: C_3  and  C_4
REMARK    4  A    between atoms: C_4  and  N_5
REMARK    5  A    between atoms: C_8  and  C_9
REMARK    6  A    between atoms: C_9  and  N_10
REMARK    7  A    between atoms: C_11  and  C_13
REMARK    8  A    between atoms: C_19  and  C_20
REMARK    9  A    between atoms: C_25  and  O_26
REMARK   10  A    between atoms: O_26  and  C_27
REMARK                            x       y       z     vdW  Elec       q    Type
REMARK                         _______ _______ _______ _____ _____    ______ ____
ROOT
ATOM      1  C   UNL     1       1.966   7.848  19.302  0.00  0.00    +0.000 A 
ATOM      2  N   UNL     1       1.451   7.642  20.535  0.00  0.00    +0.000 NA
ATOM      3  N   UNL     1       1.912   6.421  20.872  0.00  0.00    +0.000 N 
ATOM      4  C   UNL     1       2.741   5.853  19.945  0.00  0.00    +0.000 A 
ATOM      5  C   UNL     1       3.475   4.664  19.945  0.00  0.00    +0.000 A 
ATOM      6  C   UNL     1       4.321   4.429  18.843  0.00  0.00    +0.000 A 
ATOM      7  C   UNL     1       4.400   5.297  17.738  0.00  0.00    +0.000 A 
ATOM      8  C   UNL     1       3.542   6.424  17.755  0.00  0.00    +0.000 A 
ATOM      9  C   UNL     1       2.762   6.739  18.886  0.00  0.00    +0.000 A 
ATOM     10  H   UNL     1       1.655   6.045  21.778  0.00  0.00    +0.000 HD
ENDROOT
BRANCH   7  11
ATOM     11  C   UNL     1       5.407   5.142  16.642  0.00  0.00    +0.000 A 
ATOM     12  C   UNL     1       5.116   4.275  15.561  0.00  0.00    +0.000 A 
ATOM     13  C   UNL     1       5.984   4.110  14.488  0.00  0.00    +0.000 A 
ATOM     14  C   UNL     1       7.153   4.832  14.491  0.00  0.00    +0.000 A 
ATOM     15  N   UNL     1       7.496   5.676  15.480  0.00  0.00    +0.000 NA
ATOM     16  C   UNL     1       6.633   5.824  16.525  0.00  0.00    +0.000 A 
BRANCH  16  17
ATOM     17  O   UNL     1       7.008   6.709  17.518  0.00  0.00    +0.000 OA
ATOM     18  C   UNL     1       7.754   6.103  18.572  0.00  0.00    +0.000 C 
ENDBRANCH  16  17
ENDBRANCH   7  11
BRANCH   1  20
ATOM     19  N   UNL     1       1.323  10.149  19.364  0.00  0.00    +0.000 N 
ATOM     20  C   UNL     1       1.766   9.112  18.571  0.00  0.00    +0.000 C 
ATOM     21  O   UNL     1       1.996   9.233  17.370  0.00  0.00    +0.000 OA
ATOM     22  H   UNL     1       1.189   9.926  20.348  0.00  0.00    +0.000 HD
BRANCH  19  23
ATOM     23  C   UNL     1       1.109  11.493  18.868  0.00  0.00    +0.000 C 
BRANCH  23  27
ATOM     24  N   UNL     1      -1.384  13.517  20.802  0.00  0.00    +0.000 NA
ATOM     25  C   UNL     1      -0.496  14.054  19.759  0.00  0.00    +0.000 C 
ATOM     26  C   UNL     1      -0.662  13.290  18.449  0.00  0.00    +0.000 C 
ATOM     27  C   UNL     1      -0.378  11.795  18.616  0.00  0.00    +0.000 C 
ATOM     28  C   UNL     1      -1.258  11.262  19.759  0.00  0.00    +0.000 C 
ATOM     29  C   UNL     1      -1.120  12.089  21.045  0.00  0.00    +0.000 C 
BRANCH  24  30
ATOM     30  C   UNL     1      -1.260  14.282  22.063  0.00  0.00    +0.000 C 
BRANCH  30  31
ATOM     31  C   UNL     1      -1.696  13.482  23.302  0.00  0.00    +0.000 C 
BRANCH  31  33
ATOM     32  C   UNL     1      -3.737  12.555  23.983  0.00  0.00    +0.000 C 
ATOM     33  O   UNL     1      -3.063  13.756  23.619  0.00  0.00    +0.000 OA
ENDBRANCH  31  33
ENDBRANCH  30  31
ENDBRANCH  24  30
ENDBRANCH  23  27
ENDBRANCH  19  23
ENDBRANCH   1  20
TORSDOF 8
ENDMDL
MODEL 7
REMARK VINA RESULT:      -7.9      1.989      3.320
REMARK  Name = 
REMARK  10 active torsions:
REMARK  status: ('A' for Active; 'I' for Inactive)
REMARK    1  A    between atoms: C_1  and  O_2
REMARK    2  A    between atoms: O_2  and  C_3
REMARK    3  A    between atoms: C_3  and  C_4
REMARK    4  A    between atoms: C_4  and  N_5
REMARK    5  A    between atoms: C_8  and  C_9
REMARK    6  A    between atoms: C_9  and  N_10
REMARK    7  A    between atoms: C_11  and  C_13
REMARK    8  A    between atoms: C_19  and  C_20
REMARK    9  A    between atoms: C_25  and  O_26
REMARK   10  A    between atoms: O_26  and  C_27
REMARK                            x       y       z     vdW  Elec       q    Type
REMARK                         _______ _______ _______ _____ _____    ______ ____
ROOT
ATOM      1  C   UNL     1       2.266   7.368  19.168  0.00  0.00    +0.000 A 
ATOM      2  N   UNL     1       1.873   7.133  20.440  0.00  0.00    +0.000 NA
ATOM      3  N   UNL     1       2.420   5.934  20.725  0.00  0.00    +0.000 N 
ATOM      4  C   UNL     1       3.189   5.411  19.724  0.00  0.00    +0.000 A 
ATOM      5  C   UNL     1       3.976   4.259  19.649  0.00  0.00    +0.000 A 
ATOM      6  C   UNL     1       4.731   4.069  18.474  0.00  0.00    +0.000 A 
ATOM      7  C   UNL     1       4.670   4.944  17.374  0.00  0.00    +0.000 A 
ATOM      8  C   UNL     1       3.765   6.028  17.476  0.00  0.00    +0.000 A 
ATOM      9  C   UNL     1       3.075   6.301  18.674  0.00  0.00    +0.000 A 
ATOM     10  H   UNL     1       2.262   5.543  21.647  0.00  0.00    +0.000 HD
ENDROOT
BRANCH   7  11
ATOM     11  C   UNL     1       5.583   4.843  16.192  0.00  0.00    +0.000 A 
ATOM     12  C   UNL     1       5.086   4.286  14.989  0.00  0.00    +0.000 A 
ATOM     13  C   UNL     1       5.861   4.194  13.838  0.00  0.00    +0.000 A 
ATOM     14  C   UNL     1       7.146   4.679  13.889  0.00  0.00    +0.000 A 
ATOM     15  N   UNL     1       7.685   5.224  14.994  0.00  0.00    +0.000 NA
ATOM     16  C   UNL     1       6.911   5.303  16.114  0.00  0.00    +0.000 A 
BRANCH  16  17
ATOM     17  O   UNL     1       7.490   5.880  17.227  0.00  0.00    +0.000 OA
ATOM     18  C   UNL     1       7.434   7.306  17.225  0.00  0.00    +0.000 C 
ENDBRANCH  16  17
ENDBRANCH   7  11
BRANCH   1  20
ATOM     19  N   UNL     1       1.154   9.484  19.204  0.00  0.00    +0.000 N 
ATOM     20  C   UNL     1       1.942   8.624  18.468  0.00  0.00    +0.000 C 
ATOM     21  O   UNL     1       2.357   8.888  17.342  0.00  0.00    +0.000 OA
ATOM     22  H   UNL     1       0.894   9.159  20.132  0.00  0.00    +0.000 HD
BRANCH  19  23
ATOM     23  C   UNL     1       0.757  10.795  18.735  0.00  0.00    +0.000 C 
BRANCH  23  27
ATOM     24  N   UNL     1       0.082  14.215  20.114  0.00  0.00    +0.000 NA
ATOM     25  C   UNL     1      -0.272  13.773  18.755  0.00  0.00    +0.000 C 
ATOM     26  C   UNL     1      -1.135  12.515  18.794  0.00  0.00    +0.000 C 
ATOM     27  C   UNL     1      -0.437  11.362  19.521  0.00  0.00    +0.000 C 
ATOM     28  C   UNL     1      -0.006  11.860  20.911  0.00  0.00    +0.000 C 
ATOM     29  C   UNL     1       0.805  13.162  20.846  0.00  0.00    +0.000 C 
BRANCH  24  30
ATOM     30  C   UNL     1       0.881  15.460  20.085  0.00  0.00    +0.000 C 
BRANCH  30  31
ATOM     31  C   UNL     1       1.627  15.670  18.757  0.00  0.00    +0.000 C 
BRANCH  31  33
ATOM     32  C   UNL     1       3.866  16.312  18.505  0.00  0.00    +0.000 C 
ATOM     33  O   UNL     1       2.989  15.253  18.876  0.00  0.00    +0.000 OA
ENDBRANCH  31  33
ENDBRANCH  30  31
ENDBRANCH  24  30
ENDBRANCH  23  27
ENDBRANCH  19  23
ENDBRANCH   1  20
TORSDOF 8
ENDMDL
MODEL 8
REMARK VINA RESULT:      -7.9      2.347      3.560
REMARK  Name = 
REMARK  10 active torsions:
REMARK  status: ('A' for Active; 'I' for Inactive)
REMARK    1  A    between atoms: C_1  and  O_2
REMARK    2  A    between atoms: O_2  and  C_3
REMARK    3  A    between atoms: C_3  and  C_4
REMARK    4  A    between atoms: C_4  and  N_5
REMARK    5  A    between atoms: C_8  and  C_9
REMARK    6  A    between atoms: C_9  and  N_10
REMARK    7  A    between atoms: C_11  and  C_13
REMARK    8  A    between atoms: C_19  and  C_20
REMARK    9  A    between atoms: C_25  and  O_26
REMARK   10  A    between atoms: O_26  and  C_27
REMARK                            x       y       z     vdW  Elec       q    Type
REMARK                         _______ _______ _______ _____ _____    ______ ____
ROOT
ATOM      1  C   UNL     1       2.022   7.787  19.287  0.00  0.00    +0.000 A 
ATOM      2  N   UNL     1       1.504   7.558  20.514  0.00  0.00    +0.000 NA
ATOM      3  N   UNL     1       1.936   6.317  20.815  0.00  0.00    +0.000 N 
ATOM      4  C   UNL     1       2.751   5.758  19.870  0.00  0.00    +0.000 A 
ATOM      5  C   UNL     1       3.457   4.552  19.834  0.00  0.00    +0.000 A 
ATOM      6  C   UNL     1       4.296   4.330  18.724  0.00  0.00    +0.000 A 
ATOM      7  C   UNL     1       4.394   5.228  17.645  0.00  0.00    +0.000 A 
ATOM      8  C   UNL     1       3.563   6.373  17.696  0.00  0.00    +0.000 A 
ATOM      9  C   UNL     1       2.792   6.673  18.837  0.00  0.00    +0.000 A 
ATOM     10  H   UNL     1       1.671   5.921  21.710  0.00  0.00    +0.000 HD
ENDROOT
BRANCH   7  11
ATOM     11  C   UNL     1       5.396   5.082  16.543  0.00  0.00    +0.000 A 
ATOM     12  C   UNL     1       5.006   4.438  15.343  0.00  0.00    +0.000 A 
ATOM     13  C   UNL     1       5.869   4.300  14.262  0.00  0.00    +0.000 A 
ATOM     14  C   UNL     1       7.134   4.824  14.378  0.00  0.00    +0.000 A 
ATOM     15  N   UNL     1       7.573   5.451  15.484  0.00  0.00    +0.000 NA
ATOM     16  C   UNL     1       6.714   5.575  16.535  0.00  0.00    +0.000 A 
BRANCH  16  17
ATOM     17  O   UNL     1       7.192   6.236  17.651  0.00  0.00    +0.000 OA
ATOM     18  C   UNL     1       7.525   7.601  17.406  0.00  0.00    +0.000 C 
ENDBRANCH  16  17
ENDBRANCH   7  11
BRANCH   1  20
ATOM     19  N   UNL     1       1.390  10.090  19.408  0.00  0.00    +0.000 N 
ATOM     20  C   UNL     1       1.850   9.077  18.593  0.00  0.00    +0.000 C 
ATOM     21  O   UNL     1       2.117   9.237  17.404  0.00  0.00    +0.000 OA
ATOM     22  H   UNL     1       1.227   9.835  20.379  0.00  0.00    +0.000 HD
BRANCH  19  23
ATOM     23  C   UNL     1       1.199  11.451  18.952  0.00  0.00    +0.000 C 
BRANCH  23  27
ATOM     24  N   UNL     1      -1.634  13.075  20.793  0.00  0.00    +0.000 NA
ATOM     25  C   UNL     1      -0.648  13.793  19.968  0.00  0.00    +0.000 C 
ATOM     26  C   UNL     1      -0.599  13.225  18.552  0.00  0.00    +0.000 C 
ATOM     27  C   UNL     1      -0.257  11.733  18.543  0.00  0.00    +0.000 C 
ATOM     28  C   UNL     1      -1.247  11.005  19.468  0.00  0.00    +0.000 C 
ATOM     29  C   UNL     1      -1.324  11.638  20.864  0.00  0.00    +0.000 C 
BRANCH  24  30
ATOM     30  C   UNL     1      -1.719  13.650  22.153  0.00  0.00    +0.000 C 
BRANCH  30  31
ATOM     31  C   UNL     1      -0.910  14.948  22.313  0.00  0.00    +0.000 C 
BRANCH  31  33
ATOM     32  C   UNL     1      -1.230  15.311  24.606  0.00  0.00    +0.000 C 
ATOM     33  O   UNL     1      -0.278  14.990  23.596  0.00  0.00    +0.000 OA
ENDBRANCH  31  33
ENDBRANCH  30  31
ENDBRANCH  24  30
ENDBRANCH  23  27
ENDBRANCH  19  23
ENDBRANCH   1  20
TORSDOF 8
ENDMDL
MODEL 9
REMARK VINA RESULT:      -7.9      2.597      3.888
REMARK  Name = 
REMARK  10 active torsions:
REMARK  status: ('A' for Active; 'I' for Inactive)
REMARK    1  A    between atoms: C_1  and  O_2
REMARK    2  A    between atoms: O_2  and  C_3
REMARK    3  A    between atoms: C_3  and  C_4
REMARK    4  A    between atoms: C_4  and  N_5
REMARK    5  A    between atoms: C_8  and  C_9
REMARK    6  A    between atoms: C_9  and  N_10
REMARK    7  A    between atoms: C_11  and  C_13
REMARK    8  A    between atoms: C_19  and  C_20
REMARK    9  A    between atoms: C_25  and  O_26
REMARK   10  A    between atoms: O_26  and  C_27
REMARK                            x       y       z     vdW  Elec       q    Type
REMARK                         _______ _______ _______ _____ _____    ______ ____
ROOT
ATOM      1  C   UNL     1       2.177   5.708  19.785  0.00  0.00    +0.000 A 
ATOM      2  N   UNL     1       1.597   4.973  20.760  0.00  0.00    +0.000 NA
ATOM      3  N   UNL     1       1.937   3.707  20.448  0.00  0.00    +0.000 N 
ATOM      4  C   UNL     1       2.751   3.592  19.356  0.00  0.00    +0.000 A 
ATOM      5  C   UNL     1       3.380   2.493  18.764  0.00  0.00    +0.000 A 
ATOM      6  C   UNL     1       4.247   2.752  17.683  0.00  0.00    +0.000 A 
ATOM      7  C   UNL     1       4.445   4.038  17.150  0.00  0.00    +0.000 A 
ATOM      8  C   UNL     1       3.687   5.087  17.726  0.00  0.00    +0.000 A 
ATOM      9  C   UNL     1       2.892   4.878  18.871  0.00  0.00    +0.000 A 
ATOM     10  H   UNL     1       1.612   2.961  21.052  0.00  0.00    +0.000 HD
ENDROOT
BRANCH   7  11
ATOM     11  C   UNL     1       5.479   4.348  16.113  0.00  0.00    +0.000 A 
ATOM     12  C   UNL     1       5.226   3.993  14.767  0.00  0.00    +0.000 A 
ATOM     13  C   UNL     1       6.122   4.282  13.743  0.00  0.00    +0.000 A 
ATOM     14  C   UNL     1       7.278   4.948  14.070  0.00  0.00    +0.000 A 
ATOM     15  N   UNL     1       7.584   5.320  15.326  0.00  0.00    +0.000 NA
ATOM     16  C   UNL     1       6.696   5.025  16.317  0.00  0.00    +0.000 A 
BRANCH  16  17
ATOM     17  O   UNL     1       7.034   5.434  17.593  0.00  0.00    +0.000 OA
ATOM     18  C   UNL     1       7.354   6.821  17.682  0.00  0.00    +0.000 C 
ENDBRANCH  16  17
ENDBRANCH   7  11
BRANCH   1  20
ATOM     19  N   UNL     1       1.562   7.724  20.914  0.00  0.00    +0.000 N 
ATOM     20  C   UNL     1       2.116   7.181  19.774  0.00  0.00    +0.000 C 
ATOM     21  O   UNL     1       2.542   7.861  18.843  0.00  0.00    +0.000 OA
ATOM     22  H   UNL     1       1.266   7.056  21.622  0.00  0.00    +0.000 HD
BRANCH  19  23
ATOM     23  C   UNL     1       1.450   9.149  21.142  0.00  0.00    +0.000 C 
BRANCH  23  27
ATOM     24  N   UNL     1       0.142  12.660  21.018  0.00  0.00    +0.000 NA
ATOM     25  C   UNL     1       1.205  12.130  20.149  0.00  0.00    +0.000 C 
ATOM     26  C   UNL     1       0.735  10.884  19.403  0.00  0.00    +0.000 C 
ATOM     27  C   UNL     1       0.283   9.778  20.360  0.00  0.00    +0.000 C 
ATOM     28  C   UNL     1      -0.773  10.365  21.311  0.00  0.00    +0.000 C 
ATOM     29  C   UNL     1      -0.298  11.654  21.998  0.00  0.00    +0.000 C 
BRANCH  24  30
ATOM     30  C   UNL     1       0.575  13.894  21.709  0.00  0.00    +0.000 C 
BRANCH  30  31
ATOM     31  C   UNL     1       1.923  14.431  21.200  0.00  0.00    +0.000 C 
BRANCH  31  33
ATOM     32  C   UNL     1       4.203  14.361  21.734  0.00  0.00    +0.000 C 
ATOM     33  O   UNL     1       2.883  14.461  22.259  0.00  0.00    +0.000 OA
ENDBRANCH  31  33
ENDBRANCH  30  31
ENDBRANCH  24  30
ENDBRANCH  23  27
ENDBRANCH  19  23
ENDBRANCH   1  20
TORSDOF 8
ENDMDL
