MODEL 1
REMARK VINA RESULT:      -7.0      0.000      0.000
REMARK  Name = 
REMARK  4 active torsions:
REMARK  status: ('A' for Active; 'I' for Inactive)
REMARK    1  A    between atoms: C_1  and  N_2
REMARK    2  A    between atoms: N_2  and  C_3
REMARK    3  A    between atoms: N_2  and  C_4
REMARK    4  A    between atoms: C_4  and  C_5
REMARK                            x       y       z     vdW  Elec       q    Type
REMARK                         _______ _______ _______ _____ _____    ______ ____
ROOT
ATOM      1  C   UNL     1       3.840   6.282  17.784  0.00  0.00    +0.000 C 
ATOM      2  C   UNL     1       3.642   4.947  17.869  0.00  0.00    +0.000 C 
ATOM      3  C   UNL     1       2.528   4.229  18.515  0.00  0.00    +0.000 A 
ATOM      4  C   UNL     1       1.995   3.115  17.845  0.00  0.00    +0.000 A 
ATOM      5  C   UNL     1       0.966   2.362  18.417  0.00  0.00    +0.000 A 
ATOM      6  C   UNL     1       0.466   2.705  19.671  0.00  0.00    +0.000 A 
ATOM      7  C   UNL     1       1.003   3.789  20.358  0.00  0.00    +0.000 A 
ATOM      8  C   UNL     1       2.036   4.550  19.792  0.00  0.00    +0.000 A 
ATOM      9  S   UNL     1       2.688   5.905  20.760  0.00  0.00    +0.000 S 
ATOM     10  C   UNL     1       2.334   7.232  19.612  0.00  0.00    +0.000 A 
ATOM     11  C   UNL     1       1.464   8.237  20.068  0.00  0.00    +0.000 A 
ATOM     12  C   UNL     1       1.119   9.306  19.246  0.00  0.00    +0.000 A 
ATOM     13  C   UNL     1       1.644   9.381  17.962  0.00  0.00    +0.000 A 
ATOM     14  C   UNL     1       2.513   8.386  17.501  0.00  0.00    +0.000 A 
ATOM     15  C   UNL     1       2.878   7.295  18.312  0.00  0.00    +0.000 A 
ENDROOT
BRANCH   1  16
ATOM     16  C   UNL     1       5.105   6.808  17.110  0.00  0.00    +0.000 C 
BRANCH  16  18
ATOM     17  C   UNL     1       6.734   5.408  15.970  0.00  0.00    +0.000 C 
ATOM     18  N   UNL     1       6.277   5.926  17.262  0.00  0.00    +0.000 NA
ATOM     19  C   UNL     1       7.369   6.641  17.922  0.00  0.00    +0.000 C 
ENDBRANCH  16  18
ENDBRANCH   1  16
TORSDOF 2
ENDMDL
MODEL 2
REMARK VINA RESULT:      -6.9      1.991      4.961
REMARK  Name = 
REMARK  4 active torsions:
REMARK  status: ('A' for Active; 'I' for Inactive)
REMARK    1  A    between atoms: C_1  and  N_2
REMARK    2  A    between atoms: N_2  and  C_3
REMARK    3  A    between atoms: N_2  and  C_4
REMARK    4  A    between atoms: C_4  and  C_5
REMARK                            x       y       z     vdW  Elec       q    Type
REMARK                         _______ _______ _______ _____ _____    ______ ____
ROOT
ATOM      1  C   UNL     1       3.007   5.300  19.433  0.00  0.00    +0.000 C 
ATOM      2  C   UNL     1       4.274   4.859  19.262  0.00  0.00    +0.000 C 
ATOM      3  C   UNL     1       5.449   5.619  18.798  0.00  0.00    +0.000 A 
ATOM      4  C   UNL     1       6.672   5.393  19.452  0.00  0.00    +0.000 A 
ATOM      5  C   UNL     1       7.835   6.046  19.038  0.00  0.00    +0.000 A 
ATOM      6  C   UNL     1       7.795   6.924  17.958  0.00  0.00    +0.000 A 
ATOM      7  C   UNL     1       6.597   7.135  17.282  0.00  0.00    +0.000 A 
ATOM      8  C   UNL     1       5.424   6.484  17.689  0.00  0.00    +0.000 A 
ATOM      9  S   UNL     1       3.939   6.790  16.743  0.00  0.00    +0.000 S 
ATOM     10  C   UNL     1       2.927   7.451  18.063  0.00  0.00    +0.000 A 
ATOM     11  C   UNL     1       2.471   8.770  17.901  0.00  0.00    +0.000 A 
ATOM     12  C   UNL     1       1.687   9.377  18.878  0.00  0.00    +0.000 A 
ATOM     13  C   UNL     1       1.349   8.669  20.024  0.00  0.00    +0.000 A 
ATOM     14  C   UNL     1       1.795   7.354  20.192  0.00  0.00    +0.000 A 
ATOM     15  C   UNL     1       2.590   6.718  19.220  0.00  0.00    +0.000 A 
ENDROOT
BRANCH   1  16
ATOM     16  C   UNL     1       1.927   4.314  19.874  0.00  0.00    +0.000 C 
BRANCH  16  18
ATOM     17  C   UNL     1       2.123   2.631  21.618  0.00  0.00    +0.000 C 
ATOM     18  N   UNL     1       2.443   2.980  20.231  0.00  0.00    +0.000 NA
ATOM     19  C   UNL     1       1.899   1.965  19.329  0.00  0.00    +0.000 C 
ENDBRANCH  16  18
ENDBRANCH   1  16
TORSDOF 2
ENDMDL
MODEL 3
REMARK VINA RESULT:      -6.9      1.964      5.022
REMARK  Name = 
REMARK  4 active torsions:
REMARK  status: ('A' for Active; 'I' for Inactive)
REMARK    1  A    between atoms: C_1  and  N_2
REMARK    2  A    between atoms: N_2  and  C_3
REMARK    3  A    between atoms: N_2  and  C_4
REMARK    4  A    between atoms: C_4  and  C_5
REMARK                            x       y       z     vdW  Elec       q    Type
REMARK                         _______ _______ _______ _____ _____    ______ ____
ROOT
ATOM      1  C   UNL     1       3.620   4.808  19.401  0.00  0.00    +0.000 C 
ATOM      2  C   UNL     1       4.940   4.602  19.192  0.00  0.00    +0.000 C 
ATOM      3  C   UNL     1       5.962   5.581  18.781  0.00  0.00    +0.000 A 
ATOM      4  C   UNL     1       7.216   5.518  19.411  0.00  0.00    +0.000 A 
ATOM      5  C   UNL     1       8.246   6.387  19.043  0.00  0.00    +0.000 A 
ATOM      6  C   UNL     1       8.041   7.322  18.031  0.00  0.00    +0.000 A 
ATOM      7  C   UNL     1       6.812   7.376  17.379  0.00  0.00    +0.000 A 
ATOM      8  C   UNL     1       5.773   6.508  17.741  0.00  0.00    +0.000 A 
ATOM      9  S   UNL     1       4.242   6.627  16.827  0.00  0.00    +0.000 S 
ATOM     10  C   UNL     1       3.155   7.009  18.197  0.00  0.00    +0.000 A 
ATOM     11  C   UNL     1       2.482   8.240  18.136  0.00  0.00    +0.000 A 
ATOM     12  C   UNL     1       1.623   8.633  19.159  0.00  0.00    +0.000 A 
ATOM     13  C   UNL     1       1.428   7.796  20.250  0.00  0.00    +0.000 A 
ATOM     14  C   UNL     1       2.093   6.567  20.318  0.00  0.00    +0.000 A 
ATOM     15  C   UNL     1       2.966   6.146  19.297  0.00  0.00    +0.000 A 
ENDROOT
BRANCH   1  16
ATOM     16  C   UNL     1       2.729   3.625  19.773  0.00  0.00    +0.000 C 
BRANCH  16  18
ATOM     17  C   UNL     1       2.935   1.781  18.200  0.00  0.00    +0.000 C 
ATOM     18  N   UNL     1       2.132   2.936  18.613  0.00  0.00    +0.000 NA
ATOM     19  C   UNL     1       0.770   2.504  18.923  0.00  0.00    +0.000 C 
ENDBRANCH  16  18
ENDBRANCH   1  16
TORSDOF 2
ENDMDL
MODEL 4
REMARK VINA RESULT:      -6.8      1.825      5.294
REMARK  Name = 
REMARK  4 active torsions:
REMARK  status: ('A' for Active; 'I' for Inactive)
REMARK    1  A    between atoms: C_1  and  N_2
REMARK    2  A    between atoms: N_2  and  C_3
REMARK    3  A    between atoms: N_2  and  C_4
REMARK    4  A    between atoms: C_4  and  C_5
REMARK                            x       y       z     vdW  Elec       q    Type
REMARK                         _______ _______ _______ _____ _____    ______ ____
ROOT
ATOM      1  C   UNL     1       2.815   6.154  17.861  0.00  0.00    +0.000 C 
ATOM      2  C   UNL     1       3.827   6.554  17.056  0.00  0.00    +0.000 C 
ATOM      3  C   UNL     1       5.020   5.793  16.644  0.00  0.00    +0.000 A 
ATOM      4  C   UNL     1       5.432   5.902  15.306  0.00  0.00    +0.000 A 
ATOM      5  C   UNL     1       6.578   5.242  14.855  0.00  0.00    +0.000 A 
ATOM      6  C   UNL     1       7.334   4.475  15.738  0.00  0.00    +0.000 A 
ATOM      7  C   UNL     1       6.953   4.382  17.074  0.00  0.00    +0.000 A 
ATOM      8  C   UNL     1       5.805   5.041  17.536  0.00  0.00    +0.000 A 
ATOM      9  S   UNL     1       5.410   4.892  19.273  0.00  0.00    +0.000 S 
ATOM     10  C   UNL     1       3.790   4.150  19.103  0.00  0.00    +0.000 A 
ATOM     11  C   UNL     1       3.624   2.874  19.666  0.00  0.00    +0.000 A 
ATOM     12  C   UNL     1       2.404   2.210  19.578  0.00  0.00    +0.000 A 
ATOM     13  C   UNL     1       1.338   2.818  18.928  0.00  0.00    +0.000 A 
ATOM     14  C   UNL     1       1.492   4.090  18.367  0.00  0.00    +0.000 A 
ATOM     15  C   UNL     1       2.715   4.783  18.443  0.00  0.00    +0.000 A 
ENDROOT
BRANCH   1  16
ATOM     16  C   UNL     1       1.698   7.138  18.200  0.00  0.00    +0.000 C 
BRANCH  16  18
ATOM     17  C   UNL     1       1.835   9.565  18.161  0.00  0.00    +0.000 C 
ATOM     18  N   UNL     1       2.158   8.347  18.909  0.00  0.00    +0.000 NA
ATOM     19  C   UNL     1       1.561   8.414  20.242  0.00  0.00    +0.000 C 
ENDBRANCH  16  18
ENDBRANCH   1  16
TORSDOF 2
ENDMDL
MODEL 5
REMARK VINA RESULT:      -6.5      1.952      5.130
REMARK  Name = 
REMARK  4 active torsions:
REMARK  status: ('A' for Active; 'I' for Inactive)
REMARK    1  A    between atoms: C_1  and  N_2
REMARK    2  A    between atoms: N_2  and  C_3
REMARK    3  A    between atoms: N_2  and  C_4
REMARK    4  A    between atoms: C_4  and  C_5
REMARK                            x       y       z     vdW  Elec       q    Type
REMARK                         _______ _______ _______ _____ _____    ______ ____
ROOT
ATOM      1  C   UNL     1       3.115   6.793  18.292  0.00  0.00    +0.000 C 
ATOM      2  C   UNL     1       4.041   7.035  17.336  0.00  0.00    +0.000 C 
ATOM      3  C   UNL     1       5.005   6.093  16.741  0.00  0.00    +0.000 A 
ATOM      4  C   UNL     1       5.215   6.163  15.354  0.00  0.00    +0.000 A 
ATOM      5  C   UNL     1       6.145   5.329  14.728  0.00  0.00    +0.000 A 
ATOM      6  C   UNL     1       6.887   4.423  15.482  0.00  0.00    +0.000 A 
ATOM      7  C   UNL     1       6.710   4.363  16.861  0.00  0.00    +0.000 A 
ATOM      8  C   UNL     1       5.780   5.196  17.498  0.00  0.00    +0.000 A 
ATOM      9  S   UNL     1       5.644   5.073  19.276  0.00  0.00    +0.000 S 
ATOM     10  C   UNL     1       3.914   4.622  19.370  0.00  0.00    +0.000 A 
ATOM     11  C   UNL     1       3.622   3.379  19.955  0.00  0.00    +0.000 A 
ATOM     12  C   UNL     1       2.308   2.935  20.064  0.00  0.00    +0.000 A 
ATOM     13  C   UNL     1       1.273   3.732  19.591  0.00  0.00    +0.000 A 
ATOM     14  C   UNL     1       1.554   4.972  19.009  0.00  0.00    +0.000 A 
ATOM     15  C   UNL     1       2.874   5.445  18.886  0.00  0.00    +0.000 A 
ENDROOT
BRANCH   1  16
ATOM     16  C   UNL     1       2.251   7.944  18.803  0.00  0.00    +0.000 C 
BRANCH  16  18
ATOM     17  C   UNL     1       0.386   8.992  17.647  0.00  0.00    +0.000 C 
ATOM     18  N   UNL     1       1.844   8.899  17.755  0.00  0.00    +0.000 NA
ATOM     19  C   UNL     1       2.404  10.223  18.028  0.00  0.00    +0.000 C 
ENDBRANCH  16  18
ENDBRANCH   1  16
TORSDOF 2
ENDMDL
MODEL 6
REMARK VINA RESULT:      -6.4      0.857      1.051
REMARK  Name = 
REMARK  4 active torsions:
REMARK  status: ('A' for Active; 'I' for Inactive)
REMARK    1  A    between atoms: C_1  and  N_2
REMARK    2  A    between atoms: N_2  and  C_3
REMARK    3  A    between atoms: N_2  and  C_4
REMARK    4  A    between atoms: C_4  and  C_5
REMARK                            x       y       z     vdW  Elec       q    Type
REMARK                         _______ _______ _______ _____ _____    ______ ____
ROOT
ATOM      1  C   UNL     1       4.283   5.546  17.839  0.00  0.00    +0.000 C 
ATOM      2  C   UNL     1       3.987   4.228  17.913  0.00  0.00    +0.000 C 
ATOM      3  C   UNL     1       2.777   3.596  18.469  0.00  0.00    +0.000 A 
ATOM      4  C   UNL     1       2.224   2.514  17.763  0.00  0.00    +0.000 A 
ATOM      5  C   UNL     1       1.103   1.840  18.252  0.00  0.00    +0.000 A 
ATOM      6  C   UNL     1       0.526   2.229  19.458  0.00  0.00    +0.000 A 
ATOM      7  C   UNL     1       1.080   3.281  20.182  0.00  0.00    +0.000 A 
ATOM      8  C   UNL     1       2.205   3.963  19.700  0.00  0.00    +0.000 A 
ATOM      9  S   UNL     1       2.869   5.279  20.712  0.00  0.00    +0.000 S 
ATOM     10  C   UNL     1       2.703   6.616  19.533  0.00  0.00    +0.000 A 
ATOM     11  C   UNL     1       1.870   7.683  19.911  0.00  0.00    +0.000 A 
ATOM     12  C   UNL     1       1.669   8.764  19.058  0.00  0.00    +0.000 A 
ATOM     13  C   UNL     1       2.301   8.790  17.821  0.00  0.00    +0.000 A 
ATOM     14  C   UNL     1       3.134   7.733  17.438  0.00  0.00    +0.000 A 
ATOM     15  C   UNL     1       3.354   6.628  18.281  0.00  0.00    +0.000 A 
ENDROOT
BRANCH   1  16
ATOM     16  C   UNL     1       5.632   5.977  17.269  0.00  0.00    +0.000 C 
BRANCH  16  18
ATOM     17  C   UNL     1       7.300   5.641  19.006  0.00  0.00    +0.000 C 
ATOM     18  N   UNL     1       6.520   6.625  18.252  0.00  0.00    +0.000 NA
ATOM     19  C   UNL     1       7.422   7.562  17.582  0.00  0.00    +0.000 C 
ENDBRANCH  16  18
ENDBRANCH   1  16
TORSDOF 2
ENDMDL
MODEL 7
REMARK VINA RESULT:      -6.4      1.961      4.428
REMARK  Name = 
REMARK  4 active torsions:
REMARK  status: ('A' for Active; 'I' for Inactive)
REMARK    1  A    between atoms: C_1  and  N_2
REMARK    2  A    between atoms: N_2  and  C_3
REMARK    3  A    between atoms: N_2  and  C_4
REMARK    4  A    between atoms: C_4  and  C_5
REMARK                            x       y       z     vdW  Elec       q    Type
REMARK                         _______ _______ _______ _____ _____    ______ ____
ROOT
ATOM      1  C   UNL     1       3.127   6.625  18.322  0.00  0.00    +0.000 C 
ATOM      2  C   UNL     1       2.315   6.102  19.269  0.00  0.00    +0.000 C 
ATOM      3  C   UNL     1       2.300   4.726  19.799  0.00  0.00    +0.000 A 
ATOM      4  C   UNL     1       2.126   4.563  21.184  0.00  0.00    +0.000 A 
ATOM      5  C   UNL     1       2.060   3.288  21.750  0.00  0.00    +0.000 A 
ATOM      6  C   UNL     1       2.154   2.159  20.940  0.00  0.00    +0.000 A 
ATOM      7  C   UNL     1       2.297   2.306  19.563  0.00  0.00    +0.000 A 
ATOM      8  C   UNL     1       2.364   3.581  18.985  0.00  0.00    +0.000 A 
ATOM      9  S   UNL     1       2.515   3.675  17.207  0.00  0.00    +0.000 S 
ATOM     10  C   UNL     1       4.062   4.573  17.129  0.00  0.00    +0.000 A 
ATOM     11  C   UNL     1       5.132   3.921  16.492  0.00  0.00    +0.000 A 
ATOM     12  C   UNL     1       6.378   4.533  16.391  0.00  0.00    +0.000 A 
ATOM     13  C   UNL     1       6.565   5.803  16.922  0.00  0.00    +0.000 A 
ATOM     14  C   UNL     1       5.504   6.460  17.555  0.00  0.00    +0.000 A 
ATOM     15  C   UNL     1       4.235   5.864  17.671  0.00  0.00    +0.000 A 
ENDROOT
BRANCH   1  16
ATOM     16  C   UNL     1       2.926   8.074  17.884  0.00  0.00    +0.000 C 
BRANCH  16  18
ATOM     17  C   UNL     1       1.643   8.758  19.832  0.00  0.00    +0.000 C 
ATOM     18  N   UNL     1       1.672   8.679  18.370  0.00  0.00    +0.000 NA
ATOM     19  C   UNL     1       1.497  10.014  17.799  0.00  0.00    +0.000 C 
ENDBRANCH  16  18
ENDBRANCH   1  16
TORSDOF 2
ENDMDL
MODEL 8
REMARK VINA RESULT:      -6.3      1.105      1.429
REMARK  Name = 
REMARK  4 active torsions:
REMARK  status: ('A' for Active; 'I' for Inactive)
REMARK    1  A    between atoms: C_1  and  N_2
REMARK    2  A    between atoms: N_2  and  C_3
REMARK    3  A    between atoms: N_2  and  C_4
REMARK    4  A    between atoms: C_4  and  C_5
REMARK                            x       y       z     vdW  Elec       q    Type
REMARK                         _______ _______ _______ _____ _____    ______ ____
ROOT
ATOM      1  C   UNL     1       4.705   5.280  18.887  0.00  0.00    +0.000 C 
ATOM      2  C   UNL     1       4.371   3.974  19.005  0.00  0.00    +0.000 C 
ATOM      3  C   UNL     1       3.023   3.380  19.070  0.00  0.00    +0.000 A 
ATOM      4  C   UNL     1       2.797   2.195  18.350  0.00  0.00    +0.000 A 
ATOM      5  C   UNL     1       1.557   1.554  18.399  0.00  0.00    +0.000 A 
ATOM      6  C   UNL     1       0.531   2.081  19.180  0.00  0.00    +0.000 A 
ATOM      7  C   UNL     1       0.750   3.239  19.921  0.00  0.00    +0.000 A 
ATOM      8  C   UNL     1       1.991   3.889  19.878  0.00  0.00    +0.000 A 
ATOM      9  S   UNL     1       2.193   5.350  20.888  0.00  0.00    +0.000 S 
ATOM     10  C   UNL     1       2.581   6.511  19.582  0.00  0.00    +0.000 A 
ATOM     11  C   UNL     1       1.696   7.590  19.420  0.00  0.00    +0.000 A 
ATOM     12  C   UNL     1       1.906   8.540  18.426  0.00  0.00    +0.000 A 
ATOM     13  C   UNL     1       3.007   8.422  17.586  0.00  0.00    +0.000 A 
ATOM     14  C   UNL     1       3.895   7.353  17.742  0.00  0.00    +0.000 A 
ATOM     15  C   UNL     1       3.705   6.378  18.739  0.00  0.00    +0.000 A 
ENDROOT
BRANCH   1  16
ATOM     16  C   UNL     1       6.180   5.676  18.894  0.00  0.00    +0.000 C 
BRANCH  16  18
ATOM     17  C   UNL     1       7.575   6.953  17.366  0.00  0.00    +0.000 C 
ATOM     18  N   UNL     1       6.794   5.728  17.554  0.00  0.00    +0.000 NA
ATOM     19  C   UNL     1       7.648   4.560  17.340  0.00  0.00    +0.000 C 
ENDBRANCH  16  18
ENDBRANCH   1  16
TORSDOF 2
ENDMDL
MODEL 9
REMARK VINA RESULT:      -6.1      1.979      5.442
REMARK  Name = 
REMARK  4 active torsions:
REMARK  status: ('A' for Active; 'I' for Inactive)
REMARK    1  A    between atoms: C_1  and  N_2
REMARK    2  A    between atoms: N_2  and  C_3
REMARK    3  A    between atoms: N_2  and  C_4
REMARK    4  A    between atoms: C_4  and  C_5
REMARK                            x       y       z     vdW  Elec       q    Type
REMARK                         _______ _______ _______ _____ _____    ______ ____
ROOT
ATOM      1  C   UNL     1       2.477   6.000  19.446  0.00  0.00    +0.000 C 
ATOM      2  C   UNL     1       3.341   6.704  18.680  0.00  0.00    +0.000 C 
ATOM      3  C   UNL     1       4.278   6.198  17.661  0.00  0.00    +0.000 A 
ATOM      4  C   UNL     1       4.402   6.930  16.468  0.00  0.00    +0.000 A 
ATOM      5  C   UNL     1       5.301   6.533  15.476  0.00  0.00    +0.000 A 
ATOM      6  C   UNL     1       6.098   5.406  15.667  0.00  0.00    +0.000 A 
ATOM      7  C   UNL     1       6.006   4.688  16.855  0.00  0.00    +0.000 A 
ATOM      8  C   UNL     1       5.107   5.079  17.857  0.00  0.00    +0.000 A 
ATOM      9  S   UNL     1       5.080   4.117  19.364  0.00  0.00    +0.000 S 
ATOM     10  C   UNL     1       3.364   3.610  19.313  0.00  0.00    +0.000 A 
ATOM     11  C   UNL     1       3.121   2.228  19.244  0.00  0.00    +0.000 A 
ATOM     12  C   UNL     1       1.821   1.736  19.190  0.00  0.00    +0.000 A 
ATOM     13  C   UNL     1       0.751   2.621  19.206  0.00  0.00    +0.000 A 
ATOM     14  C   UNL     1       0.982   3.999  19.277  0.00  0.00    +0.000 A 
ATOM     15  C   UNL     1       2.288   4.523  19.333  0.00  0.00    +0.000 A 
ENDROOT
BRANCH   1  16
ATOM     16  C   UNL     1       1.634   6.733  20.486  0.00  0.00    +0.000 C 
BRANCH  16  18
ATOM     17  C   UNL     1       1.172   8.875  19.433  0.00  0.00    +0.000 C 
ATOM     18  N   UNL     1       1.864   8.189  20.528  0.00  0.00    +0.000 NA
ATOM     19  C   UNL     1       1.425   8.737  21.811  0.00  0.00    +0.000 C 
ENDBRANCH  16  18
ENDBRANCH   1  16
TORSDOF 2
ENDMDL
