MODEL 1
REMARK VINA RESULT:      -8.0      0.000      0.000
REMARK  Name = 
REMARK  8 active torsions:
REMARK  status: ('A' for Active; 'I' for Inactive)
REMARK    1  A    between atoms: C_1  and  O_2
REMARK    2  A    between atoms: O_2  and  C_3
REMARK    3  A    between atoms: C_6  and  N_7
REMARK    4  A    between atoms: C_8  and  C_10
REMARK    5  A    between atoms: C_10  and  N_11
REMARK    6  A    between atoms: C_20  and  C_21
REMARK    7  A    between atoms: C_26  and  O_27
REMARK    8  A    between atoms: O_27  and  C_28
REMARK                            x       y       z     vdW  Elec       q    Type
REMARK                         _______ _______ _______ _____ _____    ______ ____
ROOT
ATOM      1  C   UNL     1       2.581   6.533  17.951  0.00  0.00    +0.000 C 
ENDROOT
BRANCH   1   2
ATOM      2  N   UNL     1       2.940   5.109  17.908  0.00  0.00    +0.000 N 
ATOM      3  C   UNL     1       4.254   4.701  18.171  0.00  0.00    +0.000 A 
ATOM      4  N   UNL     1       5.254   5.646  18.362  0.00  0.00    +0.000 N 
ATOM      5  C   UNL     1       5.613   6.617  17.327  0.00  0.00    +0.000 C 
ATOM      6  C   UNL     1       7.093   6.564  16.981  0.00  0.00    +0.000 C 
ATOM      7  C   UNL     1       7.945   6.728  18.229  0.00  0.00    +0.000 C 
ATOM      8  C   UNL     1       7.602   5.623  19.220  0.00  0.00    +0.000 C 
ATOM      9  C   UNL     1       6.109   5.592  19.552  0.00  0.00    +0.000 C 
ATOM     10  N   UNL     1       4.580   3.440  18.268  0.00  0.00    +0.000 NA
ATOM     11  C   UNL     1       3.617   2.485  18.082  0.00  0.00    +0.000 A 
ATOM     12  C   UNL     1       4.050   1.050  18.163  0.00  0.00    +0.000 C 
ATOM     13  C   UNL     1       2.344   2.767  17.804  0.00  0.00    +0.000 A 
ATOM     14  C   UNL     1       1.963   4.168  17.659  0.00  0.00    +0.000 A 
ATOM     15  O   UNL     1       0.822   4.396  17.266  0.00  0.00    +0.000 OA
ENDBRANCH   1   2
BRANCH   1  17
ATOM     16  N   UNL     1       1.642   8.500  19.017  0.00  0.00    +0.000 N 
ATOM     17  C   UNL     1       2.097   7.204  19.245  0.00  0.00    +0.000 C 
ATOM     18  O   UNL     1       2.134   6.626  20.327  0.00  0.00    +0.000 OA
ATOM     19  H   UNL     1       1.220   8.608  18.101  0.00  0.00    +0.000 HD
BRANCH  16  23
ATOM     20  C   UNL     1      -0.083  10.778  22.107  0.00  0.00    +0.000 A 
ATOM     21  C   UNL     1       0.080   9.390  22.227  0.00  0.00    +0.000 A 
ATOM     22  C   UNL     1       0.635   8.647  21.186  0.00  0.00    +0.000 A 
ATOM     23  C   UNL     1       1.060   9.287  20.026  0.00  0.00    +0.000 A 
ATOM     24  C   UNL     1       0.863  10.659  19.881  0.00  0.00    +0.000 A 
ATOM     25  C   UNL     1       0.256  11.411  20.900  0.00  0.00    +0.000 A 
BRANCH  20  27
ATOM     26  C   UNL     1      -2.001  11.711  23.122  0.00  0.00    +0.000 C 
ATOM     27  O   UNL     1      -0.586  11.521  23.143  0.00  0.00    +0.000 OA
ENDBRANCH  20  27
BRANCH  25  28
ATOM     28  O   UNL     1       0.096  12.724  20.543  0.00  0.00    +0.000 OA
ATOM     29  C   UNL     1      -0.812  13.050  19.503  0.00  0.00    +0.000 C 
ENDBRANCH  25  28
ENDBRANCH  16  23
ENDBRANCH   1  17
TORSDOF 5
ENDMDL
MODEL 2
REMARK VINA RESULT:      -7.9      1.838      2.672
REMARK  Name = 
REMARK  8 active torsions:
REMARK  status: ('A' for Active; 'I' for Inactive)
REMARK    1  A    between atoms: C_1  and  O_2
REMARK    2  A    between atoms: O_2  and  C_3
REMARK    3  A    between atoms: C_6  and  N_7
REMARK    4  A    between atoms: C_8  and  C_10
REMARK    5  A    between atoms: C_10  and  N_11
REMARK    6  A    between atoms: C_20  and  C_21
REMARK    7  A    between atoms: C_26  and  O_27
REMARK    8  A    between atoms: O_27  and  C_28
REMARK                            x       y       z     vdW  Elec       q    Type
REMARK                         _______ _______ _______ _____ _____    ______ ____
ROOT
ATOM      1  C   UNL     1       2.463   5.646  18.174  0.00  0.00    +0.000 C 
ENDROOT
BRANCH   1   2
ATOM      2  N   UNL     1       3.001   4.481  18.891  0.00  0.00    +0.000 N 
ATOM      3  C   UNL     1       4.315   4.052  18.662  0.00  0.00    +0.000 A 
ATOM      4  N   UNL     1       5.083   4.653  17.673  0.00  0.00    +0.000 N 
ATOM      5  C   UNL     1       4.683   4.640  16.264  0.00  0.00    +0.000 C 
ATOM      6  C   UNL     1       5.764   4.053  15.368  0.00  0.00    +0.000 C 
ATOM      7  C   UNL     1       7.086   4.774  15.573  0.00  0.00    +0.000 C 
ATOM      8  C   UNL     1       7.500   4.656  17.034  0.00  0.00    +0.000 C 
ATOM      9  C   UNL     1       6.417   5.175  17.983  0.00  0.00    +0.000 C 
ATOM     10  N   UNL     1       4.866   3.105  19.371  0.00  0.00    +0.000 NA
ATOM     11  C   UNL     1       4.133   2.493  20.352  0.00  0.00    +0.000 A 
ATOM     12  C   UNL     1       4.798   1.382  21.112  0.00  0.00    +0.000 C 
ATOM     13  C   UNL     1       2.869   2.810  20.633  0.00  0.00    +0.000 A 
ATOM     14  C   UNL     1       2.221   3.842  19.832  0.00  0.00    +0.000 A 
ATOM     15  O   UNL     1       1.020   4.017  20.017  0.00  0.00    +0.000 OA
ENDBRANCH   1   2
BRANCH   1  17
ATOM     16  N   UNL     1       1.874   7.991  17.964  0.00  0.00    +0.000 N 
ATOM     17  C   UNL     1       2.317   7.015  18.854  0.00  0.00    +0.000 C 
ATOM     18  O   UNL     1       2.578   7.179  20.042  0.00  0.00    +0.000 OA
ATOM     19  H   UNL     1       1.258   7.615  17.251  0.00  0.00    +0.000 HD
BRANCH  16  23
ATOM     20  C   UNL     1       1.027  11.955  19.096  0.00  0.00    +0.000 A 
ATOM     21  C   UNL     1       2.116  11.649  18.266  0.00  0.00    +0.000 A 
ATOM     22  C   UNL     1       2.396  10.328  17.917  0.00  0.00    +0.000 A 
ATOM     23  C   UNL     1       1.572   9.302  18.368  0.00  0.00    +0.000 A 
ATOM     24  C   UNL     1       0.513   9.592  19.226  0.00  0.00    +0.000 A 
ATOM     25  C   UNL     1       0.253  10.912  19.630  0.00  0.00    +0.000 A 
BRANCH  20  27
ATOM     26  C   UNL     1      -0.335  13.829  18.637  0.00  0.00    +0.000 C 
ATOM     27  O   UNL     1       0.720  13.254  19.407  0.00  0.00    +0.000 OA
ENDBRANCH  20  27
BRANCH  25  28
ATOM     28  O   UNL     1      -0.786  10.981  20.520  0.00  0.00    +0.000 OA
ATOM     29  C   UNL     1      -0.502  11.045  21.908  0.00  0.00    +0.000 C 
ENDBRANCH  25  28
ENDBRANCH  16  23
ENDBRANCH   1  17
TORSDOF 5
ENDMDL
MODEL 3
REMARK VINA RESULT:      -7.7      2.392      4.044
REMARK  Name = 
REMARK  8 active torsions:
REMARK  status: ('A' for Active; 'I' for Inactive)
REMARK    1  A    between atoms: C_1  and  O_2
REMARK    2  A    between atoms: O_2  and  C_3
REMARK    3  A    between atoms: C_6  and  N_7
REMARK    4  A    between atoms: C_8  and  C_10
REMARK    5  A    between atoms: C_10  and  N_11
REMARK    6  A    between atoms: C_20  and  C_21
REMARK    7  A    between atoms: C_26  and  O_27
REMARK    8  A    between atoms: O_27  and  C_28
REMARK                            x       y       z     vdW  Elec       q    Type
REMARK                         _______ _______ _______ _____ _____    ______ ____
ROOT
ATOM      1  C   UNL     1       3.599   7.107  18.820  0.00  0.00    +0.000 C 
ENDROOT
BRANCH   1   2
ATOM      2  N   UNL     1       4.221   6.205  17.841  0.00  0.00    +0.000 N 
ATOM      3  C   UNL     1       3.743   4.898  17.678  0.00  0.00    +0.000 A 
ATOM      4  N   UNL     1       2.754   4.406  18.520  0.00  0.00    +0.000 N 
ATOM      5  C   UNL     1       2.945   4.306  19.968  0.00  0.00    +0.000 C 
ATOM      6  C   UNL     1       2.706   2.894  20.481  0.00  0.00    +0.000 C 
ATOM      7  C   UNL     1       1.335   2.391  20.056  0.00  0.00    +0.000 C 
ATOM      8  C   UNL     1       1.241   2.416  18.536  0.00  0.00    +0.000 C 
ATOM      9  C   UNL     1       1.538   3.803  17.964  0.00  0.00    +0.000 C 
ATOM     10  N   UNL     1       4.184   4.114  16.732  0.00  0.00    +0.000 NA
ATOM     11  C   UNL     1       5.161   4.570  15.888  0.00  0.00    +0.000 A 
ATOM     12  C   UNL     1       5.664   3.617  14.843  0.00  0.00    +0.000 C 
ATOM     13  C   UNL     1       5.698   5.787  15.973  0.00  0.00    +0.000 A 
ATOM     14  C   UNL     1       5.245   6.669  17.042  0.00  0.00    +0.000 A 
ATOM     15  O   UNL     1       5.852   7.727  17.186  0.00  0.00    +0.000 OA
ENDBRANCH   1   2
BRANCH   1  17
ATOM     16  N   UNL     1       1.741   8.525  19.474  0.00  0.00    +0.000 N 
ATOM     17  C   UNL     1       2.552   8.151  18.405  0.00  0.00    +0.000 C 
ATOM     18  O   UNL     1       2.476   8.569  17.254  0.00  0.00    +0.000 OA
ATOM     19  H   UNL     1       2.232   8.500  20.361  0.00  0.00    +0.000 HD
BRANCH  16  23
ATOM     20  C   UNL     1      -1.114  11.608  19.237  0.00  0.00    +0.000 A 
ATOM     21  C   UNL     1      -0.257  11.489  20.341  0.00  0.00    +0.000 A 
ATOM     22  C   UNL     1       0.670  10.450  20.414  0.00  0.00    +0.000 A 
ATOM     23  C   UNL     1       0.771   9.536  19.370  0.00  0.00    +0.000 A 
ATOM     24  C   UNL     1      -0.104   9.621  18.289  0.00  0.00    +0.000 A 
ATOM     25  C   UNL     1      -1.079  10.630  18.229  0.00  0.00    +0.000 A 
BRANCH  20  27
ATOM     26  C   UNL     1      -3.084  12.616  20.061  0.00  0.00    +0.000 C 
ATOM     27  O   UNL     1      -1.997  12.651  19.137  0.00  0.00    +0.000 OA
ENDBRANCH  20  27
BRANCH  25  28
ATOM     28  O   UNL     1      -1.879  10.506  17.124  0.00  0.00    +0.000 OA
ATOM     29  C   UNL     1      -3.099   9.790  17.232  0.00  0.00    +0.000 C 
ENDBRANCH  25  28
ENDBRANCH  16  23
ENDBRANCH   1  17
TORSDOF 5
ENDMDL
MODEL 4
REMARK VINA RESULT:      -7.6      2.182      4.013
REMARK  Name = 
REMARK  8 active torsions:
REMARK  status: ('A' for Active; 'I' for Inactive)
REMARK    1  A    between atoms: C_1  and  O_2
REMARK    2  A    between atoms: O_2  and  C_3
REMARK    3  A    between atoms: C_6  and  N_7
REMARK    4  A    between atoms: C_8  and  C_10
REMARK    5  A    between atoms: C_10  and  N_11
REMARK    6  A    between atoms: C_20  and  C_21
REMARK    7  A    between atoms: C_26  and  O_27
REMARK    8  A    between atoms: O_27  and  C_28
REMARK                            x       y       z     vdW  Elec       q    Type
REMARK                         _______ _______ _______ _____ _____    ______ ____
ROOT
ATOM      1  C   UNL     1       3.875   7.054  18.657  0.00  0.00    +0.000 C 
ENDROOT
BRANCH   1   2
ATOM      2  N   UNL     1       4.439   6.161  17.635  0.00  0.00    +0.000 N 
ATOM      3  C   UNL     1       3.929   4.867  17.465  0.00  0.00    +0.000 A 
ATOM      4  N   UNL     1       2.965   4.376  18.335  0.00  0.00    +0.000 N 
ATOM      5  C   UNL     1       3.213   4.241  19.772  0.00  0.00    +0.000 C 
ATOM      6  C   UNL     1       2.966   2.823  20.265  0.00  0.00    +0.000 C 
ATOM      7  C   UNL     1       1.570   2.356  19.886  0.00  0.00    +0.000 C 
ATOM      8  C   UNL     1       1.415   2.415  18.372  0.00  0.00    +0.000 C 
ATOM      9  C   UNL     1       1.716   3.809  17.817  0.00  0.00    +0.000 C 
ATOM     10  N   UNL     1       4.316   4.095  16.485  0.00  0.00    +0.000 NA
ATOM     11  C   UNL     1       5.267   4.550  15.612  0.00  0.00    +0.000 A 
ATOM     12  C   UNL     1       5.709   3.611  14.528  0.00  0.00    +0.000 C 
ATOM     13  C   UNL     1       5.832   5.755  15.701  0.00  0.00    +0.000 A 
ATOM     14  C   UNL     1       5.439   6.623  16.805  0.00  0.00    +0.000 A 
ATOM     15  O   UNL     1       6.072   7.666  16.946  0.00  0.00    +0.000 OA
ENDBRANCH   1   2
BRANCH   1  17
ATOM     16  N   UNL     1       1.953   8.298  19.460  0.00  0.00    +0.000 N 
ATOM     17  C   UNL     1       2.731   8.026  18.336  0.00  0.00    +0.000 C 
ATOM     18  O   UNL     1       2.560   8.476  17.208  0.00  0.00    +0.000 OA
ATOM     19  H   UNL     1       2.492   8.281  20.319  0.00  0.00    +0.000 HD
BRANCH  16  23
ATOM     20  C   UNL     1      -1.219  11.061  19.324  0.00  0.00    +0.000 A 
ATOM     21  C   UNL     1      -0.764  10.414  18.165  0.00  0.00    +0.000 A 
ATOM     22  C   UNL     1       0.302   9.517  18.223  0.00  0.00    +0.000 A 
ATOM     23  C   UNL     1       0.903   9.233  19.445  0.00  0.00    +0.000 A 
ATOM     24  C   UNL     1       0.486   9.902  20.594  0.00  0.00    +0.000 A 
ATOM     25  C   UNL     1      -0.550  10.849  20.540  0.00  0.00    +0.000 A 
BRANCH  20  27
ATOM     26  C   UNL     1      -3.319  11.545  18.358  0.00  0.00    +0.000 C 
ATOM     27  O   UNL     1      -2.294  11.910  19.281  0.00  0.00    +0.000 OA
ENDBRANCH  20  27
BRANCH  25  28
ATOM     28  O   UNL     1      -0.770  11.439  21.757  0.00  0.00    +0.000 OA
ATOM     29  C   UNL     1      -0.891  10.620  22.908  0.00  0.00    +0.000 C 
ENDBRANCH  25  28
ENDBRANCH  16  23
ENDBRANCH   1  17
TORSDOF 5
ENDMDL
MODEL 5
REMARK VINA RESULT:      -7.6      1.869      2.663
REMARK  Name = 
REMARK  8 active torsions:
REMARK  status: ('A' for Active; 'I' for Inactive)
REMARK    1  A    between atoms: C_1  and  O_2
REMARK    2  A    between atoms: O_2  and  C_3
REMARK    3  A    between atoms: C_6  and  N_7
REMARK    4  A    between atoms: C_8  and  C_10
REMARK    5  A    between atoms: C_10  and  N_11
REMARK    6  A    between atoms: C_20  and  C_21
REMARK    7  A    between atoms: C_26  and  O_27
REMARK    8  A    between atoms: O_27  and  C_28
REMARK                            x       y       z     vdW  Elec       q    Type
REMARK                         _______ _______ _______ _____ _____    ______ ____
ROOT
ATOM      1  C   UNL     1       2.432   5.456  17.895  0.00  0.00    +0.000 C 
ENDROOT
BRANCH   1   2
ATOM      2  N   UNL     1       2.984   4.357  18.700  0.00  0.00    +0.000 N 
ATOM      3  C   UNL     1       4.324   3.975  18.552  0.00  0.00    +0.000 A 
ATOM      4  N   UNL     1       5.111   4.553  17.565  0.00  0.00    +0.000 N 
ATOM      5  C   UNL     1       4.777   4.446  16.143  0.00  0.00    +0.000 C 
ATOM      6  C   UNL     1       5.921   3.859  15.330  0.00  0.00    +0.000 C 
ATOM      7  C   UNL     1       7.201   4.649  15.552  0.00  0.00    +0.000 C 
ATOM      8  C   UNL     1       7.553   4.629  17.034  0.00  0.00    +0.000 C 
ATOM      9  C   UNL     1       6.407   5.151  17.903  0.00  0.00    +0.000 C 
ATOM     10  N   UNL     1       4.881   3.093  19.338  0.00  0.00    +0.000 NA
ATOM     11  C   UNL     1       4.131   2.503  20.319  0.00  0.00    +0.000 A 
ATOM     12  C   UNL     1       4.806   1.467  21.169  0.00  0.00    +0.000 C 
ATOM     13  C   UNL     1       2.843   2.779  20.526  0.00  0.00    +0.000 A 
ATOM     14  C   UNL     1       2.190   3.736  19.641  0.00  0.00    +0.000 A 
ATOM     15  O   UNL     1       0.975   3.868  19.763  0.00  0.00    +0.000 OA
ENDBRANCH   1   2
BRANCH   1  17
ATOM     16  N   UNL     1       1.392   7.505  18.674  0.00  0.00    +0.000 N 
ATOM     17  C   UNL     1       2.605   6.924  18.309  0.00  0.00    +0.000 C 
ATOM     18  O   UNL     1       3.700   7.476  18.296  0.00  0.00    +0.000 OA
ATOM     19  H   UNL     1       0.756   6.841  19.102  0.00  0.00    +0.000 HD
BRANCH  16  23
ATOM     20  C   UNL     1       1.114  11.455  20.099  0.00  0.00    +0.000 A 
ATOM     21  C   UNL     1       1.437  11.182  18.762  0.00  0.00    +0.000 A 
ATOM     22  C   UNL     1       1.545   9.868  18.310  0.00  0.00    +0.000 A 
ATOM     23  C   UNL     1       1.302   8.812  19.183  0.00  0.00    +0.000 A 
ATOM     24  C   UNL     1       1.022   9.073  20.523  0.00  0.00    +0.000 A 
ATOM     25  C   UNL     1       0.964  10.391  21.003  0.00  0.00    +0.000 A 
BRANCH  20  27
ATOM     26  C   UNL     1       2.156  13.527  20.547  0.00  0.00    +0.000 C 
ATOM     27  O   UNL     1       0.962  12.744  20.540  0.00  0.00    +0.000 OA
ENDBRANCH  20  27
BRANCH  25  28
ATOM     28  O   UNL     1       0.739  10.436  22.354  0.00  0.00    +0.000 OA
ATOM     29  C   UNL     1      -0.218   9.557  22.923  0.00  0.00    +0.000 C 
ENDBRANCH  25  28
ENDBRANCH  16  23
ENDBRANCH   1  17
TORSDOF 5
ENDMDL
MODEL 6
REMARK VINA RESULT:      -7.5      0.945      1.699
REMARK  Name = 
REMARK  8 active torsions:
REMARK  status: ('A' for Active; 'I' for Inactive)
REMARK    1  A    between atoms: C_1  and  O_2
REMARK    2  A    between atoms: O_2  and  C_3
REMARK    3  A    between atoms: C_6  and  N_7
REMARK    4  A    between atoms: C_8  and  C_10
REMARK    5  A    between atoms: C_10  and  N_11
REMARK    6  A    between atoms: C_20  and  C_21
REMARK    7  A    between atoms: C_26  and  O_27
REMARK    8  A    between atoms: O_27  and  C_28
REMARK                            x       y       z     vdW  Elec       q    Type
REMARK                         _______ _______ _______ _____ _____    ______ ____
ROOT
ATOM      1  C   UNL     1       2.692   6.692  17.692  0.00  0.00    +0.000 C 
ENDROOT
BRANCH   1   2
ATOM      2  N   UNL     1       2.964   5.253  17.817  0.00  0.00    +0.000 N 
ATOM      3  C   UNL     1       4.242   4.802  18.175  0.00  0.00    +0.000 A 
ATOM      4  N   UNL     1       5.290   5.704  18.302  0.00  0.00    +0.000 N 
ATOM      5  C   UNL     1       5.743   6.533  17.183  0.00  0.00    +0.000 C 
ATOM      6  C   UNL     1       7.228   6.357  16.905  0.00  0.00    +0.000 C 
ATOM      7  C   UNL     1       8.046   6.609  18.161  0.00  0.00    +0.000 C 
ATOM      8  C   UNL     1       7.603   5.641  19.251  0.00  0.00    +0.000 C 
ATOM      9  C   UNL     1       6.100   5.733  19.525  0.00  0.00    +0.000 C 
ATOM     10  N   UNL     1       4.486   3.544  18.421  0.00  0.00    +0.000 NA
ATOM     11  C   UNL     1       3.474   2.630  18.301  0.00  0.00    +0.000 A 
ATOM     12  C   UNL     1       3.815   1.190  18.553  0.00  0.00    +0.000 C 
ATOM     13  C   UNL     1       2.230   2.953  17.943  0.00  0.00    +0.000 A 
ATOM     14  C   UNL     1       1.940   4.348  17.632  0.00  0.00    +0.000 A 
ATOM     15  O   UNL     1       0.829   4.596  17.172  0.00  0.00    +0.000 OA
ENDBRANCH   1   2
BRANCH   1  17
ATOM     16  N   UNL     1       1.515   8.710  18.348  0.00  0.00    +0.000 N 
ATOM     17  C   UNL     1       1.980   7.477  18.802  0.00  0.00    +0.000 C 
ATOM     18  O   UNL     1       1.866   7.032  19.940  0.00  0.00    +0.000 OA
ATOM     19  H   UNL     1       1.242   8.686  17.372  0.00  0.00    +0.000 HD
BRANCH  16  23
ATOM     20  C   UNL     1      -0.853  11.299  20.671  0.00  0.00    +0.000 A 
ATOM     21  C   UNL     1      -0.990  11.238  19.277  0.00  0.00    +0.000 A 
ATOM     22  C   UNL     1      -0.184  10.390  18.519  0.00  0.00    +0.000 A 
ATOM     23  C   UNL     1       0.747   9.571  19.150  0.00  0.00    +0.000 A 
ATOM     24  C   UNL     1       0.920   9.656  20.530  0.00  0.00    +0.000 A 
ATOM     25  C   UNL     1       0.152  10.545  21.299  0.00  0.00    +0.000 A 
BRANCH  20  27
ATOM     26  C   UNL     1      -1.185  13.419  21.659  0.00  0.00    +0.000 C 
ATOM     27  O   UNL     1      -1.672  12.098  21.426  0.00  0.00    +0.000 OA
ENDBRANCH  20  27
BRANCH  25  28
ATOM     28  O   UNL     1       0.513  10.525  22.620  0.00  0.00    +0.000 OA
ATOM     29  C   UNL     1       0.024   9.485  23.452  0.00  0.00    +0.000 C 
ENDBRANCH  25  28
ENDBRANCH  16  23
ENDBRANCH   1  17
TORSDOF 5
ENDMDL
MODEL 7
REMARK VINA RESULT:      -7.5      1.980      2.499
REMARK  Name = 
REMARK  8 active torsions:
REMARK  status: ('A' for Active; 'I' for Inactive)
REMARK    1  A    between atoms: C_1  and  O_2
REMARK    2  A    between atoms: O_2  and  C_3
REMARK    3  A    between atoms: C_6  and  N_7
REMARK    4  A    between atoms: C_8  and  C_10
REMARK    5  A    between atoms: C_10  and  N_11
REMARK    6  A    between atoms: C_20  and  C_21
REMARK    7  A    between atoms: C_26  and  O_27
REMARK    8  A    between atoms: O_27  and  C_28
REMARK                            x       y       z     vdW  Elec       q    Type
REMARK                         _______ _______ _______ _____ _____    ______ ____
ROOT
ATOM      1  C   UNL     1       2.529   5.825  18.216  0.00  0.00    +0.000 C 
ENDROOT
BRANCH   1   2
ATOM      2  N   UNL     1       3.027   4.627  18.907  0.00  0.00    +0.000 N 
ATOM      3  C   UNL     1       4.323   4.155  18.662  0.00  0.00    +0.000 A 
ATOM      4  N   UNL     1       5.108   4.746  17.680  0.00  0.00    +0.000 N 
ATOM      5  C   UNL     1       4.701   4.776  16.274  0.00  0.00    +0.000 C 
ATOM      6  C   UNL     1       5.755   4.168  15.360  0.00  0.00    +0.000 C 
ATOM      7  C   UNL     1       7.104   4.836  15.573  0.00  0.00    +0.000 C 
ATOM      8  C   UNL     1       7.520   4.673  17.029  0.00  0.00    +0.000 C 
ATOM      9  C   UNL     1       6.462   5.213  17.994  0.00  0.00    +0.000 C 
ATOM     10  N   UNL     1       4.842   3.174  19.349  0.00  0.00    +0.000 NA
ATOM     11  C   UNL     1       4.092   2.569  20.322  0.00  0.00    +0.000 A 
ATOM     12  C   UNL     1       4.719   1.420  21.056  0.00  0.00    +0.000 C 
ATOM     13  C   UNL     1       2.842   2.927  20.616  0.00  0.00    +0.000 A 
ATOM     14  C   UNL     1       2.229   3.998  19.839  0.00  0.00    +0.000 A 
ATOM     15  O   UNL     1       1.035   4.214  20.034  0.00  0.00    +0.000 OA
ENDBRANCH   1   2
BRANCH   1  17
ATOM     16  N   UNL     1       1.883   8.161  18.098  0.00  0.00    +0.000 N 
ATOM     17  C   UNL     1       2.312   7.152  18.958  0.00  0.00    +0.000 C 
ATOM     18  O   UNL     1       2.512   7.260  20.163  0.00  0.00    +0.000 OA
ATOM     19  H   UNL     1       1.311   7.807  17.338  0.00  0.00    +0.000 HD
BRANCH  16  23
ATOM     20  C   UNL     1       0.763  11.951  19.546  0.00  0.00    +0.000 A 
ATOM     21  C   UNL     1       0.153  10.779  20.018  0.00  0.00    +0.000 A 
ATOM     22  C   UNL     1       0.520   9.532  19.513  0.00  0.00    +0.000 A 
ATOM     23  C   UNL     1       1.523   9.441  18.554  0.00  0.00    +0.000 A 
ATOM     24  C   UNL     1       2.106  10.602  18.049  0.00  0.00    +0.000 A 
ATOM     25  C   UNL     1       1.706  11.867  18.509  0.00  0.00    +0.000 A 
BRANCH  20  27
ATOM     26  C   UNL     1      -0.687  13.813  19.464  0.00  0.00    +0.000 C 
ATOM     27  O   UNL     1       0.438  13.175  20.069  0.00  0.00    +0.000 OA
ENDBRANCH  20  27
BRANCH  25  28
ATOM     28  O   UNL     1       2.348  12.880  17.847  0.00  0.00    +0.000 OA
ATOM     29  C   UNL     1       3.336  13.634  18.533  0.00  0.00    +0.000 C 
ENDBRANCH  25  28
ENDBRANCH  16  23
ENDBRANCH   1  17
TORSDOF 5
ENDMDL
MODEL 8
REMARK VINA RESULT:      -7.5      2.891      8.862
REMARK  Name = 
REMARK  8 active torsions:
REMARK  status: ('A' for Active; 'I' for Inactive)
REMARK    1  A    between atoms: C_1  and  O_2
REMARK    2  A    between atoms: O_2  and  C_3
REMARK    3  A    between atoms: C_6  and  N_7
REMARK    4  A    between atoms: C_8  and  C_10
REMARK    5  A    between atoms: C_10  and  N_11
REMARK    6  A    between atoms: C_20  and  C_21
REMARK    7  A    between atoms: C_26  and  O_27
REMARK    8  A    between atoms: O_27  and  C_28
REMARK                            x       y       z     vdW  Elec       q    Type
REMARK                         _______ _______ _______ _____ _____    ______ ____
ROOT
ATOM      1  C   UNL     1       0.309  11.027  19.045  0.00  0.00    +0.000 C 
ENDROOT
BRANCH   1   2
ATOM      2  N   UNL     1      -1.138  11.108  18.805  0.00  0.00    +0.000 N 
ATOM      3  C   UNL     1      -1.943  11.937  19.598  0.00  0.00    +0.000 A 
ATOM      4  N   UNL     1      -1.399  12.601  20.689  0.00  0.00    +0.000 N 
ATOM      5  C   UNL     1      -0.790  11.883  21.811  0.00  0.00    +0.000 C 
ATOM      6  C   UNL     1      -1.419  12.263  23.143  0.00  0.00    +0.000 C 
ATOM      7  C   UNL     1      -1.381  13.768  23.348  0.00  0.00    +0.000 C 
ATOM      8  C   UNL     1      -2.127  14.449  22.208  0.00  0.00    +0.000 C 
ATOM      9  C   UNL     1      -1.572  14.050  20.839  0.00  0.00    +0.000 C 
ATOM     10  N   UNL     1      -3.206  12.132  19.332  0.00  0.00    +0.000 NA
ATOM     11  C   UNL     1      -3.772  11.489  18.264  0.00  0.00    +0.000 A 
ATOM     12  C   UNL     1      -5.236  11.714  18.025  0.00  0.00    +0.000 C 
ATOM     13  C   UNL     1      -3.100  10.662  17.463  0.00  0.00    +0.000 A 
ATOM     14  C   UNL     1      -1.695  10.403  17.759  0.00  0.00    +0.000 A 
ATOM     15  O   UNL     1      -1.138   9.533  17.094  0.00  0.00    +0.000 OA
ENDBRANCH   1   2
BRANCH   1  17
ATOM     16  N   UNL     1       1.552   9.035  18.433  0.00  0.00    +0.000 N 
ATOM     17  C   UNL     1       0.979   9.722  19.501  0.00  0.00    +0.000 C 
ATOM     18  O   UNL     1       0.978   9.369  20.676  0.00  0.00    +0.000 OA
ATOM     19  H   UNL     1       1.898   9.657  17.711  0.00  0.00    +0.000 HD
BRANCH  16  23
ATOM     20  C   UNL     1       3.883   5.560  18.887  0.00  0.00    +0.000 A 
ATOM     21  C   UNL     1       4.095   6.448  17.821  0.00  0.00    +0.000 A 
ATOM     22  C   UNL     1       3.300   7.584  17.673  0.00  0.00    +0.000 A 
ATOM     23  C   UNL     1       2.306   7.861  18.606  0.00  0.00    +0.000 A 
ATOM     24  C   UNL     1       2.061   6.964  19.644  0.00  0.00    +0.000 A 
ATOM     25  C   UNL     1       2.818   5.789  19.773  0.00  0.00    +0.000 A 
BRANCH  20  27
ATOM     26  C   UNL     1       4.259   3.282  18.393  0.00  0.00    +0.000 C 
ATOM     27  O   UNL     1       4.689   4.466  19.064  0.00  0.00    +0.000 OA
ENDBRANCH  20  27
BRANCH  25  28
ATOM     28  O   UNL     1       2.385   5.011  20.815  0.00  0.00    +0.000 OA
ATOM     29  C   UNL     1       1.285   4.138  20.612  0.00  0.00    +0.000 C 
ENDBRANCH  25  28
ENDBRANCH  16  23
ENDBRANCH   1  17
TORSDOF 5
ENDMDL
MODEL 9
REMARK VINA RESULT:      -7.5      1.811      1.976
REMARK  Name = 
REMARK  8 active torsions:
REMARK  status: ('A' for Active; 'I' for Inactive)
REMARK    1  A    between atoms: C_1  and  O_2
REMARK    2  A    between atoms: O_2  and  C_3
REMARK    3  A    between atoms: C_6  and  N_7
REMARK    4  A    between atoms: C_8  and  C_10
REMARK    5  A    between atoms: C_10  and  N_11
REMARK    6  A    between atoms: C_20  and  C_21
REMARK    7  A    between atoms: C_26  and  O_27
REMARK    8  A    between atoms: O_27  and  C_28
REMARK                            x       y       z     vdW  Elec       q    Type
REMARK                         _______ _______ _______ _____ _____    ______ ____
ROOT
ATOM      1  C   UNL     1       2.485   5.514  17.884  0.00  0.00    +0.000 C 
ENDROOT
BRANCH   1   2
ATOM      2  N   UNL     1       3.011   4.411  18.701  0.00  0.00    +0.000 N 
ATOM      3  C   UNL     1       4.347   4.008  18.571  0.00  0.00    +0.000 A 
ATOM      4  N   UNL     1       5.154   4.569  17.590  0.00  0.00    +0.000 N 
ATOM      5  C   UNL     1       4.835   4.459  16.165  0.00  0.00    +0.000 C 
ATOM      6  C   UNL     1       5.979   3.851  15.368  0.00  0.00    +0.000 C 
ATOM      7  C   UNL     1       7.269   4.622  15.601  0.00  0.00    +0.000 C 
ATOM      8  C   UNL     1       7.602   4.604  17.087  0.00  0.00    +0.000 C 
ATOM      9  C   UNL     1       6.455   5.148  17.940  0.00  0.00    +0.000 C 
ATOM     10  N   UNL     1       4.881   3.123  19.368  0.00  0.00    +0.000 NA
ATOM     11  C   UNL     1       4.110   2.549  20.343  0.00  0.00    +0.000 A 
ATOM     12  C   UNL     1       4.759   1.507  21.206  0.00  0.00    +0.000 C 
ATOM     13  C   UNL     1       2.824   2.846  20.534  0.00  0.00    +0.000 A 
ATOM     14  C   UNL     1       2.196   3.808  19.636  0.00  0.00    +0.000 A 
ATOM     15  O   UNL     1       0.982   3.959  19.743  0.00  0.00    +0.000 OA
ENDBRANCH   1   2
BRANCH   1  17
ATOM     16  N   UNL     1       1.364   7.291  19.097  0.00  0.00    +0.000 N 
ATOM     17  C   UNL     1       2.512   6.968  18.378  0.00  0.00    +0.000 C 
ATOM     18  O   UNL     1       3.454   7.717  18.137  0.00  0.00    +0.000 OA
ATOM     19  H   UNL     1       0.989   6.499  19.609  0.00  0.00    +0.000 HD
BRANCH  16  23
ATOM     20  C   UNL     1       0.894  10.966  21.094  0.00  0.00    +0.000 A 
ATOM     21  C   UNL     1       1.046   9.765  21.802  0.00  0.00    +0.000 A 
ATOM     22  C   UNL     1       1.180   8.553  21.126  0.00  0.00    +0.000 A 
ATOM     23  C   UNL     1       1.194   8.532  19.735  0.00  0.00    +0.000 A 
ATOM     24  C   UNL     1       1.002   9.715  19.023  0.00  0.00    +0.000 A 
ATOM     25  C   UNL     1       0.812  10.935  19.692  0.00  0.00    +0.000 A 
BRANCH  20  27
ATOM     26  C   UNL     1      -0.512  12.548  22.142  0.00  0.00    +0.000 C 
ATOM     27  O   UNL     1       0.806  12.166  21.751  0.00  0.00    +0.000 OA
ENDBRANCH  20  27
BRANCH  25  28
ATOM     28  O   UNL     1       0.578  11.967  18.822  0.00  0.00    +0.000 OA
ATOM     29  C   UNL     1      -0.758  12.271  18.455  0.00  0.00    +0.000 C 
ENDBRANCH  25  28
ENDBRANCH  16  23
ENDBRANCH   1  17
TORSDOF 5
ENDMDL
