MODEL 1
REMARK VINA RESULT:      -8.3      0.000      0.000
REMARK  Name = 
REMARK  3 active torsions:
REMARK  status: ('A' for Active; 'I' for Inactive)
REMARK    1  A    between atoms: C_1  and  C_2
REMARK    2  A    between atoms: C_2  and  O_3
REMARK    3  A    between atoms: O_3  and  C_4
REMARK                            x       y       z     vdW  Elec       q    Type
REMARK                         _______ _______ _______ _____ _____    ______ ____
ROOT
ATOM      1  C   UNL     1       6.688   4.643  14.787  0.00  0.00    +0.000 C 
ATOM      2  O   UNL     1       7.841   5.008  14.592  0.00  0.00    +0.000 OA
ATOM      3  N   UNL     1       6.117   4.531  16.040  0.00  0.00    +0.000 N 
ATOM      4  C   UNL     1       6.873   4.926  17.217  0.00  0.00    +0.000 C 
ATOM      5  C   UNL     1       6.109   5.966  18.040  0.00  0.00    +0.000 C 
ATOM      6  C   UNL     1       4.682   5.491  18.362  0.00  0.00    +0.000 C 
ATOM      7  C   UNL     1       3.962   5.095  17.055  0.00  0.00    +0.000 C 
ATOM      8  C   UNL     1       4.755   4.063  16.270  0.00  0.00    +0.000 C 
ATOM      9  N   UNL     1       3.929   6.525  19.039  0.00  0.00    +0.000 N 
ATOM     10  C   UNL     1       2.719   6.240  19.638  0.00  0.00    +0.000 C 
ATOM     11  O   UNL     1       1.868   7.102  19.802  0.00  0.00    +0.000 OA
ATOM     12  C   UNL     1       2.523   4.841  20.087  0.00  0.00    +0.000 A 
ATOM     13  C   UNL     1       1.320   4.415  20.650  0.00  0.00    +0.000 A 
ATOM     14  C   UNL     1       1.210   3.105  21.114  0.00  0.00    +0.000 A 
ATOM     15  C   UNL     1       2.304   2.241  21.033  0.00  0.00    +0.000 A 
ATOM     16  C   UNL     1       3.503   2.677  20.462  0.00  0.00    +0.000 A 
ATOM     17  C   UNL     1       3.618   3.977  19.973  0.00  0.00    +0.000 A 
ATOM     18  N   UNL     1       4.750   4.366  19.277  0.00  0.00    +0.000 N 
ATOM     19  H   UNL     1       3.971   7.464  18.676  0.00  0.00    +0.000 HD
ATOM     20  H   UNL     1       5.628   3.907  19.473  0.00  0.00    +0.000 HD
ENDROOT
BRANCH   1  21
ATOM     21  O   UNL     1       5.792   4.402  13.795  0.00  0.00    +0.000 OA
BRANCH  21  23
ATOM     22  C   UNL     1       5.086   3.161  11.883  0.00  0.00    +0.000 C 
ATOM     23  C   UNL     1       6.278   3.578  12.730  0.00  0.00    +0.000 C 
ENDBRANCH  21  23
ENDBRANCH   1  21
TORSDOF 2
ENDMDL
MODEL 2
REMARK VINA RESULT:      -7.3      2.943      6.679
REMARK  Name = 
REMARK  3 active torsions:
REMARK  status: ('A' for Active; 'I' for Inactive)
REMARK    1  A    between atoms: C_1  and  C_2
REMARK    2  A    between atoms: C_2  and  O_3
REMARK    3  A    between atoms: O_3  and  C_4
REMARK                            x       y       z     vdW  Elec       q    Type
REMARK                         _______ _______ _______ _____ _____    ______ ____
ROOT
ATOM      1  C   UNL     1       0.624   9.380  20.212  0.00  0.00    +0.000 C 
ATOM      2  O   UNL     1       0.009   9.538  21.260  0.00  0.00    +0.000 OA
ATOM      3  N   UNL     1       1.547   8.374  20.004  0.00  0.00    +0.000 N 
ATOM      4  C   UNL     1       1.782   7.383  21.042  0.00  0.00    +0.000 C 
ATOM      5  C   UNL     1       1.579   5.964  20.506  0.00  0.00    +0.000 C 
ATOM      6  C   UNL     1       2.404   5.721  19.231  0.00  0.00    +0.000 C 
ATOM      7  C   UNL     1       2.088   6.819  18.193  0.00  0.00    +0.000 C 
ATOM      8  C   UNL     1       2.302   8.210  18.768  0.00  0.00    +0.000 C 
ATOM      9  N   UNL     1       2.119   4.420  18.666  0.00  0.00    +0.000 N 
ATOM     10  C   UNL     1       2.916   3.891  17.670  0.00  0.00    +0.000 C 
ATOM     11  O   UNL     1       2.486   3.068  16.875  0.00  0.00    +0.000 OA
ATOM     12  C   UNL     1       4.321   4.362  17.637  0.00  0.00    +0.000 A 
ATOM     13  C   UNL     1       5.207   3.949  16.642  0.00  0.00    +0.000 A 
ATOM     14  C   UNL     1       6.535   4.372  16.693  0.00  0.00    +0.000 A 
ATOM     15  C   UNL     1       6.971   5.181  17.744  0.00  0.00    +0.000 A 
ATOM     16  C   UNL     1       6.073   5.593  18.732  0.00  0.00    +0.000 A 
ATOM     17  C   UNL     1       4.737   5.197  18.680  0.00  0.00    +0.000 A 
ATOM     18  N   UNL     1       3.816   5.721  19.571  0.00  0.00    +0.000 N 
ATOM     19  H   UNL     1       1.157   4.132  18.586  0.00  0.00    +0.000 HD
ATOM     20  H   UNL     1       4.133   6.027  20.480  0.00  0.00    +0.000 HD
ENDROOT
BRANCH   1  21
ATOM     21  O   UNL     1       0.401  10.107  19.086  0.00  0.00    +0.000 OA
BRANCH  21  23
ATOM     22  C   UNL     1      -1.481  10.137  17.621  0.00  0.00    +0.000 C 
ATOM     23  C   UNL     1      -0.929  10.620  18.953  0.00  0.00    +0.000 C 
ENDBRANCH  21  23
ENDBRANCH   1  21
TORSDOF 2
ENDMDL
MODEL 3
REMARK VINA RESULT:      -7.1      2.606      4.153
REMARK  Name = 
REMARK  3 active torsions:
REMARK  status: ('A' for Active; 'I' for Inactive)
REMARK    1  A    between atoms: C_1  and  C_2
REMARK    2  A    between atoms: C_2  and  O_3
REMARK    3  A    between atoms: O_3  and  C_4
REMARK                            x       y       z     vdW  Elec       q    Type
REMARK                         _______ _______ _______ _____ _____    ______ ____
ROOT
ATOM      1  C   UNL     1       7.412   7.048  17.068  0.00  0.00    +0.000 C 
ATOM      2  O   UNL     1       7.980   7.008  15.983  0.00  0.00    +0.000 OA
ATOM      3  N   UNL     1       6.377   6.208  17.428  0.00  0.00    +0.000 N 
ATOM      4  C   UNL     1       5.951   5.155  16.519  0.00  0.00    +0.000 C 
ATOM      5  C   UNL     1       5.995   3.786  17.203  0.00  0.00    +0.000 C 
ATOM      6  C   UNL     1       5.221   3.796  18.531  0.00  0.00    +0.000 C 
ATOM      7  C   UNL     1       5.740   4.943  19.424  0.00  0.00    +0.000 C 
ATOM      8  C   UNL     1       5.681   6.282  18.707  0.00  0.00    +0.000 C 
ATOM      9  N   UNL     1       5.363   2.535  19.227  0.00  0.00    +0.000 N 
ATOM     10  C   UNL     1       4.562   2.231  20.309  0.00  0.00    +0.000 C 
ATOM     11  O   UNL     1       4.925   1.444  21.172  0.00  0.00    +0.000 OA
ATOM     12  C   UNL     1       3.237   2.893  20.351  0.00  0.00    +0.000 A 
ATOM     13  C   UNL     1       2.363   2.715  21.424  0.00  0.00    +0.000 A 
ATOM     14  C   UNL     1       1.103   3.310  21.384  0.00  0.00    +0.000 A 
ATOM     15  C   UNL     1       0.718   4.057  20.268  0.00  0.00    +0.000 A 
ATOM     16  C   UNL     1       1.604   4.233  19.202  0.00  0.00    +0.000 A 
ATOM     17  C   UNL     1       2.875   3.663  19.240  0.00  0.00    +0.000 A 
ATOM     18  N   UNL     1       3.804   3.956  18.256  0.00  0.00    +0.000 N 
ATOM     19  H   UNL     1       6.281   2.127  19.296  0.00  0.00    +0.000 HD
ATOM     20  H   UNL     1       3.478   4.206  17.333  0.00  0.00    +0.000 HD
ENDROOT
BRANCH   1  21
ATOM     21  O   UNL     1       7.796   7.852  18.094  0.00  0.00    +0.000 OA
BRANCH  21  23
ATOM     22  C   UNL     1       8.952   9.797  18.850  0.00  0.00    +0.000 C 
ATOM     23  C   UNL     1       8.143   9.188  17.715  0.00  0.00    +0.000 C 
ENDBRANCH  21  23
ENDBRANCH   1  21
TORSDOF 2
ENDMDL
MODEL 4
REMARK VINA RESULT:      -7.0      3.375      6.627
REMARK  Name = 
REMARK  3 active torsions:
REMARK  status: ('A' for Active; 'I' for Inactive)
REMARK    1  A    between atoms: C_1  and  C_2
REMARK    2  A    between atoms: C_2  and  O_3
REMARK    3  A    between atoms: O_3  and  C_4
REMARK                            x       y       z     vdW  Elec       q    Type
REMARK                         _______ _______ _______ _____ _____    ______ ____
ROOT
ATOM      1  C   UNL     1       1.108  10.114  19.887  0.00  0.00    +0.000 C 
ATOM      2  O   UNL     1       1.018  11.130  19.208  0.00  0.00    +0.000 OA
ATOM      3  N   UNL     1       1.387   8.864  19.371  0.00  0.00    +0.000 N 
ATOM      4  C   UNL     1       1.665   8.713  17.952  0.00  0.00    +0.000 C 
ATOM      5  C   UNL     1       3.015   8.028  17.724  0.00  0.00    +0.000 C 
ATOM      6  C   UNL     1       3.116   6.710  18.510  0.00  0.00    +0.000 C 
ATOM      7  C   UNL     1       2.805   6.970  19.999  0.00  0.00    +0.000 C 
ATOM      8  C   UNL     1       1.458   7.651  20.178  0.00  0.00    +0.000 C 
ATOM      9  N   UNL     1       4.434   6.127  18.382  0.00  0.00    +0.000 N 
ATOM     10  C   UNL     1       4.678   4.833  18.795  0.00  0.00    +0.000 C 
ATOM     11  O   UNL     1       5.796   4.467  19.130  0.00  0.00    +0.000 OA
ATOM     12  C   UNL     1       3.516   3.912  18.785  0.00  0.00    +0.000 A 
ATOM     13  C   UNL     1       3.621   2.597  19.237  0.00  0.00    +0.000 A 
ATOM     14  C   UNL     1       2.514   1.755  19.148  0.00  0.00    +0.000 A 
ATOM     15  C   UNL     1       1.323   2.223  18.589  0.00  0.00    +0.000 A 
ATOM     16  C   UNL     1       1.228   3.544  18.144  0.00  0.00    +0.000 A 
ATOM     17  C   UNL     1       2.320   4.403  18.250  0.00  0.00    +0.000 A 
ATOM     18  N   UNL     1       2.185   5.748  17.947  0.00  0.00    +0.000 N 
ATOM     19  H   UNL     1       5.237   6.727  18.493  0.00  0.00    +0.000 HD
ATOM     20  H   UNL     1       1.485   6.032  17.276  0.00  0.00    +0.000 HD
ENDROOT
BRANCH   1  21
ATOM     21  O   UNL     1       1.047  10.103  21.244  0.00  0.00    +0.000 OA
BRANCH  21  23
ATOM     22  C   UNL     1      -0.415   9.656  23.075  0.00  0.00    +0.000 C 
ATOM     23  C   UNL     1      -0.227  10.453  21.794  0.00  0.00    +0.000 C 
ENDBRANCH  21  23
ENDBRANCH   1  21
TORSDOF 2
ENDMDL
MODEL 5
REMARK VINA RESULT:      -6.9      2.354      3.732
REMARK  Name = 
REMARK  3 active torsions:
REMARK  status: ('A' for Active; 'I' for Inactive)
REMARK    1  A    between atoms: C_1  and  C_2
REMARK    2  A    between atoms: C_2  and  O_3
REMARK    3  A    between atoms: O_3  and  C_4
REMARK                            x       y       z     vdW  Elec       q    Type
REMARK                         _______ _______ _______ _____ _____    ______ ____
ROOT
ATOM      1  C   UNL     1       6.109   6.533  15.961  0.00  0.00    +0.000 C 
ATOM      2  O   UNL     1       6.557   6.357  14.834  0.00  0.00    +0.000 OA
ATOM      3  N   UNL     1       5.290   5.634  16.615  0.00  0.00    +0.000 N 
ATOM      4  C   UNL     1       4.972   4.360  15.991  0.00  0.00    +0.000 C 
ATOM      5  C   UNL     1       5.338   3.190  16.908  0.00  0.00    +0.000 C 
ATOM      6  C   UNL     1       4.720   3.357  18.306  0.00  0.00    +0.000 C 
ATOM      7  C   UNL     1       5.111   4.735  18.884  0.00  0.00    +0.000 C 
ATOM      8  C   UNL     1       4.730   5.865  17.942  0.00  0.00    +0.000 C 
ATOM      9  N   UNL     1       5.163   2.310  19.201  0.00  0.00    +0.000 N 
ATOM     10  C   UNL     1       4.552   2.118  20.423  0.00  0.00    +0.000 C 
ATOM     11  O   UNL     1       5.141   1.598  21.359  0.00  0.00    +0.000 OA
ATOM     12  C   UNL     1       3.139   2.555  20.524  0.00  0.00    +0.000 A 
ATOM     13  C   UNL     1       2.431   2.470  21.723  0.00  0.00    +0.000 A 
ATOM     14  C   UNL     1       1.086   2.836  21.748  0.00  0.00    +0.000 A 
ATOM     15  C   UNL     1       0.454   3.260  20.577  0.00  0.00    +0.000 A 
ATOM     16  C   UNL     1       1.175   3.346  19.383  0.00  0.00    +0.000 A 
ATOM     17  C   UNL     1       2.527   3.006  19.350  0.00  0.00    +0.000 A 
ATOM     18  N   UNL     1       3.277   3.229  18.207  0.00  0.00    +0.000 N 
ATOM     19  H   UNL     1       6.143   2.077  19.217  0.00  0.00    +0.000 HD
ATOM     20  H   UNL     1       2.815   3.223  17.308  0.00  0.00    +0.000 HD
ENDROOT
BRANCH   1  21
ATOM     21  O   UNL     1       6.444   7.586  16.752  0.00  0.00    +0.000 OA
BRANCH  21  23
ATOM     22  C   UNL     1       8.131   8.820  17.902  0.00  0.00    +0.000 C 
ATOM     23  C   UNL     1       7.676   7.436  17.466  0.00  0.00    +0.000 C 
ENDBRANCH  21  23
ENDBRANCH   1  21
TORSDOF 2
ENDMDL
MODEL 6
REMARK VINA RESULT:      -6.5      2.374      6.223
REMARK  Name = 
REMARK  3 active torsions:
REMARK  status: ('A' for Active; 'I' for Inactive)
REMARK    1  A    between atoms: C_1  and  C_2
REMARK    2  A    between atoms: C_2  and  O_3
REMARK    3  A    between atoms: O_3  and  C_4
REMARK                            x       y       z     vdW  Elec       q    Type
REMARK                         _______ _______ _______ _____ _____    ______ ____
ROOT
ATOM      1  C   UNL     1       1.533   2.351  19.278  0.00  0.00    +0.000 C 
ATOM      2  O   UNL     1       1.193   1.200  19.033  0.00  0.00    +0.000 OA
ATOM      3  N   UNL     1       2.739   2.899  18.888  0.00  0.00    +0.000 N 
ATOM      4  C   UNL     1       3.659   2.117  18.077  0.00  0.00    +0.000 C 
ATOM      5  C   UNL     1       4.026   2.859  16.789  0.00  0.00    +0.000 C 
ATOM      6  C   UNL     1       4.528   4.282  17.083  0.00  0.00    +0.000 C 
ATOM      7  C   UNL     1       3.489   5.030  17.946  0.00  0.00    +0.000 C 
ATOM      8  C   UNL     1       3.154   4.259  19.212  0.00  0.00    +0.000 C 
ATOM      9  N   UNL     1       4.763   5.016  15.858  0.00  0.00    +0.000 N 
ATOM     10  C   UNL     1       5.444   6.216  15.872  0.00  0.00    +0.000 C 
ATOM     11  O   UNL     1       5.274   7.059  15.003  0.00  0.00    +0.000 OA
ATOM     12  C   UNL     1       6.404   6.412  16.984  0.00  0.00    +0.000 A 
ATOM     13  C   UNL     1       7.107   7.606  17.143  0.00  0.00    +0.000 A 
ATOM     14  C   UNL     1       8.044   7.715  18.169  0.00  0.00    +0.000 A 
ATOM     15  C   UNL     1       8.288   6.629  19.011  0.00  0.00    +0.000 A 
ATOM     16  C   UNL     1       7.574   5.439  18.847  0.00  0.00    +0.000 A 
ATOM     17  C   UNL     1       6.617   5.325  17.840  0.00  0.00    +0.000 A 
ATOM     18  N   UNL     1       5.808   4.204  17.767  0.00  0.00    +0.000 N 
ATOM     19  H   UNL     1       4.064   4.975  15.134  0.00  0.00    +0.000 HD
ATOM     20  H   UNL     1       6.153   3.325  18.125  0.00  0.00    +0.000 HD
ENDROOT
BRANCH   1  21
ATOM     21  O   UNL     1       0.726   3.267  19.873  0.00  0.00    +0.000 OA
BRANCH  21  23
ATOM     22  C   UNL     1       1.480   2.490  21.999  0.00  0.00    +0.000 C 
ATOM     23  C   UNL     1       1.169   3.718  21.158  0.00  0.00    +0.000 C 
ENDBRANCH  21  23
ENDBRANCH   1  21
TORSDOF 2
ENDMDL
MODEL 7
REMARK VINA RESULT:      -6.4      2.667      4.174
REMARK  Name = 
REMARK  3 active torsions:
REMARK  status: ('A' for Active; 'I' for Inactive)
REMARK    1  A    between atoms: C_1  and  C_2
REMARK    2  A    between atoms: C_2  and  O_3
REMARK    3  A    between atoms: O_3  and  C_4
REMARK                            x       y       z     vdW  Elec       q    Type
REMARK                         _______ _______ _______ _____ _____    ______ ____
ROOT
ATOM      1  C   UNL     1       7.539   7.010  17.420  0.00  0.00    +0.000 C 
ATOM      2  O   UNL     1       7.936   7.448  16.347  0.00  0.00    +0.000 OA
ATOM      3  N   UNL     1       6.343   6.339  17.584  0.00  0.00    +0.000 N 
ATOM      4  C   UNL     1       5.509   6.056  16.427  0.00  0.00    +0.000 C 
ATOM      5  C   UNL     1       5.204   4.560  16.320  0.00  0.00    +0.000 C 
ATOM      6  C   UNL     1       4.631   4.008  17.636  0.00  0.00    +0.000 C 
ATOM      7  C   UNL     1       5.581   4.357  18.801  0.00  0.00    +0.000 C 
ATOM      8  C   UNL     1       5.857   5.850  18.869  0.00  0.00    +0.000 C 
ATOM      9  N   UNL     1       4.453   2.573  17.565  0.00  0.00    +0.000 N 
ATOM     10  C   UNL     1       3.730   1.902  18.530  0.00  0.00    +0.000 C 
ATOM     11  O   UNL     1       3.927   0.720  18.772  0.00  0.00    +0.000 OA
ATOM     12  C   UNL     1       2.690   2.689  19.234  0.00  0.00    +0.000 A 
ATOM     13  C   UNL     1       1.935   2.141  20.272  0.00  0.00    +0.000 A 
ATOM     14  C   UNL     1       0.926   2.904  20.858  0.00  0.00    +0.000 A 
ATOM     15  C   UNL     1       0.666   4.195  20.393  0.00  0.00    +0.000 A 
ATOM     16  C   UNL     1       1.432   4.735  19.357  0.00  0.00    +0.000 A 
ATOM     17  C   UNL     1       2.459   3.991  18.777  0.00  0.00    +0.000 A 
ATOM     18  N   UNL     1       3.312   4.574  17.855  0.00  0.00    +0.000 N 
ATOM     19  H   UNL     1       5.201   2.016  17.184  0.00  0.00    +0.000 HD
ATOM     20  H   UNL     1       2.975   5.343  17.293  0.00  0.00    +0.000 HD
ENDROOT
BRANCH   1  21
ATOM     21  O   UNL     1       8.270   7.035  18.565  0.00  0.00    +0.000 OA
BRANCH  21  23
ATOM     22  C   UNL     1       8.126   9.352  18.015  0.00  0.00    +0.000 C 
ATOM     23  C   UNL     1       8.767   8.325  18.935  0.00  0.00    +0.000 C 
ENDBRANCH  21  23
ENDBRANCH   1  21
TORSDOF 2
ENDMDL
MODEL 8
REMARK VINA RESULT:      -6.4      1.794      2.231
REMARK  Name = 
REMARK  3 active torsions:
REMARK  status: ('A' for Active; 'I' for Inactive)
REMARK    1  A    between atoms: C_1  and  C_2
REMARK    2  A    between atoms: C_2  and  O_3
REMARK    3  A    between atoms: O_3  and  C_4
REMARK                            x       y       z     vdW  Elec       q    Type
REMARK                         _______ _______ _______ _____ _____    ______ ____
ROOT
ATOM      1  C   UNL     1       7.346   5.927  16.577  0.00  0.00    +0.000 C 
ATOM      2  O   UNL     1       7.806   7.025  16.286  0.00  0.00    +0.000 OA
ATOM      3  N   UNL     1       6.256   5.742  17.405  0.00  0.00    +0.000 N 
ATOM      4  C   UNL     1       5.543   6.895  17.930  0.00  0.00    +0.000 C 
ATOM      5  C   UNL     1       4.053   6.825  17.586  0.00  0.00    +0.000 C 
ATOM      6  C   UNL     1       3.440   5.481  18.013  0.00  0.00    +0.000 C 
ATOM      7  C   UNL     1       4.263   4.322  17.411  0.00  0.00    +0.000 C 
ATOM      8  C   UNL     1       5.734   4.432  17.776  0.00  0.00    +0.000 C 
ATOM      9  N   UNL     1       2.063   5.376  17.582  0.00  0.00    +0.000 N 
ATOM     10  C   UNL     1       1.246   4.373  18.063  0.00  0.00    +0.000 C 
ATOM     11  O   UNL     1       0.283   3.971  17.426  0.00  0.00    +0.000 OA
ATOM     12  C   UNL     1       1.591   3.831  19.399  0.00  0.00    +0.000 A 
ATOM     13  C   UNL     1       0.880   2.773  19.965  0.00  0.00    +0.000 A 
ATOM     14  C   UNL     1       1.205   2.343  21.251  0.00  0.00    +0.000 A 
ATOM     15  C   UNL     1       2.219   2.983  21.966  0.00  0.00    +0.000 A 
ATOM     16  C   UNL     1       2.929   4.038  21.387  0.00  0.00    +0.000 A 
ATOM     17  C   UNL     1       2.629   4.462  20.093  0.00  0.00    +0.000 A 
ATOM     18  N   UNL     1       3.424   5.405  19.464  0.00  0.00    +0.000 N 
ATOM     19  H   UNL     1       1.834   5.643  16.638  0.00  0.00    +0.000 HD
ATOM     20  H   UNL     1       3.925   6.079  20.025  0.00  0.00    +0.000 HD
ENDROOT
BRANCH   1  21
ATOM     21  O   UNL     1       7.782   4.758  16.039  0.00  0.00    +0.000 OA
BRANCH  21  23
ATOM     22  C   UNL     1       6.297   3.937  14.362  0.00  0.00    +0.000 C 
ATOM     23  C   UNL     1       7.616   4.647  14.622  0.00  0.00    +0.000 C 
ENDBRANCH  21  23
ENDBRANCH   1  21
TORSDOF 2
ENDMDL
MODEL 9
REMARK VINA RESULT:      -6.3      1.219      1.317
REMARK  Name = 
REMARK  3 active torsions:
REMARK  status: ('A' for Active; 'I' for Inactive)
REMARK    1  A    between atoms: C_1  and  C_2
REMARK    2  A    between atoms: C_2  and  O_3
REMARK    3  A    between atoms: O_3  and  C_4
REMARK                            x       y       z     vdW  Elec       q    Type
REMARK                         _______ _______ _______ _____ _____    ______ ____
ROOT
ATOM      1  C   UNL     1       7.379   4.660  14.205  0.00  0.00    +0.000 C 
ATOM      2  O   UNL     1       8.208   5.505  13.888  0.00  0.00    +0.000 OA
ATOM      3  N   UNL     1       6.702   4.658  15.408  0.00  0.00    +0.000 N 
ATOM      4  C   UNL     1       6.908   5.742  16.355  0.00  0.00    +0.000 C 
ATOM      5  C   UNL     1       5.579   6.403  16.733  0.00  0.00    +0.000 C 
ATOM      6  C   UNL     1       4.549   5.365  17.207  0.00  0.00    +0.000 C 
ATOM      7  C   UNL     1       4.401   4.258  16.140  0.00  0.00    +0.000 C 
ATOM      8  C   UNL     1       5.742   3.631  15.796  0.00  0.00    +0.000 C 
ATOM      9  N   UNL     1       3.263   5.981  17.451  0.00  0.00    +0.000 N 
ATOM     10  C   UNL     1       2.264   5.295  18.112  0.00  0.00    +0.000 C 
ATOM     11  O   UNL     1       1.084   5.564  17.944  0.00  0.00    +0.000 OA
ATOM     12  C   UNL     1       2.707   4.235  19.049  0.00  0.00    +0.000 A 
ATOM     13  C   UNL     1       1.793   3.431  19.729  0.00  0.00    +0.000 A 
ATOM     14  C   UNL     1       2.261   2.491  20.647  0.00  0.00    +0.000 A 
ATOM     15  C   UNL     1       3.631   2.377  20.893  0.00  0.00    +0.000 A 
ATOM     16  C   UNL     1       4.538   3.185  20.202  0.00  0.00    +0.000 A 
ATOM     17  C   UNL     1       4.084   4.111  19.265  0.00  0.00    +0.000 A 
ATOM     18  N   UNL     1       4.985   4.807  18.475  0.00  0.00    +0.000 N 
ATOM     19  H   UNL     1       2.902   6.625  16.766  0.00  0.00    +0.000 HD
ATOM     20  H   UNL     1       5.915   4.981  18.828  0.00  0.00    +0.000 HD
ENDROOT
BRANCH   1  21
ATOM     21  O   UNL     1       6.943   3.679  13.373  0.00  0.00    +0.000 OA
BRANCH  21  23
ATOM     22  C   UNL     1       5.177   3.256  11.825  0.00  0.00    +0.000 C 
ATOM     23  C   UNL     1       6.372   4.140  12.143  0.00  0.00    +0.000 C 
ENDBRANCH  21  23
ENDBRANCH   1  21
TORSDOF 2
ENDMDL
