MODEL 1
REMARK VINA RESULT:      -8.3      0.000      0.000
REMARK  Name = 
REMARK  4 active torsions:
REMARK  status: ('A' for Active; 'I' for Inactive)
REMARK    1  A    between atoms: C_1  and  C_2
REMARK    2  A    between atoms: C_6  and  C_8
REMARK    3  A    between atoms: C_14  and  N_15
REMARK    4  A    between atoms: N_15  and  C_16
REMARK                            x       y       z     vdW  Elec       q    Type
REMARK                         _______ _______ _______ _____ _____    ______ ____
ROOT
ATOM      1  C   UNL     1       1.284   8.036  19.907  0.00  0.00    +0.000 C 
ATOM      2  C   UNL     1       1.933   6.753  20.443  0.00  0.00    +0.000 C 
ATOM      3  C   UNL     1       2.325   5.830  19.291  0.00  0.00    +0.000 C 
ATOM      4  N   UNL     1       3.156   6.551  18.335  0.00  0.00    +0.000 N 
ATOM      5  C   UNL     1       4.391   6.044  17.987  0.00  0.00    +0.000 A 
ATOM      6  C   UNL     1       4.942   6.279  16.741  0.00  0.00    +0.000 A 
ATOM      7  C   UNL     1       6.132   5.657  16.405  0.00  0.00    +0.000 A 
ATOM      8  N   UNL     1       6.798   4.896  17.277  0.00  0.00    +0.000 NA
ATOM      9  C   UNL     1       6.229   4.771  18.484  0.00  0.00    +0.000 A 
ATOM     10  N   UNL     1       5.051   5.282  18.873  0.00  0.00    +0.000 NA
ATOM     11  C   UNL     1       2.621   7.785  17.776  0.00  0.00    +0.000 C 
ATOM     12  C   UNL     1       2.238   8.722  18.915  0.00  0.00    +0.000 C 
ENDROOT
BRANCH   1  18
ATOM     13  C   UNL     1      -0.427  13.984  19.149  0.00  0.00    +0.000 C 
ATOM     14  C   UNL     1      -0.768  12.668  19.845  0.00  0.00    +0.000 C 
ATOM     15  C   UNL     1       0.111  12.461  21.090  0.00  0.00    +0.000 C 
ATOM     16  C   UNL     1      -0.148  11.097  21.731  0.00  0.00    +0.000 C 
ATOM     17  N   UNL     1       0.030  10.032  20.746  0.00  0.00    +0.000 N 
ATOM     18  C   UNL     1       0.929   9.013  21.024  0.00  0.00    +0.000 C 
ATOM     19  O   UNL     1       1.463   8.915  22.130  0.00  0.00    +0.000 OA
ATOM     20  C   UNL     1      -0.812  10.150  19.558  0.00  0.00    +0.000 C 
ATOM     21  C   UNL     1      -0.608  11.493  18.868  0.00  0.00    +0.000 C 
ENDBRANCH   1  18
BRANCH   7  22
ATOM     22  N   UNL     1       6.573   5.817  15.093  0.00  0.00    +0.000 N 
ATOM     23  H   UNL     1       7.264   6.557  15.026  0.00  0.00    +0.000 HD
BRANCH  22  24
ATOM     24  C   UNL     1       6.848   4.644  14.282  0.00  0.00    +0.000 C 
ATOM     25  C   UNL     1       5.504   4.094  13.800  0.00  0.00    +0.000 C 
ATOM     26  C   UNL     1       5.836   3.298  12.552  0.00  0.00    +0.000 C 
ATOM     27  C   UNL     1       7.079   3.950  11.960  0.00  0.00    +0.000 C 
ATOM     28  C   UNL     1       7.601   4.950  12.994  0.00  0.00    +0.000 C 
ENDBRANCH  22  24
ENDBRANCH   7  22
TORSDOF 3
ENDMDL
MODEL 2
REMARK VINA RESULT:      -7.6      3.681      5.818
REMARK  Name = 
REMARK  4 active torsions:
REMARK  status: ('A' for Active; 'I' for Inactive)
REMARK    1  A    between atoms: C_1  and  C_2
REMARK    2  A    between atoms: C_6  and  C_8
REMARK    3  A    between atoms: C_14  and  N_15
REMARK    4  A    between atoms: N_15  and  C_16
REMARK                            x       y       z     vdW  Elec       q    Type
REMARK                         _______ _______ _______ _____ _____    ______ ____
ROOT
ATOM      1  C   UNL     1      -1.034  11.531  19.888  0.00  0.00    +0.000 C 
ATOM      2  C   UNL     1      -0.062  11.596  18.702  0.00  0.00    +0.000 C 
ATOM      3  C   UNL     1       1.294  11.014  19.090  0.00  0.00    +0.000 C 
ATOM      4  N   UNL     1       1.125   9.672  19.635  0.00  0.00    +0.000 N 
ATOM      5  C   UNL     1       1.826   8.620  19.084  0.00  0.00    +0.000 A 
ATOM      6  C   UNL     1       2.197   7.525  19.843  0.00  0.00    +0.000 A 
ATOM      7  C   UNL     1       2.993   6.549  19.270  0.00  0.00    +0.000 A 
ATOM      8  N   UNL     1       3.352   6.600  17.985  0.00  0.00    +0.000 NA
ATOM      9  C   UNL     1       2.899   7.661  17.303  0.00  0.00    +0.000 A 
ATOM     10  N   UNL     1       2.181   8.682  17.791  0.00  0.00    +0.000 NA
ATOM     11  C   UNL     1       0.216   9.514  20.761  0.00  0.00    +0.000 C 
ATOM     12  C   UNL     1      -1.148  10.080  20.383  0.00  0.00    +0.000 C 
ENDROOT
BRANCH   1  18
ATOM     13  C   UNL     1      -5.630  12.787  23.912  0.00  0.00    +0.000 C 
ATOM     14  C   UNL     1      -4.840  13.316  22.716  0.00  0.00    +0.000 C 
ATOM     15  C   UNL     1      -5.356  12.707  21.402  0.00  0.00    +0.000 C 
ATOM     16  C   UNL     1      -4.503  13.148  20.213  0.00  0.00    +0.000 C 
ATOM     17  N   UNL     1      -3.096  12.831  20.454  0.00  0.00    +0.000 N 
ATOM     18  C   UNL     1      -2.423  12.051  19.525  0.00  0.00    +0.000 C 
ATOM     19  O   UNL     1      -2.940  11.748  18.449  0.00  0.00    +0.000 OA
ATOM     20  C   UNL     1      -2.535  13.419  21.667  0.00  0.00    +0.000 C 
ATOM     21  C   UNL     1      -3.343  13.024  22.897  0.00  0.00    +0.000 C 
ENDBRANCH   1  18
BRANCH   7  22
ATOM     22  N   UNL     1       3.451   5.539  20.114  0.00  0.00    +0.000 N 
ATOM     23  H   UNL     1       3.607   5.888  21.054  0.00  0.00    +0.000 HD
BRANCH  22  24
ATOM     24  C   UNL     1       2.850   4.219  20.041  0.00  0.00    +0.000 C 
ATOM     25  C   UNL     1       2.226   3.923  21.407  0.00  0.00    +0.000 C 
ATOM     26  C   UNL     1       1.159   2.880  21.128  0.00  0.00    +0.000 C 
ATOM     27  C   UNL     1       0.703   3.124  19.695  0.00  0.00    +0.000 C 
ATOM     28  C   UNL     1       1.674   4.130  19.076  0.00  0.00    +0.000 C 
ENDBRANCH  22  24
ENDBRANCH   7  22
TORSDOF 3
ENDMDL
MODEL 3
REMARK VINA RESULT:      -7.6      4.508      6.595
REMARK  Name = 
REMARK  4 active torsions:
REMARK  status: ('A' for Active; 'I' for Inactive)
REMARK    1  A    between atoms: C_1  and  C_2
REMARK    2  A    between atoms: C_6  and  C_8
REMARK    3  A    between atoms: C_14  and  N_15
REMARK    4  A    between atoms: N_15  and  C_16
REMARK                            x       y       z     vdW  Elec       q    Type
REMARK                         _______ _______ _______ _____ _____    ______ ____
ROOT
ATOM      1  C   UNL     1      -0.941  12.020  22.829  0.00  0.00    +0.000 C 
ATOM      2  C   UNL     1      -0.326  12.382  21.471  0.00  0.00    +0.000 C 
ATOM      3  C   UNL     1       0.991  11.638  21.264  0.00  0.00    +0.000 C 
ATOM      4  N   UNL     1       0.790  10.206  21.452  0.00  0.00    +0.000 N 
ATOM      5  C   UNL     1       1.164   9.329  20.455  0.00  0.00    +0.000 A 
ATOM      6  C   UNL     1       1.570   8.040  20.744  0.00  0.00    +0.000 A 
ATOM      7  C   UNL     1       2.038   7.238  19.719  0.00  0.00    +0.000 A 
ATOM      8  N   UNL     1       2.041   7.650  18.449  0.00  0.00    +0.000 NA
ATOM      9  C   UNL     1       1.572   8.888  18.245  0.00  0.00    +0.000 A 
ATOM     10  N   UNL     1       1.161   9.755  19.182  0.00  0.00    +0.000 NA
ATOM     11  C   UNL     1       0.206   9.770  22.712  0.00  0.00    +0.000 C 
ATOM     12  C   UNL     1      -1.117  10.495  22.925  0.00  0.00    +0.000 C 
ENDROOT
BRANCH   1  18
ATOM     13  C   UNL     1      -1.882  17.332  25.957  0.00  0.00    +0.000 C 
ATOM     14  C   UNL     1      -2.190  16.573  24.668  0.00  0.00    +0.000 C 
ATOM     15  C   UNL     1      -3.318  15.551  24.886  0.00  0.00    +0.000 C 
ATOM     16  C   UNL     1      -3.559  14.713  23.630  0.00  0.00    +0.000 C 
ATOM     17  N   UNL     1      -2.315  14.078  23.199  0.00  0.00    +0.000 N 
ATOM     18  C   UNL     1      -2.289  12.699  23.051  0.00  0.00    +0.000 C 
ATOM     19  O   UNL     1      -3.318  12.027  23.136  0.00  0.00    +0.000 OA
ATOM     20  C   UNL     1      -1.216  15.003  22.933  0.00  0.00    +0.000 C 
ATOM     21  C   UNL     1      -0.924  15.877  24.146  0.00  0.00    +0.000 C 
ENDBRANCH   1  18
BRANCH   7  22
ATOM     22  N   UNL     1       2.562   5.998  20.083  0.00  0.00    +0.000 N 
ATOM     23  H   UNL     1       3.375   6.104  20.681  0.00  0.00    +0.000 HD
BRANCH  22  24
ATOM     24  C   UNL     1       1.661   4.922  20.456  0.00  0.00    +0.000 C 
ATOM     25  C   UNL     1       1.463   4.040  19.222  0.00  0.00    +0.000 C 
ATOM     26  C   UNL     1       1.042   2.690  19.773  0.00  0.00    +0.000 C 
ATOM     27  C   UNL     1       1.672   2.591  21.156  0.00  0.00    +0.000 C 
ATOM     28  C   UNL     1       2.237   3.970  21.496  0.00  0.00    +0.000 C 
ENDBRANCH  22  24
ENDBRANCH   7  22
TORSDOF 3
ENDMDL
MODEL 4
REMARK VINA RESULT:      -7.4      3.536      5.684
REMARK  Name = 
REMARK  4 active torsions:
REMARK  status: ('A' for Active; 'I' for Inactive)
REMARK    1  A    between atoms: C_1  and  C_2
REMARK    2  A    between atoms: C_6  and  C_8
REMARK    3  A    between atoms: C_14  and  N_15
REMARK    4  A    between atoms: N_15  and  C_16
REMARK                            x       y       z     vdW  Elec       q    Type
REMARK                         _______ _______ _______ _____ _____    ______ ____
ROOT
ATOM      1  C   UNL     1      -0.888  11.282  19.676  0.00  0.00    +0.000 C 
ATOM      2  C   UNL     1       0.114  11.346  18.517  0.00  0.00    +0.000 C 
ATOM      3  C   UNL     1       1.466  10.783  18.947  0.00  0.00    +0.000 C 
ATOM      4  N   UNL     1       1.297   9.445  19.499  0.00  0.00    +0.000 N 
ATOM      5  C   UNL     1       2.024   8.395  18.978  0.00  0.00    +0.000 A 
ATOM      6  C   UNL     1       2.386   7.312  19.757  0.00  0.00    +0.000 A 
ATOM      7  C   UNL     1       3.208   6.340  19.215  0.00  0.00    +0.000 A 
ATOM      8  N   UNL     1       3.601   6.382  17.940  0.00  0.00    +0.000 NA
ATOM      9  C   UNL     1       3.155   7.431  17.235  0.00  0.00    +0.000 A 
ATOM     10  N   UNL     1       2.412   8.449  17.695  0.00  0.00    +0.000 NA
ATOM     11  C   UNL     1       0.360   9.288  20.602  0.00  0.00    +0.000 C 
ATOM     12  C   UNL     1      -0.999   9.834  20.183  0.00  0.00    +0.000 C 
ENDROOT
BRANCH   1  18
ATOM     13  C   UNL     1      -3.687  10.251  14.201  0.00  0.00    +0.000 C 
ATOM     14  C   UNL     1      -3.864  10.216  15.717  0.00  0.00    +0.000 C 
ATOM     15  C   UNL     1      -4.150  11.621  16.271  0.00  0.00    +0.000 C 
ATOM     16  C   UNL     1      -4.222  11.612  17.798  0.00  0.00    +0.000 C 
ATOM     17  N   UNL     1      -3.001  11.036  18.359  0.00  0.00    +0.000 N 
ATOM     18  C   UNL     1      -2.272  11.783  19.272  0.00  0.00    +0.000 C 
ATOM     19  O   UNL     1      -2.705  12.846  19.719  0.00  0.00    +0.000 OA
ATOM     20  C   UNL     1      -2.698   9.681  17.903  0.00  0.00    +0.000 C 
ATOM     21  C   UNL     1      -2.617   9.615  16.383  0.00  0.00    +0.000 C 
ENDBRANCH   1  18
BRANCH   7  22
ATOM     22  N   UNL     1       3.653   5.342  20.081  0.00  0.00    +0.000 N 
ATOM     23  H   UNL     1       3.852   5.718  21.003  0.00  0.00    +0.000 HD
BRANCH  22  24
ATOM     24  C   UNL     1       3.002   4.044  20.073  0.00  0.00    +0.000 C 
ATOM     25  C   UNL     1       2.257   3.897  21.401  0.00  0.00    +0.000 C 
ATOM     26  C   UNL     1       1.171   2.874  21.125  0.00  0.00    +0.000 C 
ATOM     27  C   UNL     1       0.845   3.003  19.643  0.00  0.00    +0.000 C 
ATOM     28  C   UNL     1       1.907   3.912  19.023  0.00  0.00    +0.000 C 
ENDBRANCH  22  24
ENDBRANCH   7  22
TORSDOF 3
ENDMDL
MODEL 5
REMARK VINA RESULT:      -7.4      2.947     10.397
REMARK  Name = 
REMARK  4 active torsions:
REMARK  status: ('A' for Active; 'I' for Inactive)
REMARK    1  A    between atoms: C_1  and  C_2
REMARK    2  A    between atoms: C_6  and  C_8
REMARK    3  A    between atoms: C_14  and  N_15
REMARK    4  A    between atoms: N_15  and  C_16
REMARK                            x       y       z     vdW  Elec       q    Type
REMARK                         _______ _______ _______ _____ _____    ______ ____
ROOT
ATOM      1  C   UNL     1       2.219   7.578  18.253  0.00  0.00    +0.000 C 
ATOM      2  C   UNL     1       2.081   8.942  17.564  0.00  0.00    +0.000 C 
ATOM      3  C   UNL     1       0.814   9.652  18.030  0.00  0.00    +0.000 C 
ATOM      4  N   UNL     1       0.791   9.728  19.486  0.00  0.00    +0.000 N 
ATOM      5  C   UNL     1       0.639  10.953  20.102  0.00  0.00    +0.000 A 
ATOM      6  C   UNL     1       0.026  11.068  21.336  0.00  0.00    +0.000 A 
ATOM      7  C   UNL     1      -0.199  12.329  21.859  0.00  0.00    +0.000 A 
ATOM      8  N   UNL     1       0.223  13.433  21.238  0.00  0.00    +0.000 NA
ATOM      9  C   UNL     1       0.864  13.232  20.079  0.00  0.00    +0.000 A 
ATOM     10  N   UNL     1       1.068  12.055  19.468  0.00  0.00    +0.000 NA
ATOM     11  C   UNL     1       0.920   8.481  20.225  0.00  0.00    +0.000 C 
ATOM     12  C   UNL     1       2.189   7.766  19.779  0.00  0.00    +0.000 C 
ENDROOT
BRANCH   1  18
ATOM     13  C   UNL     1       4.160   2.085  20.476  0.00  0.00    +0.000 C 
ATOM     14  C   UNL     1       3.929   2.905  19.209  0.00  0.00    +0.000 C 
ATOM     15  C   UNL     1       5.087   3.888  18.970  0.00  0.00    +0.000 C 
ATOM     16  C   UNL     1       4.812   4.787  17.765  0.00  0.00    +0.000 C 
ATOM     17  N   UNL     1       3.531   5.473  17.926  0.00  0.00    +0.000 N 
ATOM     18  C   UNL     1       3.505   6.858  17.858  0.00  0.00    +0.000 C 
ATOM     19  O   UNL     1       4.502   7.501  17.526  0.00  0.00    +0.000 OA
ATOM     20  C   UNL     1       2.384   4.588  18.112  0.00  0.00    +0.000 C 
ATOM     21  C   UNL     1       2.592   3.656  19.299  0.00  0.00    +0.000 C 
ENDBRANCH   1  18
BRANCH   7  22
ATOM     22  N   UNL     1      -0.940  12.395  23.037  0.00  0.00    +0.000 N 
ATOM     23  H   UNL     1      -0.337  12.521  23.844  0.00  0.00    +0.000 HD
BRANCH  22  24
ATOM     24  C   UNL     1      -2.173  13.162  23.066  0.00  0.00    +0.000 C 
ATOM     25  C   UNL     1      -3.266  12.254  23.632  0.00  0.00    +0.000 C 
ATOM     26  C   UNL     1      -4.315  13.204  24.180  0.00  0.00    +0.000 C 
ATOM     27  C   UNL     1      -3.564  14.468  24.579  0.00  0.00    +0.000 C 
ATOM     28  C   UNL     1      -2.141  14.340  24.032  0.00  0.00    +0.000 C 
ENDBRANCH  22  24
ENDBRANCH   7  22
TORSDOF 3
ENDMDL
MODEL 6
REMARK VINA RESULT:      -7.3      1.567      2.224
REMARK  Name = 
REMARK  4 active torsions:
REMARK  status: ('A' for Active; 'I' for Inactive)
REMARK    1  A    between atoms: C_1  and  C_2
REMARK    2  A    between atoms: C_6  and  C_8
REMARK    3  A    between atoms: C_14  and  N_15
REMARK    4  A    between atoms: N_15  and  C_16
REMARK                            x       y       z     vdW  Elec       q    Type
REMARK                         _______ _______ _______ _____ _____    ______ ____
ROOT
ATOM      1  C   UNL     1       1.254   9.136  19.158  0.00  0.00    +0.000 C 
ATOM      2  C   UNL     1       1.932   8.342  20.282  0.00  0.00    +0.000 C 
ATOM      3  C   UNL     1       2.051   6.869  19.899  0.00  0.00    +0.000 C 
ATOM      4  N   UNL     1       2.717   6.740  18.609  0.00  0.00    +0.000 N 
ATOM      5  C   UNL     1       3.837   5.943  18.496  0.00  0.00    +0.000 A 
ATOM      6  C   UNL     1       4.149   5.302  17.312  0.00  0.00    +0.000 A 
ATOM      7  C   UNL     1       5.222   4.428  17.284  0.00  0.00    +0.000 A 
ATOM      8  N   UNL     1       6.005   4.243  18.349  0.00  0.00    +0.000 NA
ATOM      9  C   UNL     1       5.673   4.950  19.438  0.00  0.00    +0.000 A 
ATOM     10  N   UNL     1       4.618   5.766  19.573  0.00  0.00    +0.000 NA
ATOM     11  C   UNL     1       2.144   7.464  17.483  0.00  0.00    +0.000 C 
ATOM     12  C   UNL     1       2.031   8.940  17.845  0.00  0.00    +0.000 C 
ENDROOT
BRANCH   1  18
ATOM     13  C   UNL     1      -2.578  11.765  23.316  0.00  0.00    +0.000 C 
ATOM     14  C   UNL     1      -1.136  11.695  22.820  0.00  0.00    +0.000 C 
ATOM     15  C   UNL     1      -0.943  12.562  21.565  0.00  0.00    +0.000 C 
ATOM     16  C   UNL     1       0.470  12.414  21.000  0.00  0.00    +0.000 C 
ATOM     17  N   UNL     1       0.770  11.005  20.750  0.00  0.00    +0.000 N 
ATOM     18  C   UNL     1       1.166  10.626  19.475  0.00  0.00    +0.000 C 
ATOM     19  O   UNL     1       1.404  11.464  18.604  0.00  0.00    +0.000 OA
ATOM     20  C   UNL     1       0.647  10.136  21.917  0.00  0.00    +0.000 C 
ATOM     21  C   UNL     1      -0.741  10.238  22.537  0.00  0.00    +0.000 C 
ENDBRANCH   1  18
BRANCH   7  22
ATOM     22  N   UNL     1       5.410   3.706  16.107  0.00  0.00    +0.000 N 
ATOM     23  H   UNL     1       4.750   2.938  16.038  0.00  0.00    +0.000 HD
BRANCH  22  24
ATOM     24  C   UNL     1       5.662   4.414  14.865  0.00  0.00    +0.000 C 
ATOM     25  C   UNL     1       7.134   4.832  14.864  0.00  0.00    +0.000 C 
ATOM     26  C   UNL     1       7.485   5.013  13.399  0.00  0.00    +0.000 C 
ATOM     27  C   UNL     1       6.567   4.072  12.631  0.00  0.00    +0.000 C 
ATOM     28  C   UNL     1       5.529   3.543  13.622  0.00  0.00    +0.000 C 
ENDBRANCH  22  24
ENDBRANCH   7  22
TORSDOF 3
ENDMDL
MODEL 7
REMARK VINA RESULT:      -7.3      4.255      6.384
REMARK  Name = 
REMARK  4 active torsions:
REMARK  status: ('A' for Active; 'I' for Inactive)
REMARK    1  A    between atoms: C_1  and  C_2
REMARK    2  A    between atoms: C_6  and  C_8
REMARK    3  A    between atoms: C_14  and  N_15
REMARK    4  A    between atoms: N_15  and  C_16
REMARK                            x       y       z     vdW  Elec       q    Type
REMARK                         _______ _______ _______ _____ _____    ______ ____
ROOT
ATOM      1  C   UNL     1      -1.044  12.510  20.890  0.00  0.00    +0.000 C 
ATOM      2  C   UNL     1      -0.137  12.580  19.655  0.00  0.00    +0.000 C 
ATOM      3  C   UNL     1       1.157  11.806  19.897  0.00  0.00    +0.000 C 
ATOM      4  N   UNL     1       0.852  10.446  20.323  0.00  0.00    +0.000 N 
ATOM      5  C   UNL     1       1.389   9.379  19.631  0.00  0.00    +0.000 A 
ATOM      6  C   UNL     1       1.661   8.178  20.258  0.00  0.00    +0.000 A 
ATOM      7  C   UNL     1       2.300   7.178  19.545  0.00  0.00    +0.000 A 
ATOM      8  N   UNL     1       2.594   7.317  18.250  0.00  0.00    +0.000 NA
ATOM      9  C   UNL     1       2.239   8.486  17.701  0.00  0.00    +0.000 A 
ATOM     10  N   UNL     1       1.679   9.531  18.330  0.00  0.00    +0.000 NA
ATOM     11  C   UNL     1      -0.007  10.282  21.486  0.00  0.00    +0.000 C 
ATOM     12  C   UNL     1      -1.309  11.039  21.253  0.00  0.00    +0.000 C 
ENDROOT
BRANCH   1  18
ATOM     13  C   UNL     1      -3.853  16.334  24.935  0.00  0.00    +0.000 C 
ATOM     14  C   UNL     1      -3.414  16.161  23.483  0.00  0.00    +0.000 C 
ATOM     15  C   UNL     1      -4.413  15.286  22.707  0.00  0.00    +0.000 C 
ATOM     16  C   UNL     1      -3.926  15.018  21.283  0.00  0.00    +0.000 C 
ATOM     17  N   UNL     1      -2.585  14.437  21.306  0.00  0.00    +0.000 N 
ATOM     18  C   UNL     1      -2.376  13.223  20.669  0.00  0.00    +0.000 C 
ATOM     19  O   UNL     1      -3.251  12.707  19.972  0.00  0.00    +0.000 OA
ATOM     20  C   UNL     1      -1.580  15.245  21.993  0.00  0.00    +0.000 C 
ATOM     21  C   UNL     1      -2.004  15.555  23.423  0.00  0.00    +0.000 C 
ENDBRANCH   1  18
BRANCH   7  22
ATOM     22  N   UNL     1       2.674   6.041  20.258  0.00  0.00    +0.000 N 
ATOM     23  H   UNL     1       3.286   6.278  21.033  0.00  0.00    +0.000 HD
BRANCH  22  24
ATOM     24  C   UNL     1       1.683   5.020  20.548  0.00  0.00    +0.000 C 
ATOM     25  C   UNL     1       1.434   4.242  19.254  0.00  0.00    +0.000 C 
ATOM     26  C   UNL     1       0.896   2.897  19.707  0.00  0.00    +0.000 C 
ATOM     27  C   UNL     1       1.494   2.653  21.086  0.00  0.00    +0.000 C 
ATOM     28  C   UNL     1       2.164   3.956  21.526  0.00  0.00    +0.000 C 
ENDBRANCH  22  24
ENDBRANCH   7  22
TORSDOF 3
ENDMDL
MODEL 8
REMARK VINA RESULT:      -7.2      2.192      9.486
REMARK  Name = 
REMARK  4 active torsions:
REMARK  status: ('A' for Active; 'I' for Inactive)
REMARK    1  A    between atoms: C_1  and  C_2
REMARK    2  A    between atoms: C_6  and  C_8
REMARK    3  A    between atoms: C_14  and  N_15
REMARK    4  A    between atoms: N_15  and  C_16
REMARK                            x       y       z     vdW  Elec       q    Type
REMARK                         _______ _______ _______ _____ _____    ______ ____
ROOT
ATOM      1  C   UNL     1       2.715   7.058  18.909  0.00  0.00    +0.000 C 
ATOM      2  C   UNL     1       1.665   7.233  20.015  0.00  0.00    +0.000 C 
ATOM      3  C   UNL     1       1.614   8.686  20.479  0.00  0.00    +0.000 C 
ATOM      4  N   UNL     1       1.413   9.568  19.337  0.00  0.00    +0.000 N 
ATOM      5  C   UNL     1       0.360  10.460  19.342  0.00  0.00    +0.000 A 
ATOM      6  C   UNL     1       0.432  11.664  18.668  0.00  0.00    +0.000 A 
ATOM      7  C   UNL     1      -0.608  12.569  18.796  0.00  0.00    +0.000 A 
ATOM      8  N   UNL     1      -1.710  12.279  19.492  0.00  0.00    +0.000 NA
ATOM      9  C   UNL     1      -1.728  11.066  20.062  0.00  0.00    +0.000 A 
ATOM     10  N   UNL     1      -0.743  10.157  20.045  0.00  0.00    +0.000 NA
ATOM     11  C   UNL     1       2.360   9.469  18.236  0.00  0.00    +0.000 C 
ATOM     12  C   UNL     1       2.412   8.025  17.753  0.00  0.00    +0.000 C 
ENDROOT
BRANCH   1  18
ATOM     13  C   UNL     1       7.011   4.739  15.030  0.00  0.00    +0.000 C 
ATOM     14  C   UNL     1       6.247   4.500  16.331  0.00  0.00    +0.000 C 
ATOM     15  C   UNL     1       4.840   3.949  16.050  0.00  0.00    +0.000 C 
ATOM     16  C   UNL     1       4.031   3.809  17.340  0.00  0.00    +0.000 C 
ATOM     17  N   UNL     1       3.993   5.084  18.055  0.00  0.00    +0.000 N 
ATOM     18  C   UNL     1       2.758   5.629  18.375  0.00  0.00    +0.000 C 
ATOM     19  O   UNL     1       1.715   4.998  18.199  0.00  0.00    +0.000 OA
ATOM     20  C   UNL     1       5.302   5.637  18.389  0.00  0.00    +0.000 C 
ATOM     21  C   UNL     1       6.167   5.800  17.146  0.00  0.00    +0.000 C 
ENDBRANCH   1  18
BRANCH   7  22
ATOM     22  N   UNL     1      -0.425  13.820  18.209  0.00  0.00    +0.000 N 
ATOM     23  H   UNL     1      -1.213  14.066  17.618  0.00  0.00    +0.000 HD
BRANCH  22  24
ATOM     24  C   UNL     1       0.112  14.911  19.003  0.00  0.00    +0.000 C 
ATOM     25  C   UNL     1       1.602  15.026  18.674  0.00  0.00    +0.000 C 
ATOM     26  C   UNL     1       1.968  16.456  19.028  0.00  0.00    +0.000 C 
ATOM     27  C   UNL     1       0.693  17.269  18.844  0.00  0.00    +0.000 C 
ATOM     28  C   UNL     1      -0.450  16.277  18.632  0.00  0.00    +0.000 C 
ENDBRANCH  22  24
ENDBRANCH   7  22
TORSDOF 3
ENDMDL
MODEL 9
REMARK VINA RESULT:      -6.8      4.267      6.557
REMARK  Name = 
REMARK  4 active torsions:
REMARK  status: ('A' for Active; 'I' for Inactive)
REMARK    1  A    between atoms: C_1  and  C_2
REMARK    2  A    between atoms: C_6  and  C_8
REMARK    3  A    between atoms: C_14  and  N_15
REMARK    4  A    between atoms: N_15  and  C_16
REMARK                            x       y       z     vdW  Elec       q    Type
REMARK                         _______ _______ _______ _____ _____    ______ ____
ROOT
ATOM      1  C   UNL     1      -0.846  13.037  21.530  0.00  0.00    +0.000 C 
ATOM      2  C   UNL     1       0.121  13.061  20.339  0.00  0.00    +0.000 C 
ATOM      3  C   UNL     1       1.291  12.111  20.581  0.00  0.00    +0.000 C 
ATOM      4  N   UNL     1       0.795  10.780  20.905  0.00  0.00    +0.000 N 
ATOM      5  C   UNL     1       1.223   9.695  20.168  0.00  0.00    +0.000 A 
ATOM      6  C   UNL     1       1.309   8.433  20.725  0.00  0.00    +0.000 A 
ATOM      7  C   UNL     1       1.847   7.403  19.975  0.00  0.00    +0.000 A 
ATOM      8  N   UNL     1       2.218   7.578  18.704  0.00  0.00    +0.000 NA
ATOM      9  C   UNL     1       2.042   8.814  18.219  0.00  0.00    +0.000 A 
ATOM     10  N   UNL     1       1.591   9.884  18.891  0.00  0.00    +0.000 NA
ATOM     11  C   UNL     1      -0.133  10.662  22.021  0.00  0.00    +0.000 C 
ATOM     12  C   UNL     1      -1.314  11.595  21.786  0.00  0.00    +0.000 C 
ENDROOT
BRANCH   1  18
ATOM     13  C   UNL     1      -6.417  12.380  24.253  0.00  0.00    +0.000 C 
ATOM     14  C   UNL     1      -5.307  13.370  23.909  0.00  0.00    +0.000 C 
ATOM     15  C   UNL     1      -5.416  13.832  22.446  0.00  0.00    +0.000 C 
ATOM     16  C   UNL     1      -4.248  14.740  22.062  0.00  0.00    +0.000 C 
ATOM     17  N   UNL     1      -2.976  14.073  22.337  0.00  0.00    +0.000 N 
ATOM     18  C   UNL     1      -2.063  13.931  21.303  0.00  0.00    +0.000 C 
ATOM     19  O   UNL     1      -2.241  14.475  20.212  0.00  0.00    +0.000 OA
ATOM     20  C   UNL     1      -2.795  13.649  23.723  0.00  0.00    +0.000 C 
ATOM     21  C   UNL     1      -3.932  12.741  24.176  0.00  0.00    +0.000 C 
ENDBRANCH   1  18
BRANCH   7  22
ATOM     22  N   UNL     1       2.038   6.186  20.627  0.00  0.00    +0.000 N 
ATOM     23  H   UNL     1       1.583   6.181  21.535  0.00  0.00    +0.000 HD
BRANCH  22  24
ATOM     24  C   UNL     1       1.928   4.947  19.878  0.00  0.00    +0.000 C 
ATOM     25  C   UNL     1       3.314   4.298  19.859  0.00  0.00    +0.000 C 
ATOM     26  C   UNL     1       3.048   2.823  19.617  0.00  0.00    +0.000 C 
ATOM     27  C   UNL     1       1.668   2.548  20.200  0.00  0.00    +0.000 C 
ATOM     28  C   UNL     1       1.044   3.901  20.545  0.00  0.00    +0.000 C 
ENDBRANCH  22  24
ENDBRANCH   7  22
TORSDOF 3
ENDMDL
