MODEL 1
REMARK VINA RESULT:      -7.7      0.000      0.000
REMARK  Name = 
REMARK  2 active torsions:
REMARK  status: ('A' for Active; 'I' for Inactive)
REMARK    1  A    between atoms: C_9  and  C_10
REMARK    2  A    between atoms: C_9  and  C_16
REMARK                            x       y       z     vdW  Elec       q    Type
REMARK                         _______ _______ _______ _____ _____    ______ ____
ROOT
ATOM      1  O   UNL     1       6.366   5.526  19.680  0.00  0.00    +0.000 OA
ATOM      2  C   UNL     1       5.504   4.759  19.270  0.00  0.00    +0.000 C 
ATOM      3  N   UNL     1       5.259   3.484  19.793  0.00  0.00    +0.000 NA
ATOM      4  C   UNL     1       4.289   3.016  19.081  0.00  0.00    +0.000 C 
ATOM      5  S   UNL     1       3.562   1.457  19.159  0.00  0.00    +0.000 S 
ATOM      6  C   UNL     1       2.424   1.851  17.769  0.00  0.00    +0.000 C 
ATOM      7  C   UNL     1       2.901   3.174  17.139  0.00  0.00    +0.000 C 
ATOM      8  N   UNL     1       3.754   3.794  18.116  0.00  0.00    +0.000 N 
ATOM      9  C   UNL     1       4.545   5.021  18.009  0.00  0.00    +0.000 C 
ENDROOT
BRANCH   9  10
ATOM     10  C   UNL     1       5.318   5.010  16.673  0.00  0.00    +0.000 A 
ATOM     11  C   UNL     1       4.723   4.521  15.493  0.00  0.00    +0.000 A 
ATOM     12  C   UNL     1       5.458   4.387  14.311  0.00  0.00    +0.000 A 
ATOM     13  C   UNL     1       6.806   4.733  14.280  0.00  0.00    +0.000 A 
ATOM     14  C   UNL     1       7.416   5.235  15.424  0.00  0.00    +0.000 A 
ATOM     15  C   UNL     1       6.681   5.373  16.606  0.00  0.00    +0.000 A 
ENDBRANCH   9  10
BRANCH   9  16
ATOM     16  C   UNL     1       3.673   6.255  18.296  0.00  0.00    +0.000 A 
ATOM     17  C   UNL     1       3.590   7.341  17.397  0.00  0.00    +0.000 A 
ATOM     18  C   UNL     1       2.807   8.461  17.672  0.00  0.00    +0.000 A 
ATOM     19  C   UNL     1       2.059   8.508  18.840  0.00  0.00    +0.000 A 
ATOM     20  C   UNL     1       2.087   7.434  19.727  0.00  0.00    +0.000 A 
ATOM     21  C   UNL     1       2.885   6.317  19.460  0.00  0.00    +0.000 A 
ENDBRANCH   9  16
TORSDOF 2
ENDMDL
MODEL 2
REMARK VINA RESULT:      -7.7      0.025      1.051
REMARK  Name = 
REMARK  2 active torsions:
REMARK  status: ('A' for Active; 'I' for Inactive)
REMARK    1  A    between atoms: C_9  and  C_10
REMARK    2  A    between atoms: C_9  and  C_16
REMARK                            x       y       z     vdW  Elec       q    Type
REMARK                         _______ _______ _______ _____ _____    ______ ____
ROOT
ATOM      1  O   UNL     1       6.355   5.523  19.681  0.00  0.00    +0.000 OA
ATOM      2  C   UNL     1       5.496   4.753  19.272  0.00  0.00    +0.000 C 
ATOM      3  N   UNL     1       5.257   3.477  19.795  0.00  0.00    +0.000 NA
ATOM      4  C   UNL     1       4.288   3.005  19.084  0.00  0.00    +0.000 C 
ATOM      5  S   UNL     1       3.567   1.444  19.163  0.00  0.00    +0.000 S 
ATOM      6  C   UNL     1       2.426   1.833  17.774  0.00  0.00    +0.000 C 
ATOM      7  C   UNL     1       2.897   3.157  17.144  0.00  0.00    +0.000 C 
ATOM      8  N   UNL     1       3.749   3.781  18.119  0.00  0.00    +0.000 N 
ATOM      9  C   UNL     1       4.535   5.011  18.012  0.00  0.00    +0.000 C 
ENDROOT
BRANCH   9  10
ATOM     10  C   UNL     1       5.307   5.003  16.675  0.00  0.00    +0.000 A 
ATOM     11  C   UNL     1       4.708   4.523  15.493  0.00  0.00    +0.000 A 
ATOM     12  C   UNL     1       5.442   4.391  14.309  0.00  0.00    +0.000 A 
ATOM     13  C   UNL     1       6.791   4.730  14.279  0.00  0.00    +0.000 A 
ATOM     14  C   UNL     1       7.405   5.221  15.426  0.00  0.00    +0.000 A 
ATOM     15  C   UNL     1       6.672   5.358  16.609  0.00  0.00    +0.000 A 
ENDBRANCH   9  10
BRANCH   9  16
ATOM     16  C   UNL     1       3.658   6.242  18.299  0.00  0.00    +0.000 A 
ATOM     17  C   UNL     1       2.878   6.352  19.471  0.00  0.00    +0.000 A 
ATOM     18  C   UNL     1       2.077   7.466  19.715  0.00  0.00    +0.000 A 
ATOM     19  C   UNL     1       2.061   8.515  18.807  0.00  0.00    +0.000 A 
ATOM     20  C   UNL     1       2.851   8.454  17.661  0.00  0.00    +0.000 A 
ATOM     21  C   UNL     1       3.644   7.330  17.407  0.00  0.00    +0.000 A 
ENDBRANCH   9  16
TORSDOF 2
ENDMDL
MODEL 3
REMARK VINA RESULT:      -7.5      0.189      1.067
REMARK  Name = 
REMARK  2 active torsions:
REMARK  status: ('A' for Active; 'I' for Inactive)
REMARK    1  A    between atoms: C_9  and  C_10
REMARK    2  A    between atoms: C_9  and  C_16
REMARK                            x       y       z     vdW  Elec       q    Type
REMARK                         _______ _______ _______ _____ _____    ______ ____
ROOT
ATOM      1  O   UNL     1       6.412   5.356  19.735  0.00  0.00    +0.000 OA
ATOM      2  C   UNL     1       5.529   4.606  19.338  0.00  0.00    +0.000 C 
ATOM      3  N   UNL     1       5.222   3.366  19.909  0.00  0.00    +0.000 NA
ATOM      4  C   UNL     1       4.249   2.906  19.195  0.00  0.00    +0.000 C 
ATOM      5  S   UNL     1       3.459   1.382  19.323  0.00  0.00    +0.000 S 
ATOM      6  C   UNL     1       2.367   1.760  17.892  0.00  0.00    +0.000 C 
ATOM      7  C   UNL     1       2.909   3.034  17.218  0.00  0.00    +0.000 C 
ATOM      8  N   UNL     1       3.766   3.662  18.187  0.00  0.00    +0.000 N 
ATOM      9  C   UNL     1       4.608   4.851  18.046  0.00  0.00    +0.000 C 
ENDROOT
BRANCH   9  10
ATOM     10  C   UNL     1       5.408   4.752  16.729  0.00  0.00    +0.000 A 
ATOM     11  C   UNL     1       6.764   5.130  16.673  0.00  0.00    +0.000 A 
ATOM     12  C   UNL     1       7.457   5.167  15.459  0.00  0.00    +0.000 A 
ATOM     13  C   UNL     1       6.811   4.833  14.272  0.00  0.00    +0.000 A 
ATOM     14  C   UNL     1       5.478   4.441  14.299  0.00  0.00    +0.000 A 
ATOM     15  C   UNL     1       4.785   4.399  15.512  0.00  0.00    +0.000 A 
ENDBRANCH   9  10
BRANCH   9  16
ATOM     16  C   UNL     1       3.780   6.130  18.260  0.00  0.00    +0.000 A 
ATOM     17  C   UNL     1       3.799   7.199  17.338  0.00  0.00    +0.000 A 
ATOM     18  C   UNL     1       3.055   8.359  17.548  0.00  0.00    +0.000 A 
ATOM     19  C   UNL     1       2.246   8.466  18.671  0.00  0.00    +0.000 A 
ATOM     20  C   UNL     1       2.175   7.410  19.578  0.00  0.00    +0.000 A 
ATOM     21  C   UNL     1       2.933   6.252  19.377  0.00  0.00    +0.000 A 
ENDBRANCH   9  16
TORSDOF 2
ENDMDL
MODEL 4
REMARK VINA RESULT:      -7.4      0.206      1.497
REMARK  Name = 
REMARK  2 active torsions:
REMARK  status: ('A' for Active; 'I' for Inactive)
REMARK    1  A    between atoms: C_9  and  C_10
REMARK    2  A    between atoms: C_9  and  C_16
REMARK                            x       y       z     vdW  Elec       q    Type
REMARK                         _______ _______ _______ _____ _____    ______ ____
ROOT
ATOM      1  O   UNL     1       6.398   5.354  19.731  0.00  0.00    +0.000 OA
ATOM      2  C   UNL     1       5.517   4.602  19.335  0.00  0.00    +0.000 C 
ATOM      3  N   UNL     1       5.211   3.362  19.908  0.00  0.00    +0.000 NA
ATOM      4  C   UNL     1       4.240   2.898  19.195  0.00  0.00    +0.000 C 
ATOM      5  S   UNL     1       3.453   1.373  19.325  0.00  0.00    +0.000 S 
ATOM      6  C   UNL     1       2.362   1.745  17.892  0.00  0.00    +0.000 C 
ATOM      7  C   UNL     1       2.903   3.019  17.215  0.00  0.00    +0.000 C 
ATOM      8  N   UNL     1       3.758   3.651  18.183  0.00  0.00    +0.000 N 
ATOM      9  C   UNL     1       4.597   4.841  18.041  0.00  0.00    +0.000 C 
ENDROOT
BRANCH   9  10
ATOM     10  C   UNL     1       5.399   4.741  16.726  0.00  0.00    +0.000 A 
ATOM     11  C   UNL     1       6.762   5.095  16.677  0.00  0.00    +0.000 A 
ATOM     12  C   UNL     1       7.460   5.131  15.465  0.00  0.00    +0.000 A 
ATOM     13  C   UNL     1       6.812   4.820  14.273  0.00  0.00    +0.000 A 
ATOM     14  C   UNL     1       5.471   4.452  14.292  0.00  0.00    +0.000 A 
ATOM     15  C   UNL     1       4.774   4.411  15.503  0.00  0.00    +0.000 A 
ENDBRANCH   9  10
BRANCH   9  16
ATOM     16  C   UNL     1       3.766   6.119  18.251  0.00  0.00    +0.000 A 
ATOM     17  C   UNL     1       2.925   6.292  19.372  0.00  0.00    +0.000 A 
ATOM     18  C   UNL     1       2.166   7.449  19.546  0.00  0.00    +0.000 A 
ATOM     19  C   UNL     1       2.255   8.477  18.617  0.00  0.00    +0.000 A 
ATOM     20  C   UNL     1       3.108   8.352  17.523  0.00  0.00    +0.000 A 
ATOM     21  C   UNL     1       3.857   7.186  17.338  0.00  0.00    +0.000 A 
ENDBRANCH   9  16
TORSDOF 2
ENDMDL
MODEL 5
REMARK VINA RESULT:      -7.1      5.432      8.535
REMARK  Name = 
REMARK  2 active torsions:
REMARK  status: ('A' for Active; 'I' for Inactive)
REMARK    1  A    between atoms: C_9  and  C_10
REMARK    2  A    between atoms: C_9  and  C_16
REMARK                            x       y       z     vdW  Elec       q    Type
REMARK                         _______ _______ _______ _____ _____    ______ ____
ROOT
ATOM      1  O   UNL     1      -0.421   9.671  21.751  0.00  0.00    +0.000 OA
ATOM      2  C   UNL     1       0.209  10.511  21.121  0.00  0.00    +0.000 C 
ATOM      3  N   UNL     1       0.734  11.688  21.667  0.00  0.00    +0.000 NA
ATOM      4  C   UNL     1       1.310  12.284  20.677  0.00  0.00    +0.000 C 
ATOM      5  S   UNL     1       2.082  13.822  20.659  0.00  0.00    +0.000 S 
ATOM      6  C   UNL     1       2.457  13.681  18.864  0.00  0.00    +0.000 C 
ATOM      7  C   UNL     1       1.675  12.470  18.320  0.00  0.00    +0.000 C 
ATOM      8  N   UNL     1       1.312  11.684  19.468  0.00  0.00    +0.000 N 
ATOM      9  C   UNL     1       0.489  10.476  19.540  0.00  0.00    +0.000 C 
ENDROOT
BRANCH   9  10
ATOM     10  C   UNL     1      -0.797  10.690  18.713  0.00  0.00    +0.000 A 
ATOM     11  C   UNL     1      -1.804  11.572  19.152  0.00  0.00    +0.000 A 
ATOM     12  C   UNL     1      -3.026  11.672  18.478  0.00  0.00    +0.000 A 
ATOM     13  C   UNL     1      -3.272  10.891  17.352  0.00  0.00    +0.000 A 
ATOM     14  C   UNL     1      -2.290  10.024  16.886  0.00  0.00    +0.000 A 
ATOM     15  C   UNL     1      -1.067   9.925  17.557  0.00  0.00    +0.000 A 
ENDBRANCH   9  10
BRANCH   9  16
ATOM     16  C   UNL     1       1.326   9.228  19.210  0.00  0.00    +0.000 A 
ATOM     17  C   UNL     1       2.002   9.081  17.979  0.00  0.00    +0.000 A 
ATOM     18  C   UNL     1       2.747   7.941  17.685  0.00  0.00    +0.000 A 
ATOM     19  C   UNL     1       2.861   6.930  18.629  0.00  0.00    +0.000 A 
ATOM     20  C   UNL     1       2.239   7.064  19.868  0.00  0.00    +0.000 A 
ATOM     21  C   UNL     1       1.479   8.201  20.159  0.00  0.00    +0.000 A 
ENDBRANCH   9  16
TORSDOF 2
ENDMDL
MODEL 6
REMARK VINA RESULT:      -7.1      5.481      8.662
REMARK  Name = 
REMARK  2 active torsions:
REMARK  status: ('A' for Active; 'I' for Inactive)
REMARK    1  A    between atoms: C_9  and  C_10
REMARK    2  A    between atoms: C_9  and  C_16
REMARK                            x       y       z     vdW  Elec       q    Type
REMARK                         _______ _______ _______ _____ _____    ______ ____
ROOT
ATOM      1  O   UNL     1      -0.457   9.665  21.780  0.00  0.00    +0.000 OA
ATOM      2  C   UNL     1       0.155  10.525  21.159  0.00  0.00    +0.000 C 
ATOM      3  N   UNL     1       0.659  11.704  21.720  0.00  0.00    +0.000 NA
ATOM      4  C   UNL     1       1.220  12.325  20.736  0.00  0.00    +0.000 C 
ATOM      5  S   UNL     1       1.964  13.877  20.738  0.00  0.00    +0.000 S 
ATOM      6  C   UNL     1       2.335  13.768  18.940  0.00  0.00    +0.000 C 
ATOM      7  C   UNL     1       1.575  12.550  18.382  0.00  0.00    +0.000 C 
ATOM      8  N   UNL     1       1.231  11.741  19.519  0.00  0.00    +0.000 N 
ATOM      9  C   UNL     1       0.431  10.517  19.578  0.00  0.00    +0.000 C 
ENDROOT
BRANCH   9  10
ATOM     10  C   UNL     1      -0.862  10.718  18.757  0.00  0.00    +0.000 A 
ATOM     11  C   UNL     1      -1.869  11.600  19.194  0.00  0.00    +0.000 A 
ATOM     12  C   UNL     1      -3.096  11.689  18.526  0.00  0.00    +0.000 A 
ATOM     13  C   UNL     1      -3.346  10.895  17.411  0.00  0.00    +0.000 A 
ATOM     14  C   UNL     1      -2.364  10.027  16.947  0.00  0.00    +0.000 A 
ATOM     15  C   UNL     1      -1.136   9.940  17.611  0.00  0.00    +0.000 A 
ENDBRANCH   9  10
BRANCH   9  16
ATOM     16  C   UNL     1       1.290   9.289  19.228  0.00  0.00    +0.000 A 
ATOM     17  C   UNL     1       1.462   8.213  20.126  0.00  0.00    +0.000 A 
ATOM     18  C   UNL     1       2.253   7.112  19.805  0.00  0.00    +0.000 A 
ATOM     19  C   UNL     1       2.867   7.043  18.563  0.00  0.00    +0.000 A 
ATOM     20  C   UNL     1       2.683   8.071  17.640  0.00  0.00    +0.000 A 
ATOM     21  C   UNL     1       1.902   9.184  17.966  0.00  0.00    +0.000 A 
ENDBRANCH   9  16
TORSDOF 2
ENDMDL
MODEL 7
REMARK VINA RESULT:      -7.0      2.331      4.663
REMARK  Name = 
REMARK  2 active torsions:
REMARK  status: ('A' for Active; 'I' for Inactive)
REMARK    1  A    between atoms: C_9  and  C_10
REMARK    2  A    between atoms: C_9  and  C_16
REMARK                            x       y       z     vdW  Elec       q    Type
REMARK                         _______ _______ _______ _____ _____    ______ ____
ROOT
ATOM      1  O   UNL     1       1.836   4.173  16.908  0.00  0.00    +0.000 OA
ATOM      2  C   UNL     1       2.981   4.448  17.243  0.00  0.00    +0.000 C 
ATOM      3  N   UNL     1       4.122   4.172  16.480  0.00  0.00    +0.000 NA
ATOM      4  C   UNL     1       5.108   4.612  17.189  0.00  0.00    +0.000 C 
ATOM      5  S   UNL     1       6.793   4.509  16.854  0.00  0.00    +0.000 S 
ATOM      6  C   UNL     1       7.220   5.346  18.435  0.00  0.00    +0.000 C 
ATOM      7  C   UNL     1       5.935   5.424  19.281  0.00  0.00    +0.000 C 
ATOM      8  N   UNL     1       4.845   5.215  18.368  0.00  0.00    +0.000 N 
ATOM      9  C   UNL     1       3.412   5.100  18.645  0.00  0.00    +0.000 C 
ENDROOT
BRANCH   9  10
ATOM     10  C   UNL     1       3.203   4.132  19.830  0.00  0.00    +0.000 A 
ATOM     11  C   UNL     1       3.994   2.975  19.970  0.00  0.00    +0.000 A 
ATOM     12  C   UNL     1       3.724   2.028  20.964  0.00  0.00    +0.000 A 
ATOM     13  C   UNL     1       2.656   2.212  21.838  0.00  0.00    +0.000 A 
ATOM     14  C   UNL     1       1.868   3.353  21.733  0.00  0.00    +0.000 A 
ATOM     15  C   UNL     1       2.139   4.302  20.742  0.00  0.00    +0.000 A 
ENDBRANCH   9  10
BRANCH   9  16
ATOM     16  C   UNL     1       2.769   6.493  18.766  0.00  0.00    +0.000 A 
ATOM     17  C   UNL     1       2.212   6.960  19.976  0.00  0.00    +0.000 A 
ATOM     18  C   UNL     1       1.620   8.218  20.071  0.00  0.00    +0.000 A 
ATOM     19  C   UNL     1       1.600   9.055  18.964  0.00  0.00    +0.000 A 
ATOM     20  C   UNL     1       2.178   8.638  17.768  0.00  0.00    +0.000 A 
ATOM     21  C   UNL     1       2.758   7.370  17.666  0.00  0.00    +0.000 A 
ENDBRANCH   9  16
TORSDOF 2
ENDMDL
MODEL 8
REMARK VINA RESULT:      -7.0      5.470      8.559
REMARK  Name = 
REMARK  2 active torsions:
REMARK  status: ('A' for Active; 'I' for Inactive)
REMARK    1  A    between atoms: C_9  and  C_10
REMARK    2  A    between atoms: C_9  and  C_16
REMARK                            x       y       z     vdW  Elec       q    Type
REMARK                         _______ _______ _______ _____ _____    ______ ____
ROOT
ATOM      1  O   UNL     1      -0.411   9.624  21.858  0.00  0.00    +0.000 OA
ATOM      2  C   UNL     1       0.166  10.483  21.204  0.00  0.00    +0.000 C 
ATOM      3  N   UNL     1       0.663  11.682  21.728  0.00  0.00    +0.000 NA
ATOM      4  C   UNL     1       1.183  12.295  20.717  0.00  0.00    +0.000 C 
ATOM      5  S   UNL     1       1.896  13.861  20.668  0.00  0.00    +0.000 S 
ATOM      6  C   UNL     1       2.217  13.725  18.862  0.00  0.00    +0.000 C 
ATOM      7  C   UNL     1       1.465  12.482  18.349  0.00  0.00    +0.000 C 
ATOM      8  N   UNL     1       1.170  11.688  19.511  0.00  0.00    +0.000 N 
ATOM      9  C   UNL     1       0.396  10.450  19.615  0.00  0.00    +0.000 C 
ENDROOT
BRANCH   9  10
ATOM     10  C   UNL     1      -0.923  10.611  18.829  0.00  0.00    +0.000 A 
ATOM     11  C   UNL     1      -1.126   9.941  17.606  0.00  0.00    +0.000 A 
ATOM     12  C   UNL     1      -2.262  10.183  16.826  0.00  0.00    +0.000 A 
ATOM     13  C   UNL     1      -3.219  11.103  17.246  0.00  0.00    +0.000 A 
ATOM     14  C   UNL     1      -3.053  11.767  18.456  0.00  0.00    +0.000 A 
ATOM     15  C   UNL     1      -1.920  11.523  19.239  0.00  0.00    +0.000 A 
ENDBRANCH   9  10
BRANCH   9  16
ATOM     16  C   UNL     1       1.269   9.233  19.263  0.00  0.00    +0.000 A 
ATOM     17  C   UNL     1       1.960   9.135  18.036  0.00  0.00    +0.000 A 
ATOM     18  C   UNL     1       2.738   8.022  17.721  0.00  0.00    +0.000 A 
ATOM     19  C   UNL     1       2.871   6.992  18.642  0.00  0.00    +0.000 A 
ATOM     20  C   UNL     1       2.234   7.080  19.879  0.00  0.00    +0.000 A 
ATOM     21  C   UNL     1       1.441   8.188  20.189  0.00  0.00    +0.000 A 
ENDBRANCH   9  16
TORSDOF 2
ENDMDL
MODEL 9
REMARK VINA RESULT:      -7.0      5.480      8.626
REMARK  Name = 
REMARK  2 active torsions:
REMARK  status: ('A' for Active; 'I' for Inactive)
REMARK    1  A    between atoms: C_9  and  C_10
REMARK    2  A    between atoms: C_9  and  C_16
REMARK                            x       y       z     vdW  Elec       q    Type
REMARK                         _______ _______ _______ _____ _____    ______ ____
ROOT
ATOM      1  O   UNL     1      -0.408   9.668  21.885  0.00  0.00    +0.000 OA
ATOM      2  C   UNL     1       0.174  10.517  21.223  0.00  0.00    +0.000 C 
ATOM      3  N   UNL     1       0.675  11.719  21.735  0.00  0.00    +0.000 NA
ATOM      4  C   UNL     1       1.201  12.318  20.719  0.00  0.00    +0.000 C 
ATOM      5  S   UNL     1       1.921  13.880  20.654  0.00  0.00    +0.000 S 
ATOM      6  C   UNL     1       2.247  13.722  18.850  0.00  0.00    +0.000 C 
ATOM      7  C   UNL     1       1.490  12.477  18.349  0.00  0.00    +0.000 C 
ATOM      8  N   UNL     1       1.188  11.698  19.519  0.00  0.00    +0.000 N 
ATOM      9  C   UNL     1       0.408  10.465  19.636  0.00  0.00    +0.000 C 
ENDROOT
BRANCH   9  10
ATOM     10  C   UNL     1      -0.908  10.623  18.844  0.00  0.00    +0.000 A 
ATOM     11  C   UNL     1      -1.113   9.935  17.632  0.00  0.00    +0.000 A 
ATOM     12  C   UNL     1      -2.246  10.173  16.845  0.00  0.00    +0.000 A 
ATOM     13  C   UNL     1      -3.197  11.107  17.249  0.00  0.00    +0.000 A 
ATOM     14  C   UNL     1      -3.028  11.788  18.449  0.00  0.00    +0.000 A 
ATOM     15  C   UNL     1      -1.899  11.548  19.238  0.00  0.00    +0.000 A 
ENDBRANCH   9  10
BRANCH   9  16
ATOM     16  C   UNL     1       1.276   9.240  19.300  0.00  0.00    +0.000 A 
ATOM     17  C   UNL     1       1.439   8.166  20.203  0.00  0.00    +0.000 A 
ATOM     18  C   UNL     1       2.238   7.066  19.894  0.00  0.00    +0.000 A 
ATOM     19  C   UNL     1       2.869   6.998  18.660  0.00  0.00    +0.000 A 
ATOM     20  C   UNL     1       2.694   8.023  17.732  0.00  0.00    +0.000 A 
ATOM     21  C   UNL     1       1.905   9.134  18.046  0.00  0.00    +0.000 A 
ENDBRANCH   9  16
TORSDOF 2
ENDMDL
