MODEL 1
REMARK VINA RESULT:      -7.1      0.000      0.000
REMARK  Name = 
REMARK  6 active torsions:
REMARK  status: ('A' for Active; 'I' for Inactive)
REMARK    1  A    between atoms: C_1  and  N_2
REMARK    2  A    between atoms: C_5  and  N_6
REMARK    3  A    between atoms: C_9  and  N_10
REMARK    4  A    between atoms: N_10  and  C_11
REMARK    5  A    between atoms: C_11  and  C_12
REMARK    6  A    between atoms: C_12  and  N_13
REMARK                            x       y       z     vdW  Elec       q    Type
REMARK                         _______ _______ _______ _____ _____    ______ ____
ROOT
ATOM      1  N   UNL     1       5.009   3.605  17.742  0.00  0.00    +0.000 NA
ATOM      2  H   UNL     1       4.923   4.130  18.614  0.00  0.00    +0.000 HD
ENDROOT
BRANCH   1   8
ATOM      3  C   UNL     1       4.202   6.687  17.374  0.00  0.00    +0.000 C 
ATOM      4  N   UNL     1       5.363   5.824  17.324  0.00  0.00    +0.000 N 
ATOM      5  C   UNL     1       6.676   6.266  17.618  0.00  0.00    +0.000 C 
ATOM      6  N   UNL     1       7.641   5.534  17.181  0.00  0.00    +0.000 NA
ATOM      7  C   UNL     1       6.949   4.489  16.335  0.00  0.00    +0.000 C 
ATOM      8  C   UNL     1       5.438   4.522  16.687  0.00  0.00    +0.000 C 
BRANCH   7   9
ATOM      9  N   UNL     1       6.981   4.736  14.840  0.00  0.00    +0.000 N 
ATOM     10  O   UNL     1       6.186   4.097  14.138  0.00  0.00    +0.000 OA
ATOM     11  O   UNL     1       7.863   5.497  14.422  0.00  0.00    +0.000 OA
ENDBRANCH   7   9
ENDBRANCH   1   8
BRANCH   1  12
ATOM     12  C   UNL     1       3.691   3.019  17.436  0.00  0.00    +0.000 C 
BRANCH  12  13
ATOM     13  C   UNL     1       3.298   1.909  18.429  0.00  0.00    +0.000 C 
BRANCH  13  14
ATOM     14  N   UNL     1       2.473   2.404  19.516  0.00  0.00    +0.000 N 
ATOM     15  C   UNL     1       2.966   2.681  20.850  0.00  0.00    +0.000 C 
ATOM     16  C   UNL     1       1.795   3.419  21.488  0.00  0.00    +0.000 C 
ATOM     17  N   UNL     1       0.668   2.999  20.698  0.00  0.00    +0.000 N 
ATOM     18  C   UNL     1       1.091   2.539  19.462  0.00  0.00    +0.000 C 
ATOM     19  O   UNL     1       0.371   2.301  18.509  0.00  0.00    +0.000 OA
ATOM     20  H   UNL     1      -0.282   3.330  20.803  0.00  0.00    +0.000 HD
ENDBRANCH  13  14
ENDBRANCH  12  13
ENDBRANCH   1  12
TORSDOF 5
ENDMDL
MODEL 2
REMARK VINA RESULT:      -7.0      1.323      1.512
REMARK  Name = 
REMARK  6 active torsions:
REMARK  status: ('A' for Active; 'I' for Inactive)
REMARK    1  A    between atoms: C_1  and  N_2
REMARK    2  A    between atoms: C_5  and  N_6
REMARK    3  A    between atoms: C_9  and  N_10
REMARK    4  A    between atoms: N_10  and  C_11
REMARK    5  A    between atoms: C_11  and  C_12
REMARK    6  A    between atoms: C_12  and  N_13
REMARK                            x       y       z     vdW  Elec       q    Type
REMARK                         _______ _______ _______ _____ _____    ______ ____
ROOT
ATOM      1  N   UNL     1       4.791   3.393  17.285  0.00  0.00    +0.000 NA
ATOM      2  H   UNL     1       5.059   3.666  18.232  0.00  0.00    +0.000 HD
ENDROOT
BRANCH   1   8
ATOM      3  C   UNL     1       4.583   6.590  17.440  0.00  0.00    +0.000 C 
ATOM      4  N   UNL     1       5.550   5.546  17.172  0.00  0.00    +0.000 N 
ATOM      5  C   UNL     1       6.937   5.685  17.424  0.00  0.00    +0.000 C 
ATOM      6  N   UNL     1       7.718   4.866  16.809  0.00  0.00    +0.000 NA
ATOM      7  C   UNL     1       6.795   4.117  15.876  0.00  0.00    +0.000 C 
ATOM      8  C   UNL     1       5.338   4.372  16.346  0.00  0.00    +0.000 C 
BRANCH   7   9
ATOM      9  N   UNL     1       6.801   4.589  14.435  0.00  0.00    +0.000 N 
ATOM     10  O   UNL     1       5.997   4.059  13.657  0.00  0.00    +0.000 OA
ATOM     11  O   UNL     1       7.672   5.410  14.124  0.00  0.00    +0.000 OA
ENDBRANCH   7   9
ENDBRANCH   1   8
BRANCH   1  12
ATOM     12  C   UNL     1       3.318   3.361  17.224  0.00  0.00    +0.000 C 
BRANCH  12  13
ATOM     13  C   UNL     1       2.727   2.148  17.968  0.00  0.00    +0.000 C 
BRANCH  13  14
ATOM     14  N   UNL     1       2.465   2.430  19.367  0.00  0.00    +0.000 N 
ATOM     15  C   UNL     1       1.179   2.853  19.883  0.00  0.00    +0.000 C 
ATOM     16  C   UNL     1       1.376   2.739  21.390  0.00  0.00    +0.000 C 
ATOM     17  N   UNL     1       2.804   2.812  21.545  0.00  0.00    +0.000 N 
ATOM     18  C   UNL     1       3.435   2.472  20.361  0.00  0.00    +0.000 C 
ATOM     19  O   UNL     1       4.626   2.253  20.228  0.00  0.00    +0.000 OA
ATOM     20  H   UNL     1       3.308   2.720  22.418  0.00  0.00    +0.000 HD
ENDBRANCH  13  14
ENDBRANCH  12  13
ENDBRANCH   1  12
TORSDOF 5
ENDMDL
MODEL 3
REMARK VINA RESULT:      -7.0      1.043      1.186
REMARK  Name = 
REMARK  6 active torsions:
REMARK  status: ('A' for Active; 'I' for Inactive)
REMARK    1  A    between atoms: C_1  and  N_2
REMARK    2  A    between atoms: C_5  and  N_6
REMARK    3  A    between atoms: C_9  and  N_10
REMARK    4  A    between atoms: N_10  and  C_11
REMARK    5  A    between atoms: C_11  and  C_12
REMARK    6  A    between atoms: C_12  and  N_13
REMARK                            x       y       z     vdW  Elec       q    Type
REMARK                         _______ _______ _______ _____ _____    ______ ____
ROOT
ATOM      1  N   UNL     1       4.944   3.069  17.268  0.00  0.00    +0.000 NA
ATOM      2  H   UNL     1       5.300   2.871  18.205  0.00  0.00    +0.000 HD
ENDROOT
BRANCH   1   8
ATOM      3  C   UNL     1       5.560   5.676  19.032  0.00  0.00    +0.000 C 
ATOM      4  N   UNL     1       6.164   4.857  18.003  0.00  0.00    +0.000 N 
ATOM      5  C   UNL     1       7.564   4.704  17.851  0.00  0.00    +0.000 C 
ATOM      6  N   UNL     1       7.975   4.278  16.707  0.00  0.00    +0.000 NA
ATOM      7  C   UNL     1       6.723   4.245  15.861  0.00  0.00    +0.000 C 
ATOM      8  C   UNL     1       5.504   4.343  16.817  0.00  0.00    +0.000 C 
BRANCH   7   9
ATOM      9  N   UNL     1       6.542   5.418  14.918  0.00  0.00    +0.000 N 
ATOM     10  O   UNL     1       7.388   5.572  14.028  0.00  0.00    +0.000 OA
ATOM     11  O   UNL     1       5.605   6.188  15.164  0.00  0.00    +0.000 OA
ENDBRANCH   7   9
ENDBRANCH   1   8
BRANCH   1  12
ATOM     12  C   UNL     1       3.472   3.132  17.347  0.00  0.00    +0.000 C 
BRANCH  12  13
ATOM     13  C   UNL     1       2.882   1.985  18.189  0.00  0.00    +0.000 C 
BRANCH  13  14
ATOM     14  N   UNL     1       2.347   2.447  19.457  0.00  0.00    +0.000 N 
ATOM     15  C   UNL     1       3.142   2.640  20.652  0.00  0.00    +0.000 C 
ATOM     16  C   UNL     1       2.177   3.377  21.575  0.00  0.00    +0.000 C 
ATOM     17  N   UNL     1       0.885   3.030  21.047  0.00  0.00    +0.000 N 
ATOM     18  C   UNL     1       0.996   2.624  19.728  0.00  0.00    +0.000 C 
ATOM     19  O   UNL     1       0.068   2.456  18.957  0.00  0.00    +0.000 OA
ATOM     20  H   UNL     1      -0.003   3.382  21.382  0.00  0.00    +0.000 HD
ENDBRANCH  13  14
ENDBRANCH  12  13
ENDBRANCH   1  12
TORSDOF 5
ENDMDL
MODEL 4
REMARK VINA RESULT:      -6.9      2.034      2.837
REMARK  Name = 
REMARK  6 active torsions:
REMARK  status: ('A' for Active; 'I' for Inactive)
REMARK    1  A    between atoms: C_1  and  N_2
REMARK    2  A    between atoms: C_5  and  N_6
REMARK    3  A    between atoms: C_9  and  N_10
REMARK    4  A    between atoms: N_10  and  C_11
REMARK    5  A    between atoms: C_11  and  C_12
REMARK    6  A    between atoms: C_12  and  N_13
REMARK                            x       y       z     vdW  Elec       q    Type
REMARK                         _______ _______ _______ _____ _____    ______ ____
ROOT
ATOM      1  N   UNL     1       5.518   3.667  17.788  0.00  0.00    +0.000 NA
ATOM      2  H   UNL     1       6.087   2.827  17.916  0.00  0.00    +0.000 HD
ENDROOT
BRANCH   1   8
ATOM      3  C   UNL     1       6.518   4.139  14.778  0.00  0.00    +0.000 C 
ATOM      4  N   UNL     1       5.975   4.873  15.901  0.00  0.00    +0.000 N 
ATOM      5  C   UNL     1       5.196   6.047  15.762  0.00  0.00    +0.000 C 
ATOM      6  N   UNL     1       5.099   6.800  16.803  0.00  0.00    +0.000 NA
ATOM      7  C   UNL     1       6.044   6.167  17.797  0.00  0.00    +0.000 C 
ATOM      8  C   UNL     1       6.379   4.739  17.289  0.00  0.00    +0.000 C 
BRANCH   7   9
ATOM      9  N   UNL     1       7.399   6.835  17.926  0.00  0.00    +0.000 N 
ATOM     10  O   UNL     1       7.708   7.669  17.065  0.00  0.00    +0.000 OA
ATOM     11  O   UNL     1       8.132   6.431  18.837  0.00  0.00    +0.000 OA
ENDBRANCH   7   9
ENDBRANCH   1   8
BRANCH   1  12
ATOM     12  C   UNL     1       4.931   4.018  19.095  0.00  0.00    +0.000 C 
BRANCH  12  13
ATOM     13  C   UNL     1       4.294   2.804  19.797  0.00  0.00    +0.000 C 
BRANCH  13  14
ATOM     14  N   UNL     1       2.844   2.835  19.752  0.00  0.00    +0.000 N 
ATOM     15  C   UNL     1       2.070   2.881  18.529  0.00  0.00    +0.000 C 
ATOM     16  C   UNL     1       0.652   2.621  19.027  0.00  0.00    +0.000 C 
ATOM     17  N   UNL     1       0.713   3.000  20.413  0.00  0.00    +0.000 N 
ATOM     18  C   UNL     1       2.022   2.970  20.864  0.00  0.00    +0.000 C 
ATOM     19  O   UNL     1       2.373   3.050  22.027  0.00  0.00    +0.000 OA
ATOM     20  H   UNL     1      -0.042   2.914  21.081  0.00  0.00    +0.000 HD
ENDBRANCH  13  14
ENDBRANCH  12  13
ENDBRANCH   1  12
TORSDOF 5
ENDMDL
MODEL 5
REMARK VINA RESULT:      -6.9      1.814      1.986
REMARK  Name = 
REMARK  6 active torsions:
REMARK  status: ('A' for Active; 'I' for Inactive)
REMARK    1  A    between atoms: C_1  and  N_2
REMARK    2  A    between atoms: C_5  and  N_6
REMARK    3  A    between atoms: C_9  and  N_10
REMARK    4  A    between atoms: N_10  and  C_11
REMARK    5  A    between atoms: C_11  and  C_12
REMARK    6  A    between atoms: C_12  and  N_13
REMARK                            x       y       z     vdW  Elec       q    Type
REMARK                         _______ _______ _______ _____ _____    ______ ____
ROOT
ATOM      1  N   UNL     1       4.482   3.279  17.509  0.00  0.00    +0.000 NA
ATOM      2  H   UNL     1       4.729   2.913  18.430  0.00  0.00    +0.000 HD
ENDROOT
BRANCH   1   8
ATOM      3  C   UNL     1       3.671   5.764  19.368  0.00  0.00    +0.000 C 
ATOM      4  N   UNL     1       4.840   5.147  18.778  0.00  0.00    +0.000 N 
ATOM      5  C   UNL     1       6.133   5.219  19.351  0.00  0.00    +0.000 C 
ATOM      6  N   UNL     1       7.124   4.972  18.567  0.00  0.00    +0.000 NA
ATOM      7  C   UNL     1       6.484   4.837  17.204  0.00  0.00    +0.000 C 
ATOM      8  C   UNL     1       4.957   4.660  17.415  0.00  0.00    +0.000 C 
BRANCH   7   9
ATOM      9  N   UNL     1       6.590   6.057  16.311  0.00  0.00    +0.000 N 
ATOM     10  O   UNL     1       5.595   6.362  15.641  0.00  0.00    +0.000 OA
ATOM     11  O   UNL     1       7.696   6.608  16.253  0.00  0.00    +0.000 OA
ENDBRANCH   7   9
ENDBRANCH   1   8
BRANCH   1  12
ATOM     12  C   UNL     1       3.015   3.209  17.373  0.00  0.00    +0.000 C 
BRANCH  12  13
ATOM     13  C   UNL     1       2.406   2.052  18.188  0.00  0.00    +0.000 C 
BRANCH  13  14
ATOM     14  N   UNL     1       2.236   2.391  19.588  0.00  0.00    +0.000 N 
ATOM     15  C   UNL     1       1.009   2.914  20.155  0.00  0.00    +0.000 C 
ATOM     16  C   UNL     1       1.276   2.829  21.653  0.00  0.00    +0.000 C 
ATOM     17  N   UNL     1       2.712   2.811  21.734  0.00  0.00    +0.000 N 
ATOM     18  C   UNL     1       3.257   2.396  20.531  0.00  0.00    +0.000 C 
ATOM     19  O   UNL     1       4.422   2.094  20.346  0.00  0.00    +0.000 OA
ATOM     20  H   UNL     1       3.253   2.709  22.583  0.00  0.00    +0.000 HD
ENDBRANCH  13  14
ENDBRANCH  12  13
ENDBRANCH   1  12
TORSDOF 5
ENDMDL
MODEL 6
REMARK VINA RESULT:      -6.9      1.407      1.857
REMARK  Name = 
REMARK  6 active torsions:
REMARK  status: ('A' for Active; 'I' for Inactive)
REMARK    1  A    between atoms: C_1  and  N_2
REMARK    2  A    between atoms: C_5  and  N_6
REMARK    3  A    between atoms: C_9  and  N_10
REMARK    4  A    between atoms: N_10  and  C_11
REMARK    5  A    between atoms: C_11  and  C_12
REMARK    6  A    between atoms: C_12  and  N_13
REMARK                            x       y       z     vdW  Elec       q    Type
REMARK                         _______ _______ _______ _____ _____    ______ ____
ROOT
ATOM      1  N   UNL     1       5.972   4.271  18.689  0.00  0.00    +0.000 NA
ATOM      2  H   UNL     1       5.904   5.077  19.314  0.00  0.00    +0.000 HD
ENDROOT
BRANCH   1   8
ATOM      3  C   UNL     1       4.025   6.523  17.495  0.00  0.00    +0.000 C 
ATOM      4  N   UNL     1       5.411   6.107  17.449  0.00  0.00    +0.000 N 
ATOM      5  C   UNL     1       6.486   7.001  17.219  0.00  0.00    +0.000 C 
ATOM      6  N   UNL     1       7.596   6.477  16.829  0.00  0.00    +0.000 NA
ATOM      7  C   UNL     1       7.254   5.022  16.610  0.00  0.00    +0.000 C 
ATOM      8  C   UNL     1       5.895   4.746  17.308  0.00  0.00    +0.000 C 
BRANCH   7   9
ATOM      9  N   UNL     1       7.012   4.619  15.169  0.00  0.00    +0.000 N 
ATOM     10  O   UNL     1       7.564   5.289  14.287  0.00  0.00    +0.000 OA
ATOM     11  O   UNL     1       6.207   3.698  14.978  0.00  0.00    +0.000 OA
ENDBRANCH   7   9
ENDBRANCH   1   8
BRANCH   1  12
ATOM     12  C   UNL     1       4.857   3.359  19.003  0.00  0.00    +0.000 C 
BRANCH  12  13
ATOM     13  C   UNL     1       3.907   3.940  20.068  0.00  0.00    +0.000 C 
BRANCH  13  14
ATOM     14  N   UNL     1       2.538   3.493  19.892  0.00  0.00    +0.000 N 
ATOM     15  C   UNL     1       1.829   3.525  18.629  0.00  0.00    +0.000 C 
ATOM     16  C   UNL     1       0.576   2.711  18.934  0.00  0.00    +0.000 C 
ATOM     17  N   UNL     1       0.464   2.799  20.365  0.00  0.00    +0.000 N 
ATOM     18  C   UNL     1       1.689   3.118  20.926  0.00  0.00    +0.000 C 
ATOM     19  O   UNL     1       1.960   3.073  22.113  0.00  0.00    +0.000 OA
ATOM     20  H   UNL     1      -0.232   2.332  20.932  0.00  0.00    +0.000 HD
ENDBRANCH  13  14
ENDBRANCH  12  13
ENDBRANCH   1  12
TORSDOF 5
ENDMDL
MODEL 7
REMARK VINA RESULT:      -6.8      0.852      1.170
REMARK  Name = 
REMARK  6 active torsions:
REMARK  status: ('A' for Active; 'I' for Inactive)
REMARK    1  A    between atoms: C_1  and  N_2
REMARK    2  A    between atoms: C_5  and  N_6
REMARK    3  A    between atoms: C_9  and  N_10
REMARK    4  A    between atoms: N_10  and  C_11
REMARK    5  A    between atoms: C_11  and  C_12
REMARK    6  A    between atoms: C_12  and  N_13
REMARK                            x       y       z     vdW  Elec       q    Type
REMARK                         _______ _______ _______ _____ _____    ______ ____
ROOT
ATOM      1  N   UNL     1       5.088   3.717  17.941  0.00  0.00    +0.000 NA
ATOM      2  H   UNL     1       4.725   4.327  18.675  0.00  0.00    +0.000 HD
ENDROOT
BRANCH   1   8
ATOM      3  C   UNL     1       4.250   6.752  17.329  0.00  0.00    +0.000 C 
ATOM      4  N   UNL     1       5.417   5.896  17.333  0.00  0.00    +0.000 N 
ATOM      5  C   UNL     1       6.731   6.370  17.568  0.00  0.00    +0.000 C 
ATOM      6  N   UNL     1       7.695   5.610  17.178  0.00  0.00    +0.000 NA
ATOM      7  C   UNL     1       6.999   4.494  16.434  0.00  0.00    +0.000 C 
ATOM      8  C   UNL     1       5.493   4.546  16.806  0.00  0.00    +0.000 C 
BRANCH   7   9
ATOM      9  N   UNL     1       7.006   4.615  14.923  0.00  0.00    +0.000 N 
ATOM     10  O   UNL     1       7.777   5.442  14.419  0.00  0.00    +0.000 OA
ATOM     11  O   UNL     1       6.175   3.935  14.308  0.00  0.00    +0.000 OA
ENDBRANCH   7   9
ENDBRANCH   1   8
BRANCH   1  12
ATOM     12  C   UNL     1       4.014   2.779  17.561  0.00  0.00    +0.000 C 
BRANCH  12  13
ATOM     13  C   UNL     1       2.654   3.483  17.395  0.00  0.00    +0.000 C 
BRANCH  13  14
ATOM     14  N   UNL     1       1.965   3.661  18.660  0.00  0.00    +0.000 N 
ATOM     15  C   UNL     1       2.418   4.546  19.714  0.00  0.00    +0.000 C 
ATOM     16  C   UNL     1       1.224   4.566  20.662  0.00  0.00    +0.000 C 
ATOM     17  N   UNL     1       0.530   3.346  20.348  0.00  0.00    +0.000 N 
ATOM     18  C   UNL     1       0.875   2.909  19.080  0.00  0.00    +0.000 C 
ATOM     19  O   UNL     1       0.316   2.023  18.459  0.00  0.00    +0.000 OA
ATOM     20  H   UNL     1      -0.348   3.046  20.752  0.00  0.00    +0.000 HD
ENDBRANCH  13  14
ENDBRANCH  12  13
ENDBRANCH   1  12
TORSDOF 5
ENDMDL
MODEL 8
REMARK VINA RESULT:      -6.8      1.578      2.023
REMARK  Name = 
REMARK  6 active torsions:
REMARK  status: ('A' for Active; 'I' for Inactive)
REMARK    1  A    between atoms: C_1  and  N_2
REMARK    2  A    between atoms: C_5  and  N_6
REMARK    3  A    between atoms: C_9  and  N_10
REMARK    4  A    between atoms: N_10  and  C_11
REMARK    5  A    between atoms: C_11  and  C_12
REMARK    6  A    between atoms: C_12  and  N_13
REMARK                            x       y       z     vdW  Elec       q    Type
REMARK                         _______ _______ _______ _____ _____    ______ ____
ROOT
ATOM      1  N   UNL     1       5.248   3.555  18.668  0.00  0.00    +0.000 NA
ATOM      2  H   UNL     1       4.907   3.694  19.620  0.00  0.00    +0.000 HD
ENDROOT
BRANCH   1   8
ATOM      3  C   UNL     1       7.683   5.503  19.416  0.00  0.00    +0.000 C 
ATOM      4  N   UNL     1       6.996   4.970  18.259  0.00  0.00    +0.000 N 
ATOM      5  C   UNL     1       7.622   4.769  17.004  0.00  0.00    +0.000 C 
ATOM      6  N   UNL     1       6.843   4.658  15.984  0.00  0.00    +0.000 NA
ATOM      7  C   UNL     1       5.470   4.954  16.542  0.00  0.00    +0.000 C 
ATOM      8  C   UNL     1       5.559   4.862  18.089  0.00  0.00    +0.000 C 
BRANCH   7   9
ATOM      9  N   UNL     1       4.953   6.357  16.290  0.00  0.00    +0.000 N 
ATOM     10  O   UNL     1       4.253   6.875  17.171  0.00  0.00    +0.000 OA
ATOM     11  O   UNL     1       5.198   6.848  15.182  0.00  0.00    +0.000 OA
ENDBRANCH   7   9
ENDBRANCH   1   8
BRANCH   1  12
ATOM     12  C   UNL     1       4.188   2.871  17.903  0.00  0.00    +0.000 C 
BRANCH  12  13
ATOM     13  C   UNL     1       3.473   1.788  18.734  0.00  0.00    +0.000 C 
BRANCH  13  14
ATOM     14  N   UNL     1       2.551   2.351  19.702  0.00  0.00    +0.000 N 
ATOM     15  C   UNL     1       2.875   2.580  21.095  0.00  0.00    +0.000 C 
ATOM     16  C   UNL     1       1.694   3.416  21.576  0.00  0.00    +0.000 C 
ATOM     17  N   UNL     1       0.656   3.096  20.632  0.00  0.00    +0.000 N 
ATOM     18  C   UNL     1       1.206   2.605  19.460  0.00  0.00    +0.000 C 
ATOM     19  O   UNL     1       0.608   2.431  18.413  0.00  0.00    +0.000 OA
ATOM     20  H   UNL     1      -0.268   3.508  20.609  0.00  0.00    +0.000 HD
ENDBRANCH  13  14
ENDBRANCH  12  13
ENDBRANCH   1  12
TORSDOF 5
ENDMDL
MODEL 9
REMARK VINA RESULT:      -6.8      1.169      1.374
REMARK  Name = 
REMARK  6 active torsions:
REMARK  status: ('A' for Active; 'I' for Inactive)
REMARK    1  A    between atoms: C_1  and  N_2
REMARK    2  A    between atoms: C_5  and  N_6
REMARK    3  A    between atoms: C_9  and  N_10
REMARK    4  A    between atoms: N_10  and  C_11
REMARK    5  A    between atoms: C_11  and  C_12
REMARK    6  A    between atoms: C_12  and  N_13
REMARK                            x       y       z     vdW  Elec       q    Type
REMARK                         _______ _______ _______ _____ _____    ______ ____
ROOT
ATOM      1  N   UNL     1       5.783   4.838  19.057  0.00  0.00    +0.000 NA
ATOM      2  H   UNL     1       5.251   5.574  19.525  0.00  0.00    +0.000 HD
ENDROOT
BRANCH   1   8
ATOM      3  C   UNL     1       4.033   7.001  17.460  0.00  0.00    +0.000 C 
ATOM      4  N   UNL     1       5.392   6.510  17.547  0.00  0.00    +0.000 N 
ATOM      5  C   UNL     1       6.528   7.303  17.255  0.00  0.00    +0.000 C 
ATOM      6  N   UNL     1       7.622   6.672  17.002  0.00  0.00    +0.000 NA
ATOM      7  C   UNL     1       7.202   5.220  16.967  0.00  0.00    +0.000 C 
ATOM      8  C   UNL     1       5.799   5.118  17.621  0.00  0.00    +0.000 C 
BRANCH   7   9
ATOM      9  N   UNL     1       7.004   4.632  15.584  0.00  0.00    +0.000 N 
ATOM     10  O   UNL     1       7.578   5.188  14.639  0.00  0.00    +0.000 OA
ATOM     11  O   UNL     1       6.210   3.687  15.492  0.00  0.00    +0.000 OA
ENDBRANCH   7   9
ENDBRANCH   1   8
BRANCH   1  12
ATOM     12  C   UNL     1       5.123   3.551  19.343  0.00  0.00    +0.000 C 
BRANCH  12  13
ATOM     13  C   UNL     1       3.829   3.363  18.528  0.00  0.00    +0.000 C 
BRANCH  13  14
ATOM     14  N   UNL     1       2.663   3.187  19.372  0.00  0.00    +0.000 N 
ATOM     15  C   UNL     1       2.716   2.735  20.748  0.00  0.00    +0.000 C 
ATOM     16  C   UNL     1       1.294   2.991  21.234  0.00  0.00    +0.000 C 
ATOM     17  N   UNL     1       0.527   3.016  20.018  0.00  0.00    +0.000 N 
ATOM     18  C   UNL     1       1.348   3.288  18.936  0.00  0.00    +0.000 C 
ATOM     19  O   UNL     1       0.971   3.565  17.812  0.00  0.00    +0.000 OA
ATOM     20  H   UNL     1      -0.463   3.213  19.949  0.00  0.00    +0.000 HD
ENDBRANCH  13  14
ENDBRANCH  12  13
ENDBRANCH   1  12
TORSDOF 5
ENDMDL
