MODEL 1
REMARK VINA RESULT:      -6.9      0.000      0.000
REMARK  Name = 
REMARK  6 active torsions:
REMARK  status: ('A' for Active; 'I' for Inactive)
REMARK    1  A    between atoms: C_1  and  N_2
REMARK    2  A    between atoms: N_2  and  C_12
REMARK    3  A    between atoms: N_5  and  C_6
REMARK    4  A    between atoms: C_12  and  C_13
REMARK    5  A    between atoms: C_13  and  C_14
REMARK    6  A    between atoms: C_14  and  O_15
REMARK                            x       y       z     vdW  Elec       q    Type
REMARK                         _______ _______ _______ _____ _____    ______ ____
ROOT
ATOM      1  C   UNL     1       3.805   6.398  17.540  0.00  0.00    +0.000 C 
ATOM      2  N   UNL     1       4.834   5.438  17.953  0.00  0.00    +0.000 N 
ATOM      3  C   UNL     1       4.529   4.190  18.509  0.00  0.00    +0.000 C 
ATOM      4  O   UNL     1       5.393   3.411  18.916  0.00  0.00    +0.000 OA
ATOM      5  N   UNL     1       3.201   3.834  18.524  0.00  0.00    +0.000 N 
ATOM      6  H   UNL     1       2.541   4.573  18.704  0.00  0.00    +0.000 HD
ENDROOT
BRANCH   5   7
ATOM      7  C   UNL     1       2.788   2.512  19.000  0.00  0.00    +0.000 C 
ATOM      8  C   UNL     1       3.350   2.227  20.400  0.00  0.00    +0.000 C 
ATOM      9  C   UNL     1       2.637   3.027  21.490  0.00  0.00    +0.000 C 
ATOM     10  C   UNL     1       1.129   2.801  21.458  0.00  0.00    +0.000 C 
ATOM     11  C   UNL     1       0.544   3.115  20.085  0.00  0.00    +0.000 C 
ATOM     12  C   UNL     1       1.262   2.352  18.973  0.00  0.00    +0.000 C 
ENDBRANCH   5   7
BRANCH   2  13
ATOM     13  C   UNL     1       6.304   5.839  17.770  0.00  0.00    +0.000 C 
ATOM     14  C   UNL     1       7.036   5.751  19.144  0.00  0.00    +0.000 C 
ATOM     15  C   UNL     1       8.412   6.410  19.157  0.00  0.00    +0.000 C 
ATOM     16  O   UNL     1       8.342   7.763  18.718  0.00  0.00    +0.000 OA
ATOM     17  C   UNL     1       7.876   7.862  17.380  0.00  0.00    +0.000 C 
ATOM     18  C   UNL     1       6.457   7.316  17.279  0.00  0.00    +0.000 C 
BRANCH  13  19
ATOM     19  C   UNL     1       6.993   4.873  16.741  0.00  0.00    +0.000 C 
BRANCH  19  20
ATOM     20  C   UNL     1       6.558   5.059  15.286  0.00  0.00    +0.000 C 
BRANCH  20  21
ATOM     21  O   UNL     1       7.683   5.377  14.470  0.00  0.00    +0.000 OA
ATOM     22  H   UNL     1       8.083   4.544  14.170  0.00  0.00    +0.000 HD
ENDBRANCH  20  21
ENDBRANCH  19  20
ENDBRANCH  13  19
ENDBRANCH   2  13
TORSDOF 5
ENDMDL
MODEL 2
REMARK VINA RESULT:      -6.4      1.198      1.804
REMARK  Name = 
REMARK  6 active torsions:
REMARK  status: ('A' for Active; 'I' for Inactive)
REMARK    1  A    between atoms: C_1  and  N_2
REMARK    2  A    between atoms: N_2  and  C_12
REMARK    3  A    between atoms: N_5  and  C_6
REMARK    4  A    between atoms: C_12  and  C_13
REMARK    5  A    between atoms: C_13  and  C_14
REMARK    6  A    between atoms: C_14  and  O_15
REMARK                            x       y       z     vdW  Elec       q    Type
REMARK                         _______ _______ _______ _____ _____    ______ ____
ROOT
ATOM      1  C   UNL     1       4.660   3.368  16.634  0.00  0.00    +0.000 C 
ATOM      2  N   UNL     1       4.885   4.541  17.486  0.00  0.00    +0.000 N 
ATOM      3  C   UNL     1       3.913   5.040  18.362  0.00  0.00    +0.000 C 
ATOM      4  O   UNL     1       4.077   6.063  19.030  0.00  0.00    +0.000 OA
ATOM      5  N   UNL     1       2.767   4.290  18.498  0.00  0.00    +0.000 N 
ATOM      6  H   UNL     1       2.425   3.841  17.665  0.00  0.00    +0.000 HD
ENDROOT
BRANCH   5   7
ATOM      7  C   UNL     1       1.731   4.679  19.457  0.00  0.00    +0.000 C 
ATOM      8  C   UNL     1       0.569   3.676  19.453  0.00  0.00    +0.000 C 
ATOM      9  C   UNL     1       0.934   2.354  20.128  0.00  0.00    +0.000 C 
ATOM     10  C   UNL     1       1.453   2.572  21.545  0.00  0.00    +0.000 C 
ATOM     11  C   UNL     1       2.634   3.538  21.569  0.00  0.00    +0.000 C 
ATOM     12  C   UNL     1       2.305   4.855  20.870  0.00  0.00    +0.000 C 
ENDBRANCH   5   7
BRANCH   2  13
ATOM     13  C   UNL     1       6.245   5.245  17.395  0.00  0.00    +0.000 C 
ATOM     14  C   UNL     1       6.944   5.195  18.789  0.00  0.00    +0.000 C 
ATOM     15  C   UNL     1       8.154   6.115  18.909  0.00  0.00    +0.000 C 
ATOM     16  O   UNL     1       7.819   7.458  18.570  0.00  0.00    +0.000 OA
ATOM     17  C   UNL     1       7.377   7.570  17.225  0.00  0.00    +0.000 C 
ATOM     18  C   UNL     1       6.104   6.757  17.024  0.00  0.00    +0.000 C 
BRANCH  13  19
ATOM     19  C   UNL     1       7.144   4.527  16.327  0.00  0.00    +0.000 C 
BRANCH  19  20
ATOM     20  C   UNL     1       6.877   4.933  14.877  0.00  0.00    +0.000 C 
BRANCH  20  21
ATOM     21  O   UNL     1       8.038   5.534  14.309  0.00  0.00    +0.000 OA
ATOM     22  H   UNL     1       7.785   6.400  13.949  0.00  0.00    +0.000 HD
ENDBRANCH  20  21
ENDBRANCH  19  20
ENDBRANCH  13  19
ENDBRANCH   2  13
TORSDOF 5
ENDMDL
MODEL 3
REMARK VINA RESULT:      -6.2      4.180      6.088
REMARK  Name = 
REMARK  6 active torsions:
REMARK  status: ('A' for Active; 'I' for Inactive)
REMARK    1  A    between atoms: C_1  and  N_2
REMARK    2  A    between atoms: N_2  and  C_12
REMARK    3  A    between atoms: N_5  and  C_6
REMARK    4  A    between atoms: C_12  and  C_13
REMARK    5  A    between atoms: C_13  and  C_14
REMARK    6  A    between atoms: C_14  and  O_15
REMARK                            x       y       z     vdW  Elec       q    Type
REMARK                         _______ _______ _______ _____ _____    ______ ____
ROOT
ATOM      1  C   UNL     1       1.842   6.403  20.732  0.00  0.00    +0.000 C 
ATOM      2  N   UNL     1       2.383   6.655  19.393  0.00  0.00    +0.000 N 
ATOM      3  C   UNL     1       2.134   7.835  18.682  0.00  0.00    +0.000 C 
ATOM      4  O   UNL     1       2.534   8.020  17.532  0.00  0.00    +0.000 OA
ATOM      5  N   UNL     1       1.465   8.828  19.360  0.00  0.00    +0.000 N 
ATOM      6  H   UNL     1       0.740   8.529  19.992  0.00  0.00    +0.000 HD
ENDROOT
BRANCH   5   7
ATOM      7  C   UNL     1       1.236  10.134  18.737  0.00  0.00    +0.000 C 
ATOM      8  C   UNL     1      -0.104  10.163  17.988  0.00  0.00    +0.000 C 
ATOM      9  C   UNL     1      -1.302  10.218  18.935  0.00  0.00    +0.000 C 
ATOM     10  C   UNL     1      -1.200  11.392  19.903  0.00  0.00    +0.000 C 
ATOM     11  C   UNL     1       0.109  11.362  20.685  0.00  0.00    +0.000 C 
ATOM     12  C   UNL     1       1.323  11.273  19.761  0.00  0.00    +0.000 C 
ENDBRANCH   5   7
BRANCH   2  13
ATOM     13  C   UNL     1       3.251   5.563  18.752  0.00  0.00    +0.000 C 
ATOM     14  C   UNL     1       3.688   4.544  19.848  0.00  0.00    +0.000 C 
ATOM     15  C   UNL     1       4.793   3.592  19.404  0.00  0.00    +0.000 C 
ATOM     16  O   UNL     1       5.924   4.304  18.909  0.00  0.00    +0.000 OA
ATOM     17  C   UNL     1       5.599   5.083  17.767  0.00  0.00    +0.000 C 
ATOM     18  C   UNL     1       4.566   6.141  18.133  0.00  0.00    +0.000 C 
BRANCH  13  19
ATOM     19  C   UNL     1       2.431   4.821  17.637  0.00  0.00    +0.000 C 
BRANCH  19  20
ATOM     20  C   UNL     1       1.407   3.808  18.152  0.00  0.00    +0.000 C 
BRANCH  20  21
ATOM     21  O   UNL     1       1.753   2.493  17.723  0.00  0.00    +0.000 OA
ATOM     22  H   UNL     1       1.810   2.498  16.753  0.00  0.00    +0.000 HD
ENDBRANCH  20  21
ENDBRANCH  19  20
ENDBRANCH  13  19
ENDBRANCH   2  13
TORSDOF 5
ENDMDL
MODEL 4
REMARK VINA RESULT:      -6.2      4.436      6.830
REMARK  Name = 
REMARK  6 active torsions:
REMARK  status: ('A' for Active; 'I' for Inactive)
REMARK    1  A    between atoms: C_1  and  N_2
REMARK    2  A    between atoms: N_2  and  C_12
REMARK    3  A    between atoms: N_5  and  C_6
REMARK    4  A    between atoms: C_12  and  C_13
REMARK    5  A    between atoms: C_13  and  C_14
REMARK    6  A    between atoms: C_14  and  O_15
REMARK                            x       y       z     vdW  Elec       q    Type
REMARK                         _______ _______ _______ _____ _____    ______ ____
ROOT
ATOM      1  C   UNL     1       2.963   7.633  17.732  0.00  0.00    +0.000 C 
ATOM      2  N   UNL     1       2.386   7.156  18.994  0.00  0.00    +0.000 N 
ATOM      3  C   UNL     1       1.717   7.999  19.889  0.00  0.00    +0.000 C 
ATOM      4  O   UNL     1       1.289   7.613  20.978  0.00  0.00    +0.000 OA
ATOM      5  N   UNL     1       1.494   9.289  19.466  0.00  0.00    +0.000 N 
ATOM      6  H   UNL     1       2.225   9.714  18.919  0.00  0.00    +0.000 HD
ENDROOT
BRANCH   5   7
ATOM      7  C   UNL     1       0.723  10.222  20.290  0.00  0.00    +0.000 C 
ATOM      8  C   UNL     1       1.291  11.645  20.196  0.00  0.00    +0.000 C 
ATOM      9  C   UNL     1       0.980  12.311  18.855  0.00  0.00    +0.000 C 
ATOM     10  C   UNL     1      -0.516  12.307  18.559  0.00  0.00    +0.000 C 
ATOM     11  C   UNL     1      -1.095  10.897  18.612  0.00  0.00    +0.000 C 
ATOM     12  C   UNL     1      -0.769  10.196  19.930  0.00  0.00    +0.000 C 
ENDBRANCH   5   7
BRANCH   2  13
ATOM     13  C   UNL     1       2.539   5.669  19.337  0.00  0.00    +0.000 C 
ATOM     14  C   UNL     1       2.093   4.810  18.113  0.00  0.00    +0.000 C 
ATOM     15  C   UNL     1       1.910   3.330  18.429  0.00  0.00    +0.000 C 
ATOM     16  O   UNL     1       1.015   3.139  19.521  0.00  0.00    +0.000 OA
ATOM     17  C   UNL     1       1.504   3.733  20.715  0.00  0.00    +0.000 C 
ATOM     18  C   UNL     1       1.629   5.241  20.535  0.00  0.00    +0.000 C 
BRANCH  13  19
ATOM     19  C   UNL     1       4.039   5.356  19.683  0.00  0.00    +0.000 C 
BRANCH  19  20
ATOM     20  C   UNL     1       4.872   4.813  18.520  0.00  0.00    +0.000 C 
BRANCH  20  21
ATOM     21  O   UNL     1       5.559   3.627  18.916  0.00  0.00    +0.000 OA
ATOM     22  H   UNL     1       6.305   3.886  19.482  0.00  0.00    +0.000 HD
ENDBRANCH  20  21
ENDBRANCH  19  20
ENDBRANCH  13  19
ENDBRANCH   2  13
TORSDOF 5
ENDMDL
MODEL 5
REMARK VINA RESULT:      -6.0      3.778      5.286
REMARK  Name = 
REMARK  6 active torsions:
REMARK  status: ('A' for Active; 'I' for Inactive)
REMARK    1  A    between atoms: C_1  and  N_2
REMARK    2  A    between atoms: N_2  and  C_12
REMARK    3  A    between atoms: N_5  and  C_6
REMARK    4  A    between atoms: C_12  and  C_13
REMARK    5  A    between atoms: C_13  and  C_14
REMARK    6  A    between atoms: C_14  and  O_15
REMARK                            x       y       z     vdW  Elec       q    Type
REMARK                         _______ _______ _______ _____ _____    ______ ____
ROOT
ATOM      1  C   UNL     1       2.235   4.423  21.178  0.00  0.00    +0.000 C 
ATOM      2  N   UNL     1       2.814   5.183  20.066  0.00  0.00    +0.000 N 
ATOM      3  C   UNL     1       2.485   6.519  19.807  0.00  0.00    +0.000 C 
ATOM      4  O   UNL     1       2.921   7.139  18.835  0.00  0.00    +0.000 OA
ATOM      5  N   UNL     1       1.689   7.146  20.738  0.00  0.00    +0.000 N 
ATOM      6  H   UNL     1       0.967   6.585  21.161  0.00  0.00    +0.000 HD
ENDROOT
BRANCH   5   7
ATOM      7  C   UNL     1       1.364   8.568  20.607  0.00  0.00    +0.000 C 
ATOM      8  C   UNL     1      -0.154   8.786  20.544  0.00  0.00    +0.000 C 
ATOM      9  C   UNL     1      -0.830   8.586  21.900  0.00  0.00    +0.000 C 
ATOM     10  C   UNL     1      -0.203   9.466  22.976  0.00  0.00    +0.000 C 
ATOM     11  C   UNL     1       1.301   9.238  23.081  0.00  0.00    +0.000 C 
ATOM     12  C   UNL     1       1.997   9.400  21.731  0.00  0.00    +0.000 C 
ENDBRANCH   5   7
BRANCH   2  13
ATOM     13  C   UNL     1       3.814   4.466  19.149  0.00  0.00    +0.000 C 
ATOM     14  C   UNL     1       5.190   5.198  19.218  0.00  0.00    +0.000 C 
ATOM     15  C   UNL     1       6.172   4.772  18.132  0.00  0.00    +0.000 C 
ATOM     16  O   UNL     1       5.602   4.910  16.834  0.00  0.00    +0.000 OA
ATOM     17  C   UNL     1       4.459   4.084  16.669  0.00  0.00    +0.000 C 
ATOM     18  C   UNL     1       3.369   4.497  17.650  0.00  0.00    +0.000 C 
BRANCH  13  19
ATOM     19  C   UNL     1       3.984   2.976  19.613  0.00  0.00    +0.000 C 
BRANCH  19  20
ATOM     20  C   UNL     1       3.256   1.943  18.751  0.00  0.00    +0.000 C 
BRANCH  20  21
ATOM     21  O   UNL     1       4.124   0.853  18.446  0.00  0.00    +0.000 OA
ATOM     22  H   UNL     1       4.471   0.500  19.282  0.00  0.00    +0.000 HD
ENDBRANCH  20  21
ENDBRANCH  19  20
ENDBRANCH  13  19
ENDBRANCH   2  13
TORSDOF 5
ENDMDL
MODEL 6
REMARK VINA RESULT:      -6.0      1.256      2.925
REMARK  Name = 
REMARK  6 active torsions:
REMARK  status: ('A' for Active; 'I' for Inactive)
REMARK    1  A    between atoms: C_1  and  N_2
REMARK    2  A    between atoms: N_2  and  C_12
REMARK    3  A    between atoms: N_5  and  C_6
REMARK    4  A    between atoms: C_12  and  C_13
REMARK    5  A    between atoms: C_13  and  C_14
REMARK    6  A    between atoms: C_14  and  O_15
REMARK                            x       y       z     vdW  Elec       q    Type
REMARK                         _______ _______ _______ _____ _____    ______ ____
ROOT
ATOM      1  C   UNL     1       6.598   5.269  19.625  0.00  0.00    +0.000 C 
ATOM      2  N   UNL     1       5.934   4.772  18.416  0.00  0.00    +0.000 N 
ATOM      3  C   UNL     1       4.934   3.793  18.447  0.00  0.00    +0.000 C 
ATOM      4  O   UNL     1       4.421   3.328  17.427  0.00  0.00    +0.000 OA
ATOM      5  N   UNL     1       4.490   3.409  19.691  0.00  0.00    +0.000 N 
ATOM      6  H   UNL     1       5.185   3.356  20.418  0.00  0.00    +0.000 HD
ENDROOT
BRANCH   5   7
ATOM      7  C   UNL     1       3.384   2.459  19.829  0.00  0.00    +0.000 C 
ATOM      8  C   UNL     1       2.813   2.477  21.254  0.00  0.00    +0.000 C 
ATOM      9  C   UNL     1       1.990   3.733  21.539  0.00  0.00    +0.000 C 
ATOM     10  C   UNL     1       0.880   3.923  20.511  0.00  0.00    +0.000 C 
ATOM     11  C   UNL     1       1.430   3.946  19.089  0.00  0.00    +0.000 C 
ATOM     12  C   UNL     1       2.285   2.715  18.789  0.00  0.00    +0.000 C 
ENDBRANCH   5   7
BRANCH   2  13
ATOM     13  C   UNL     1       6.372   5.353  17.065  0.00  0.00    +0.000 C 
ATOM     14  C   UNL     1       5.146   6.020  16.369  0.00  0.00    +0.000 C 
ATOM     15  C   UNL     1       5.376   6.362  14.901  0.00  0.00    +0.000 C 
ATOM     16  O   UNL     1       5.805   5.221  14.164  0.00  0.00    +0.000 OA
ATOM     17  C   UNL     1       7.042   4.715  14.644  0.00  0.00    +0.000 C 
ATOM     18  C   UNL     1       6.891   4.249  16.087  0.00  0.00    +0.000 C 
BRANCH  13  19
ATOM     19  C   UNL     1       7.499   6.424  17.289  0.00  0.00    +0.000 C 
BRANCH  19  20
ATOM     20  C   UNL     1       7.005   7.864  17.429  0.00  0.00    +0.000 C 
BRANCH  20  21
ATOM     21  O   UNL     1       8.084   8.725  17.788  0.00  0.00    +0.000 OA
ATOM     22  H   UNL     1       8.916   8.254  17.613  0.00  0.00    +0.000 HD
ENDBRANCH  20  21
ENDBRANCH  19  20
ENDBRANCH  13  19
ENDBRANCH   2  13
TORSDOF 5
ENDMDL
MODEL 7
REMARK VINA RESULT:      -6.0      5.663      7.230
REMARK  Name = 
REMARK  6 active torsions:
REMARK  status: ('A' for Active; 'I' for Inactive)
REMARK    1  A    between atoms: C_1  and  N_2
REMARK    2  A    between atoms: N_2  and  C_12
REMARK    3  A    between atoms: N_5  and  C_6
REMARK    4  A    between atoms: C_12  and  C_13
REMARK    5  A    between atoms: C_13  and  C_14
REMARK    6  A    between atoms: C_14  and  O_15
REMARK                            x       y       z     vdW  Elec       q    Type
REMARK                         _______ _______ _______ _____ _____    ______ ____
ROOT
ATOM      1  C   UNL     1       1.116   8.582  21.352  0.00  0.00    +0.000 C 
ATOM      2  N   UNL     1       1.125   9.151  20.001  0.00  0.00    +0.000 N 
ATOM      3  C   UNL     1       1.736   8.515  18.913  0.00  0.00    +0.000 C 
ATOM      4  O   UNL     1       1.800   9.023  17.792  0.00  0.00    +0.000 OA
ATOM      5  N   UNL     1       2.214   7.245  19.136  0.00  0.00    +0.000 N 
ATOM      6  H   UNL     1       2.626   7.073  20.039  0.00  0.00    +0.000 HD
ENDROOT
BRANCH   5   7
ATOM      7  C   UNL     1       2.787   6.460  18.040  0.00  0.00    +0.000 C 
ATOM      8  C   UNL     1       4.305   6.301  18.208  0.00  0.00    +0.000 C 
ATOM      9  C   UNL     1       4.671   5.322  19.323  0.00  0.00    +0.000 C 
ATOM     10  C   UNL     1       4.005   3.965  19.119  0.00  0.00    +0.000 C 
ATOM     11  C   UNL     1       2.491   4.096  18.988  0.00  0.00    +0.000 C 
ATOM     12  C   UNL     1       2.099   5.096  17.901  0.00  0.00    +0.000 C 
ENDBRANCH   5   7
BRANCH   2  13
ATOM     13  C   UNL     1       0.439  10.508  19.788  0.00  0.00    +0.000 C 
ATOM     14  C   UNL     1      -0.525  10.789  20.981  0.00  0.00    +0.000 C 
ATOM     15  C   UNL     1      -1.484  11.950  20.742  0.00  0.00    +0.000 C 
ATOM     16  O   UNL     1      -2.225  11.770  19.539  0.00  0.00    +0.000 OA
ATOM     17  C   UNL     1      -1.379  11.725  18.399  0.00  0.00    +0.000 C 
ATOM     18  C   UNL     1      -0.439  10.529  18.494  0.00  0.00    +0.000 C 
BRANCH  13  19
ATOM     19  C   UNL     1       1.521  11.642  19.703  0.00  0.00    +0.000 C 
BRANCH  19  20
ATOM     20  C   UNL     1       1.545  12.417  18.385  0.00  0.00    +0.000 C 
BRANCH  20  21
ATOM     21  O   UNL     1       2.600  11.943  17.551  0.00  0.00    +0.000 OA
ATOM     22  H   UNL     1       2.420  11.013  17.337  0.00  0.00    +0.000 HD
ENDBRANCH  20  21
ENDBRANCH  19  20
ENDBRANCH  13  19
ENDBRANCH   2  13
TORSDOF 5
ENDMDL
MODEL 8
REMARK VINA RESULT:      -6.0      3.694      5.762
REMARK  Name = 
REMARK  6 active torsions:
REMARK  status: ('A' for Active; 'I' for Inactive)
REMARK    1  A    between atoms: C_1  and  N_2
REMARK    2  A    between atoms: N_2  and  C_12
REMARK    3  A    between atoms: N_5  and  C_6
REMARK    4  A    between atoms: C_12  and  C_13
REMARK    5  A    between atoms: C_13  and  C_14
REMARK    6  A    between atoms: C_14  and  O_15
REMARK                            x       y       z     vdW  Elec       q    Type
REMARK                         _______ _______ _______ _____ _____    ______ ____
ROOT
ATOM      1  C   UNL     1       1.638   5.542  20.657  0.00  0.00    +0.000 C 
ATOM      2  N   UNL     1       2.502   5.950  19.544  0.00  0.00    +0.000 N 
ATOM      3  C   UNL     1       2.473   7.237  18.994  0.00  0.00    +0.000 C 
ATOM      4  O   UNL     1       3.152   7.561  18.017  0.00  0.00    +0.000 OA
ATOM      5  N   UNL     1       1.690   8.163  19.643  0.00  0.00    +0.000 N 
ATOM      6  H   UNL     1       0.822   7.826  20.027  0.00  0.00    +0.000 HD
ENDROOT
BRANCH   5   7
ATOM      7  C   UNL     1       1.665   9.559  19.201  0.00  0.00    +0.000 C 
ATOM      8  C   UNL     1       0.988   9.694  17.829  0.00  0.00    +0.000 C 
ATOM      9  C   UNL     1      -0.528   9.516  17.905  0.00  0.00    +0.000 C 
ATOM     10  C   UNL     1      -1.157  10.472  18.913  0.00  0.00    +0.000 C 
ATOM     11  C   UNL     1      -0.524  10.329  20.293  0.00  0.00    +0.000 C 
ATOM     12  C   UNL     1       0.996  10.470  20.240  0.00  0.00    +0.000 C 
ENDBRANCH   5   7
BRANCH   2  13
ATOM     13  C   UNL     1       3.465   4.906  18.962  0.00  0.00    +0.000 C 
ATOM     14  C   UNL     1       4.933   5.342  19.255  0.00  0.00    +0.000 C 
ATOM     15  C   UNL     1       5.981   4.558  18.472  0.00  0.00    +0.000 C 
ATOM     16  O   UNL     1       5.721   4.600  17.072  0.00  0.00    +0.000 OA
ATOM     17  C   UNL     1       4.470   4.009  16.749  0.00  0.00    +0.000 C 
ATOM     18  C   UNL     1       3.338   4.788  17.408  0.00  0.00    +0.000 C 
BRANCH  13  19
ATOM     19  C   UNL     1       3.189   3.506  19.617  0.00  0.00    +0.000 C 
BRANCH  19  20
ATOM     20  C   UNL     1       2.156   2.644  18.891  0.00  0.00    +0.000 C 
BRANCH  20  21
ATOM     21  O   UNL     1       2.741   1.409  18.483  0.00  0.00    +0.000 OA
ATOM     22  H   UNL     1       2.835   1.424  17.516  0.00  0.00    +0.000 HD
ENDBRANCH  20  21
ENDBRANCH  19  20
ENDBRANCH  13  19
ENDBRANCH   2  13
TORSDOF 5
ENDMDL
MODEL 9
REMARK VINA RESULT:      -6.0      5.586      7.116
REMARK  Name = 
REMARK  6 active torsions:
REMARK  status: ('A' for Active; 'I' for Inactive)
REMARK    1  A    between atoms: C_1  and  N_2
REMARK    2  A    between atoms: N_2  and  C_12
REMARK    3  A    between atoms: N_5  and  C_6
REMARK    4  A    between atoms: C_12  and  C_13
REMARK    5  A    between atoms: C_13  and  C_14
REMARK    6  A    between atoms: C_14  and  O_15
REMARK                            x       y       z     vdW  Elec       q    Type
REMARK                         _______ _______ _______ _____ _____    ______ ____
ROOT
ATOM      1  C   UNL     1       2.012   9.607  17.784  0.00  0.00    +0.000 C 
ATOM      2  N   UNL     1       1.434   9.225  19.077  0.00  0.00    +0.000 N 
ATOM      3  C   UNL     1       1.661   7.977  19.670  0.00  0.00    +0.000 C 
ATOM      4  O   UNL     1       1.125   7.631  20.724  0.00  0.00    +0.000 OA
ATOM      5  N   UNL     1       2.579   7.161  19.049  0.00  0.00    +0.000 N 
ATOM      6  H   UNL     1       2.587   7.182  18.042  0.00  0.00    +0.000 HD
ENDROOT
BRANCH   5   7
ATOM      7  C   UNL     1       2.954   5.875  19.640  0.00  0.00    +0.000 C 
ATOM      8  C   UNL     1       1.945   4.780  19.270  0.00  0.00    +0.000 C 
ATOM      9  C   UNL     1       2.071   4.336  17.813  0.00  0.00    +0.000 C 
ATOM     10  C   UNL     1       3.493   3.894  17.481  0.00  0.00    +0.000 C 
ATOM     11  C   UNL     1       4.510   4.984  17.807  0.00  0.00    +0.000 C 
ATOM     12  C   UNL     1       4.382   5.468  19.250  0.00  0.00    +0.000 C 
ENDBRANCH   5   7
BRANCH   2  13
ATOM     13  C   UNL     1       0.537  10.244  19.792  0.00  0.00    +0.000 C 
ATOM     14  C   UNL     1       1.051  11.684  19.489  0.00  0.00    +0.000 C 
ATOM     15  C   UNL     1       0.438  12.761  20.378  0.00  0.00    +0.000 C 
ATOM     16  O   UNL     1       0.610  12.454  21.758  0.00  0.00    +0.000 OA
ATOM     17  C   UNL     1      -0.037  11.241  22.114  0.00  0.00    +0.000 C 
ATOM     18  C   UNL     1       0.577  10.076  21.347  0.00  0.00    +0.000 C 
BRANCH  13  19
ATOM     19  C   UNL     1      -0.943  10.094  19.289  0.00  0.00    +0.000 C 
BRANCH  19  20
ATOM     20  C   UNL     1      -1.307  10.961  18.083  0.00  0.00    +0.000 C 
BRANCH  20  21
ATOM     21  O   UNL     1      -1.484  10.148  16.924  0.00  0.00    +0.000 OA
ATOM     22  H   UNL     1      -1.350  10.707  16.141  0.00  0.00    +0.000 HD
ENDBRANCH  20  21
ENDBRANCH  19  20
ENDBRANCH  13  19
ENDBRANCH   2  13
TORSDOF 5
ENDMDL
