MODEL 1
REMARK VINA RESULT:      -6.2      0.000      0.000
REMARK  Name = 
REMARK  9 active torsions:
REMARK  status: ('A' for Active; 'I' for Inactive)
REMARK    1  A    between atoms: C_1  and  C_2
REMARK    2  A    between atoms: C_2  and  C_3
REMARK    3  A    between atoms: C_3  and  C_4
REMARK    4  A    between atoms: C_4  and  C_5
REMARK    5  A    between atoms: C_5  and  C_6
REMARK    6  A    between atoms: C_6  and  C_7
REMARK    7  A    between atoms: C_7  and  C_8
REMARK    8  A    between atoms: C_7  and  N_9
REMARK    9  A    between atoms: C_14  and  N_15
REMARK                            x       y       z     vdW  Elec       q    Type
REMARK                         _______ _______ _______ _____ _____    ______ ____
ROOT
ATOM      1  N   UNL     1       5.241   4.845  17.302  0.00  0.00    +0.000 N 
ATOM      2  N   UNL     1       6.209   4.217  18.077  0.00  0.00    +0.000 N 
ATOM      3  C   UNL     1       7.441   4.573  17.568  0.00  0.00    +0.000 A 
ATOM      4  O   UNL     1       8.525   4.089  17.830  0.00  0.00    +0.000 OA
ATOM      5  C   UNL     1       7.199   5.647  16.583  0.00  0.00    +0.000 A 
ATOM      6  C   UNL     1       5.864   5.756  16.467  0.00  0.00    +0.000 A 
ATOM      7  H   UNL     1       6.067   3.299  18.477  0.00  0.00    +0.000 HD
ENDROOT
BRANCH   6   8
ATOM      8  N   UNL     1       5.234   6.645  15.644  0.00  0.00    +0.000 N 
ATOM      9  H   UNL     1       5.861   7.103  14.990  0.00  0.00    +0.000 HD
ATOM     10  H   UNL     1       4.662   7.308  16.155  0.00  0.00    +0.000 HD
ENDBRANCH   6   8
BRANCH   1  11
ATOM     11  C   UNL     1       3.826   4.706  17.630  0.00  0.00    +0.000 C 
ATOM     12  C   UNL     1       3.411   5.771  18.647  0.00  0.00    +0.000 C 
BRANCH  11  13
ATOM     13  C   UNL     1       3.554   3.268  18.111  0.00  0.00    +0.000 C 
BRANCH  13  14
ATOM     14  C   UNL     1       2.183   2.751  17.681  0.00  0.00    +0.000 C 
BRANCH  14  15
ATOM     15  C   UNL     1       1.406   2.172  18.861  0.00  0.00    +0.000 C 
BRANCH  15  16
ATOM     16  C   UNL     1       0.944   3.294  19.788  0.00  0.00    +0.000 C 
BRANCH  16  18
ATOM     17  C   UNL     1       2.635   2.693  21.541  0.00  0.00    +0.000 C 
ATOM     18  C   UNL     1       1.161   2.937  21.255  0.00  0.00    +0.000 C 
ENDBRANCH  16  18
ENDBRANCH  15  16
ENDBRANCH  14  15
ENDBRANCH  13  14
ENDBRANCH  11  13
ENDBRANCH   1  11
TORSDOF 7
ENDMDL
MODEL 2
REMARK VINA RESULT:      -6.0      1.329      1.448
REMARK  Name = 
REMARK  9 active torsions:
REMARK  status: ('A' for Active; 'I' for Inactive)
REMARK    1  A    between atoms: C_1  and  C_2
REMARK    2  A    between atoms: C_2  and  C_3
REMARK    3  A    between atoms: C_3  and  C_4
REMARK    4  A    between atoms: C_4  and  C_5
REMARK    5  A    between atoms: C_5  and  C_6
REMARK    6  A    between atoms: C_6  and  C_7
REMARK    7  A    between atoms: C_7  and  C_8
REMARK    8  A    between atoms: C_7  and  N_9
REMARK    9  A    between atoms: C_14  and  N_15
REMARK                            x       y       z     vdW  Elec       q    Type
REMARK                         _______ _______ _______ _____ _____    ______ ____
ROOT
ATOM      1  N   UNL     1       5.549   5.052  17.930  0.00  0.00    +0.000 N 
ATOM      2  N   UNL     1       5.890   4.927  19.273  0.00  0.00    +0.000 N 
ATOM      3  C   UNL     1       7.162   5.442  19.426  0.00  0.00    +0.000 A 
ATOM      4  O   UNL     1       7.896   5.345  20.390  0.00  0.00    +0.000 OA
ATOM      5  C   UNL     1       7.503   6.114  18.155  0.00  0.00    +0.000 A 
ATOM      6  C   UNL     1       6.501   5.837  17.303  0.00  0.00    +0.000 A 
ATOM      7  H   UNL     1       5.585   4.146  19.836  0.00  0.00    +0.000 HD
ENDROOT
BRANCH   6   8
ATOM      8  N   UNL     1       6.444   6.279  16.011  0.00  0.00    +0.000 N 
ATOM      9  H   UNL     1       6.930   5.673  15.357  0.00  0.00    +0.000 HD
ATOM     10  H   UNL     1       6.730   7.248  15.920  0.00  0.00    +0.000 HD
ENDBRANCH   6   8
BRANCH   1  11
ATOM     11  C   UNL     1       4.230   4.642  17.462  0.00  0.00    +0.000 C 
ATOM     12  C   UNL     1       3.192   5.716  17.798  0.00  0.00    +0.000 C 
BRANCH  11  13
ATOM     13  C   UNL     1       3.887   3.261  18.050  0.00  0.00    +0.000 C 
BRANCH  13  14
ATOM     14  C   UNL     1       2.639   2.645  17.422  0.00  0.00    +0.000 C 
BRANCH  14  15
ATOM     15  C   UNL     1       1.534   2.438  18.455  0.00  0.00    +0.000 C 
BRANCH  15  16
ATOM     16  C   UNL     1       2.135   2.330  19.855  0.00  0.00    +0.000 C 
BRANCH  16  18
ATOM     17  C   UNL     1       1.208   4.536  20.606  0.00  0.00    +0.000 C 
ATOM     18  C   UNL     1       1.276   3.044  20.893  0.00  0.00    +0.000 C 
ENDBRANCH  16  18
ENDBRANCH  15  16
ENDBRANCH  14  15
ENDBRANCH  13  14
ENDBRANCH  11  13
ENDBRANCH   1  11
TORSDOF 7
ENDMDL
MODEL 3
REMARK VINA RESULT:      -5.9      1.403      2.438
REMARK  Name = 
REMARK  9 active torsions:
REMARK  status: ('A' for Active; 'I' for Inactive)
REMARK    1  A    between atoms: C_1  and  C_2
REMARK    2  A    between atoms: C_2  and  C_3
REMARK    3  A    between atoms: C_3  and  C_4
REMARK    4  A    between atoms: C_4  and  C_5
REMARK    5  A    between atoms: C_5  and  C_6
REMARK    6  A    between atoms: C_6  and  C_7
REMARK    7  A    between atoms: C_7  and  C_8
REMARK    8  A    between atoms: C_7  and  N_9
REMARK    9  A    between atoms: C_14  and  N_15
REMARK                            x       y       z     vdW  Elec       q    Type
REMARK                         _______ _______ _______ _____ _____    ______ ____
ROOT
ATOM      1  N   UNL     1       5.173   4.688  17.474  0.00  0.00    +0.000 N 
ATOM      2  N   UNL     1       5.484   4.463  16.138  0.00  0.00    +0.000 N 
ATOM      3  C   UNL     1       6.844   4.653  15.992  0.00  0.00    +0.000 A 
ATOM      4  O   UNL     1       7.478   4.747  14.960  0.00  0.00    +0.000 OA
ATOM      5  C   UNL     1       7.403   4.774  17.355  0.00  0.00    +0.000 A 
ATOM      6  C   UNL     1       6.351   4.793  18.192  0.00  0.00    +0.000 A 
ATOM      7  H   UNL     1       4.852   4.708  15.389  0.00  0.00    +0.000 HD
ENDROOT
BRANCH   6   8
ATOM      8  N   UNL     1       6.452   4.898  19.550  0.00  0.00    +0.000 N 
ATOM      9  H   UNL     1       6.116   5.785  19.912  0.00  0.00    +0.000 HD
ATOM     10  H   UNL     1       7.381   4.673  19.889  0.00  0.00    +0.000 HD
ENDBRANCH   6   8
BRANCH   1  11
ATOM     11  C   UNL     1       3.808   4.508  17.955  0.00  0.00    +0.000 C 
ATOM     12  C   UNL     1       3.108   3.403  17.160  0.00  0.00    +0.000 C 
BRANCH  11  13
ATOM     13  C   UNL     1       3.067   5.857  17.902  0.00  0.00    +0.000 C 
BRANCH  13  14
ATOM     14  C   UNL     1       2.637   6.350  19.282  0.00  0.00    +0.000 C 
BRANCH  14  15
ATOM     15  C   UNL     1       2.635   5.218  20.307  0.00  0.00    +0.000 C 
BRANCH  15  16
ATOM     16  C   UNL     1       1.212   4.708  20.525  0.00  0.00    +0.000 C 
BRANCH  16  18
ATOM     17  C   UNL     1       2.286   2.684  21.545  0.00  0.00    +0.000 C 
ATOM     18  C   UNL     1       1.172   3.187  20.641  0.00  0.00    +0.000 C 
ENDBRANCH  16  18
ENDBRANCH  15  16
ENDBRANCH  14  15
ENDBRANCH  13  14
ENDBRANCH  11  13
ENDBRANCH   1  11
TORSDOF 7
ENDMDL
MODEL 4
REMARK VINA RESULT:      -5.9      1.307      1.906
REMARK  Name = 
REMARK  9 active torsions:
REMARK  status: ('A' for Active; 'I' for Inactive)
REMARK    1  A    between atoms: C_1  and  C_2
REMARK    2  A    between atoms: C_2  and  C_3
REMARK    3  A    between atoms: C_3  and  C_4
REMARK    4  A    between atoms: C_4  and  C_5
REMARK    5  A    between atoms: C_5  and  C_6
REMARK    6  A    between atoms: C_6  and  C_7
REMARK    7  A    between atoms: C_7  and  C_8
REMARK    8  A    between atoms: C_7  and  N_9
REMARK    9  A    between atoms: C_14  and  N_15
REMARK                            x       y       z     vdW  Elec       q    Type
REMARK                         _______ _______ _______ _____ _____    ______ ____
ROOT
ATOM      1  N   UNL     1       5.138   5.207  16.975  0.00  0.00    +0.000 N 
ATOM      2  N   UNL     1       5.542   5.442  15.666  0.00  0.00    +0.000 N 
ATOM      3  C   UNL     1       6.895   5.176  15.596  0.00  0.00    +0.000 A 
ATOM      4  O   UNL     1       7.663   5.443  14.693  0.00  0.00    +0.000 OA
ATOM      5  C   UNL     1       7.266   4.532  16.873  0.00  0.00    +0.000 A 
ATOM      6  C   UNL     1       6.173   4.588  17.654  0.00  0.00    +0.000 A 
ATOM      7  H   UNL     1       5.136   6.175  15.100  0.00  0.00    +0.000 HD
ENDROOT
BRANCH   6   8
ATOM      8  N   UNL     1       6.110   4.095  18.926  0.00  0.00    +0.000 N 
ATOM      9  H   UNL     1       5.164   3.890  19.232  0.00  0.00    +0.000 HD
ATOM     10  H   UNL     1       6.611   4.674  19.591  0.00  0.00    +0.000 HD
ENDBRANCH   6   8
BRANCH   1  11
ATOM     11  C   UNL     1       3.736   5.349  17.352  0.00  0.00    +0.000 C 
ATOM     12  C   UNL     1       3.612   6.203  18.616  0.00  0.00    +0.000 C 
BRANCH  11  13
ATOM     13  C   UNL     1       3.104   3.952  17.499  0.00  0.00    +0.000 C 
BRANCH  13  14
ATOM     14  C   UNL     1       1.608   4.009  17.800  0.00  0.00    +0.000 C 
BRANCH  14  15
ATOM     15  C   UNL     1       1.134   2.755  18.531  0.00  0.00    +0.000 C 
BRANCH  15  16
ATOM     16  C   UNL     1       0.650   3.116  19.935  0.00  0.00    +0.000 C 
BRANCH  16  18
ATOM     17  C   UNL     1       2.339   4.229  21.418  0.00  0.00    +0.000 C 
ATOM     18  C   UNL     1       1.741   2.901  20.978  0.00  0.00    +0.000 C 
ENDBRANCH  16  18
ENDBRANCH  15  16
ENDBRANCH  14  15
ENDBRANCH  13  14
ENDBRANCH  11  13
ENDBRANCH   1  11
TORSDOF 7
ENDMDL
MODEL 5
REMARK VINA RESULT:      -5.9      2.300      3.664
REMARK  Name = 
REMARK  9 active torsions:
REMARK  status: ('A' for Active; 'I' for Inactive)
REMARK    1  A    between atoms: C_1  and  C_2
REMARK    2  A    between atoms: C_2  and  C_3
REMARK    3  A    between atoms: C_3  and  C_4
REMARK    4  A    between atoms: C_4  and  C_5
REMARK    5  A    between atoms: C_5  and  C_6
REMARK    6  A    between atoms: C_6  and  C_7
REMARK    7  A    between atoms: C_7  and  C_8
REMARK    8  A    between atoms: C_7  and  N_9
REMARK    9  A    between atoms: C_14  and  N_15
REMARK                            x       y       z     vdW  Elec       q    Type
REMARK                         _______ _______ _______ _____ _____    ______ ____
ROOT
ATOM      1  N   UNL     1       4.080   3.339  18.312  0.00  0.00    +0.000 N 
ATOM      2  N   UNL     1       5.066   3.192  19.281  0.00  0.00    +0.000 N 
ATOM      3  C   UNL     1       4.769   2.053  20.002  0.00  0.00    +0.000 A 
ATOM      4  O   UNL     1       5.263   1.684  21.050  0.00  0.00    +0.000 OA
ATOM      5  C   UNL     1       3.679   1.366  19.280  0.00  0.00    +0.000 A 
ATOM      6  C   UNL     1       3.309   2.190  18.285  0.00  0.00    +0.000 A 
ATOM      7  H   UNL     1       5.500   3.984  19.733  0.00  0.00    +0.000 HD
ENDROOT
BRANCH   6   8
ATOM      8  N   UNL     1       2.319   1.914  17.385  0.00  0.00    +0.000 N 
ATOM      9  H   UNL     1       1.390   2.140  17.727  0.00  0.00    +0.000 HD
ATOM     10  H   UNL     1       2.375   0.967  17.025  0.00  0.00    +0.000 HD
ENDBRANCH   6   8
BRANCH   1  11
ATOM     11  C   UNL     1       4.149   4.431  17.347  0.00  0.00    +0.000 C 
ATOM     12  C   UNL     1       5.442   4.337  16.533  0.00  0.00    +0.000 C 
BRANCH  11  13
ATOM     13  C   UNL     1       3.993   5.774  18.085  0.00  0.00    +0.000 C 
BRANCH  13  14
ATOM     14  C   UNL     1       2.540   6.093  18.431  0.00  0.00    +0.000 C 
BRANCH  14  15
ATOM     15  C   UNL     1       2.292   6.024  19.936  0.00  0.00    +0.000 C 
BRANCH  15  16
ATOM     16  C   UNL     1       1.479   4.777  20.279  0.00  0.00    +0.000 C 
BRANCH  16  18
ATOM     17  C   UNL     1       1.401   2.666  21.631  0.00  0.00    +0.000 C 
ATOM     18  C   UNL     1       2.094   4.006  21.442  0.00  0.00    +0.000 C 
ENDBRANCH  16  18
ENDBRANCH  15  16
ENDBRANCH  14  15
ENDBRANCH  13  14
ENDBRANCH  11  13
ENDBRANCH   1  11
TORSDOF 7
ENDMDL
MODEL 6
REMARK VINA RESULT:      -5.8      1.735      2.439
REMARK  Name = 
REMARK  9 active torsions:
REMARK  status: ('A' for Active; 'I' for Inactive)
REMARK    1  A    between atoms: C_1  and  C_2
REMARK    2  A    between atoms: C_2  and  C_3
REMARK    3  A    between atoms: C_3  and  C_4
REMARK    4  A    between atoms: C_4  and  C_5
REMARK    5  A    between atoms: C_5  and  C_6
REMARK    6  A    between atoms: C_6  and  C_7
REMARK    7  A    between atoms: C_7  and  C_8
REMARK    8  A    between atoms: C_7  and  N_9
REMARK    9  A    between atoms: C_14  and  N_15
REMARK                            x       y       z     vdW  Elec       q    Type
REMARK                         _______ _______ _______ _____ _____    ______ ____
ROOT
ATOM      1  N   UNL     1       5.062   4.012  17.621  0.00  0.00    +0.000 N 
ATOM      2  N   UNL     1       5.298   3.652  16.299  0.00  0.00    +0.000 N 
ATOM      3  C   UNL     1       6.515   4.193  15.935  0.00  0.00    +0.000 A 
ATOM      4  O   UNL     1       6.990   4.279  14.819  0.00  0.00    +0.000 OA
ATOM      5  C   UNL     1       7.138   4.708  17.172  0.00  0.00    +0.000 A 
ATOM      6  C   UNL     1       6.215   4.575  18.140  0.00  0.00    +0.000 A 
ATOM      7  H   UNL     1       4.554   3.569  15.622  0.00  0.00    +0.000 HD
ENDROOT
BRANCH   6   8
ATOM      8  N   UNL     1       6.407   4.943  19.442  0.00  0.00    +0.000 N 
ATOM      9  H   UNL     1       7.366   4.830  19.754  0.00  0.00    +0.000 HD
ATOM     10  H   UNL     1       5.744   4.503  20.071  0.00  0.00    +0.000 HD
ENDBRANCH   6   8
BRANCH   1  11
ATOM     11  C   UNL     1       3.869   3.539  18.314  0.00  0.00    +0.000 C 
ATOM     12  C   UNL     1       3.939   2.023  18.512  0.00  0.00    +0.000 C 
BRANCH  11  13
ATOM     13  C   UNL     1       2.617   3.993  17.541  0.00  0.00    +0.000 C 
BRANCH  13  14
ATOM     14  C   UNL     1       1.990   5.259  18.122  0.00  0.00    +0.000 C 
BRANCH  14  15
ATOM     15  C   UNL     1       2.490   5.533  19.539  0.00  0.00    +0.000 C 
BRANCH  15  16
ATOM     16  C   UNL     1       1.507   4.969  20.563  0.00  0.00    +0.000 C 
BRANCH  16  18
ATOM     17  C   UNL     1       1.382   2.635  21.474  0.00  0.00    +0.000 C 
ATOM     18  C   UNL     1       2.170   3.936  21.468  0.00  0.00    +0.000 C 
ENDBRANCH  16  18
ENDBRANCH  15  16
ENDBRANCH  14  15
ENDBRANCH  13  14
ENDBRANCH  11  13
ENDBRANCH   1  11
TORSDOF 7
ENDMDL
MODEL 7
REMARK VINA RESULT:      -5.8      1.767      1.827
REMARK  Name = 
REMARK  9 active torsions:
REMARK  status: ('A' for Active; 'I' for Inactive)
REMARK    1  A    between atoms: C_1  and  C_2
REMARK    2  A    between atoms: C_2  and  C_3
REMARK    3  A    between atoms: C_3  and  C_4
REMARK    4  A    between atoms: C_4  and  C_5
REMARK    5  A    between atoms: C_5  and  C_6
REMARK    6  A    between atoms: C_6  and  C_7
REMARK    7  A    between atoms: C_7  and  C_8
REMARK    8  A    between atoms: C_7  and  N_9
REMARK    9  A    between atoms: C_14  and  N_15
REMARK                            x       y       z     vdW  Elec       q    Type
REMARK                         _______ _______ _______ _____ _____    ______ ____
ROOT
ATOM      1  N   UNL     1       4.757   4.339  16.854  0.00  0.00    +0.000 N 
ATOM      2  N   UNL     1       5.525   3.477  16.080  0.00  0.00    +0.000 N 
ATOM      3  C   UNL     1       6.010   4.204  15.011  0.00  0.00    +0.000 A 
ATOM      4  O   UNL     1       6.553   3.784  14.008  0.00  0.00    +0.000 OA
ATOM      5  C   UNL     1       5.701   5.622  15.287  0.00  0.00    +0.000 A 
ATOM      6  C   UNL     1       4.945   5.632  16.399  0.00  0.00    +0.000 A 
ATOM      7  H   UNL     1       5.294   2.500  15.969  0.00  0.00    +0.000 HD
ENDROOT
BRANCH   6   8
ATOM      8  N   UNL     1       4.450   6.763  16.983  0.00  0.00    +0.000 N 
ATOM      9  H   UNL     1       3.460   6.906  16.808  0.00  0.00    +0.000 HD
ATOM     10  H   UNL     1       5.000   7.586  16.762  0.00  0.00    +0.000 HD
ENDBRANCH   6   8
BRANCH   1  11
ATOM     11  C   UNL     1       4.149   3.873  18.096  0.00  0.00    +0.000 C 
ATOM     12  C   UNL     1       5.105   4.098  19.270  0.00  0.00    +0.000 C 
BRANCH  11  13
ATOM     13  C   UNL     1       3.723   2.402  17.934  0.00  0.00    +0.000 C 
BRANCH  13  14
ATOM     14  C   UNL     1       2.209   2.233  17.834  0.00  0.00    +0.000 C 
BRANCH  14  15
ATOM     15  C   UNL     1       1.572   2.048  19.209  0.00  0.00    +0.000 C 
BRANCH  15  16
ATOM     16  C   UNL     1       0.817   3.313  19.613  0.00  0.00    +0.000 C 
BRANCH  16  18
ATOM     17  C   UNL     1       2.270   2.946  21.624  0.00  0.00    +0.000 C 
ATOM     18  C   UNL     1       1.412   3.947  20.866  0.00  0.00    +0.000 C 
ENDBRANCH  16  18
ENDBRANCH  15  16
ENDBRANCH  14  15
ENDBRANCH  13  14
ENDBRANCH  11  13
ENDBRANCH   1  11
TORSDOF 7
ENDMDL
MODEL 8
REMARK VINA RESULT:      -5.8      1.264      1.555
REMARK  Name = 
REMARK  9 active torsions:
REMARK  status: ('A' for Active; 'I' for Inactive)
REMARK    1  A    between atoms: C_1  and  C_2
REMARK    2  A    between atoms: C_2  and  C_3
REMARK    3  A    between atoms: C_3  and  C_4
REMARK    4  A    between atoms: C_4  and  C_5
REMARK    5  A    between atoms: C_5  and  C_6
REMARK    6  A    between atoms: C_6  and  C_7
REMARK    7  A    between atoms: C_7  and  C_8
REMARK    8  A    between atoms: C_7  and  N_9
REMARK    9  A    between atoms: C_14  and  N_15
REMARK                            x       y       z     vdW  Elec       q    Type
REMARK                         _______ _______ _______ _____ _____    ______ ____
ROOT
ATOM      1  N   UNL     1       4.880   4.565  17.503  0.00  0.00    +0.000 N 
ATOM      2  N   UNL     1       6.084   3.957  17.168  0.00  0.00    +0.000 N 
ATOM      3  C   UNL     1       6.802   4.855  16.404  0.00  0.00    +0.000 A 
ATOM      4  O   UNL     1       7.808   4.645  15.754  0.00  0.00    +0.000 OA
ATOM      5  C   UNL     1       6.086   6.144  16.480  0.00  0.00    +0.000 A 
ATOM      6  C   UNL     1       4.943   5.900  17.145  0.00  0.00    +0.000 A 
ATOM      7  H   UNL     1       6.156   2.964  16.990  0.00  0.00    +0.000 HD
ENDROOT
BRANCH   6   8
ATOM      8  N   UNL     1       3.997   6.846  17.422  0.00  0.00    +0.000 N 
ATOM      9  H   UNL     1       3.280   6.920  16.707  0.00  0.00    +0.000 HD
ATOM     10  H   UNL     1       4.405   7.746  17.651  0.00  0.00    +0.000 HD
ENDBRANCH   6   8
BRANCH   1  11
ATOM     11  C   UNL     1       3.919   3.880  18.361  0.00  0.00    +0.000 C 
ATOM     12  C   UNL     1       4.616   2.774  19.157  0.00  0.00    +0.000 C 
BRANCH  11  13
ATOM     13  C   UNL     1       2.747   3.365  17.505  0.00  0.00    +0.000 C 
BRANCH  13  14
ATOM     14  C   UNL     1       1.402   3.945  17.934  0.00  0.00    +0.000 C 
BRANCH  14  15
ATOM     15  C   UNL     1       0.914   3.325  19.241  0.00  0.00    +0.000 C 
BRANCH  15  16
ATOM     16  C   UNL     1       0.980   4.353  20.369  0.00  0.00    +0.000 C 
BRANCH  16  18
ATOM     17  C   UNL     1       1.893   2.455  21.729  0.00  0.00    +0.000 C 
ATOM     18  C   UNL     1       1.981   3.946  21.444  0.00  0.00    +0.000 C 
ENDBRANCH  16  18
ENDBRANCH  15  16
ENDBRANCH  14  15
ENDBRANCH  13  14
ENDBRANCH  11  13
ENDBRANCH   1  11
TORSDOF 7
ENDMDL
MODEL 9
REMARK VINA RESULT:      -5.7      1.448      1.692
REMARK  Name = 
REMARK  9 active torsions:
REMARK  status: ('A' for Active; 'I' for Inactive)
REMARK    1  A    between atoms: C_1  and  C_2
REMARK    2  A    between atoms: C_2  and  C_3
REMARK    3  A    between atoms: C_3  and  C_4
REMARK    4  A    between atoms: C_4  and  C_5
REMARK    5  A    between atoms: C_5  and  C_6
REMARK    6  A    between atoms: C_6  and  C_7
REMARK    7  A    between atoms: C_7  and  C_8
REMARK    8  A    between atoms: C_7  and  N_9
REMARK    9  A    between atoms: C_14  and  N_15
REMARK                            x       y       z     vdW  Elec       q    Type
REMARK                         _______ _______ _______ _____ _____    ______ ____
ROOT
ATOM      1  N   UNL     1       5.344   4.978  17.714  0.00  0.00    +0.000 N 
ATOM      2  N   UNL     1       5.655   5.489  18.970  0.00  0.00    +0.000 N 
ATOM      3  C   UNL     1       7.006   5.293  19.173  0.00  0.00    +0.000 A 
ATOM      4  O   UNL     1       7.630   5.415  20.209  0.00  0.00    +0.000 OA
ATOM      5  C   UNL     1       7.569   4.849  17.882  0.00  0.00    +0.000 A 
ATOM      6  C   UNL     1       6.523   4.674  17.056  0.00  0.00    +0.000 A 
ATOM      7  H   UNL     1       5.010   5.441  19.746  0.00  0.00    +0.000 HD
ENDROOT
BRANCH   6   8
ATOM      8  N   UNL     1       6.628   4.262  15.758  0.00  0.00    +0.000 N 
ATOM      9  H   UNL     1       7.444   4.633  15.282  0.00  0.00    +0.000 HD
ATOM     10  H   UNL     1       5.775   4.417  15.232  0.00  0.00    +0.000 HD
ENDBRANCH   6   8
BRANCH   1  11
ATOM     11  C   UNL     1       3.989   5.089  17.186  0.00  0.00    +0.000 C 
ATOM     12  C   UNL     1       3.174   6.077  18.023  0.00  0.00    +0.000 C 
BRANCH  11  13
ATOM     13  C   UNL     1       3.355   3.688  17.113  0.00  0.00    +0.000 C 
BRANCH  13  14
ATOM     14  C   UNL     1       3.910   2.731  18.166  0.00  0.00    +0.000 C 
BRANCH  14  15
ATOM     15  C   UNL     1       2.792   2.053  18.954  0.00  0.00    +0.000 C 
BRANCH  15  16
ATOM     16  C   UNL     1       1.458   2.744  18.676  0.00  0.00    +0.000 C 
BRANCH  16  18
ATOM     17  C   UNL     1       1.263   4.348  20.595  0.00  0.00    +0.000 C 
ATOM     18  C   UNL     1       0.717   3.075  19.967  0.00  0.00    +0.000 C 
ENDBRANCH  16  18
ENDBRANCH  15  16
ENDBRANCH  14  15
ENDBRANCH  13  14
ENDBRANCH  11  13
ENDBRANCH   1  11
TORSDOF 7
ENDMDL
