MODEL 1
REMARK VINA RESULT:      -8.9      0.000      0.000
REMARK  Name = 
REMARK  10 active torsions:
REMARK  status: ('A' for Active; 'I' for Inactive)
REMARK    1  A    between atoms: C_1  and  C_2
REMARK    2  A    between atoms: C_5  and  N_6
REMARK    3  A    between atoms: C_9  and  C_10
REMARK    4  A    between atoms: C_14  and  C_15
REMARK    5  A    between atoms: C_15  and  O_16
REMARK    6  A    between atoms: O_16  and  C_17
REMARK    7  A    between atoms: C_21  and  C_22
REMARK    8  A    between atoms: C_22  and  C_23
REMARK    9  A    between atoms: C_23  and  C_24
REMARK   10  A    between atoms: C_24  and  O_26
REMARK                            x       y       z     vdW  Elec       q    Type
REMARK                         _______ _______ _______ _____ _____    ______ ____
ROOT
ATOM      1  N   UNL     1       4.201   3.623  18.238  0.00  0.00    +0.000 N 
ATOM      2  C   UNL     1       4.334   2.435  18.933  0.00  0.00    +0.000 A 
ATOM      3  C   UNL     1       3.453   2.405  19.982  0.00  0.00    +0.000 A 
ATOM      4  C   UNL     1       2.693   3.601  19.941  0.00  0.00    +0.000 A 
ATOM      5  C   UNL     1       3.160   4.345  18.845  0.00  0.00    +0.000 A 
ENDROOT
BRANCH   1  10
ATOM      6  C   UNL     1       7.554   5.222  13.835  0.00  0.00    +0.000 C 
ATOM      7  C   UNL     1       6.677   4.802  14.975  0.00  0.00    +0.000 A 
ATOM      8  C   UNL     1       5.418   4.246  14.746  0.00  0.00    +0.000 A 
ATOM      9  C   UNL     1       4.604   3.853  15.815  0.00  0.00    +0.000 A 
ATOM     10  C   UNL     1       5.039   3.989  17.137  0.00  0.00    +0.000 A 
ATOM     11  C   UNL     1       6.302   4.558  17.357  0.00  0.00    +0.000 A 
ATOM     12  F   UNL     1       6.811   4.696  18.590  0.00  0.00    +0.000 F 
ATOM     13  C   UNL     1       7.111   4.961  16.293  0.00  0.00    +0.000 A 
ENDBRANCH   1  10
BRANCH   4  14
ATOM     14  C   UNL     1       1.590   3.936  20.909  0.00  0.00    +0.000 C 
ATOM     15  F   UNL     1       1.927   4.988  21.705  0.00  0.00    +0.000 F 
ATOM     16  F   UNL     1       0.446   4.294  20.271  0.00  0.00    +0.000 F 
ATOM     17  F   UNL     1       1.308   2.909  21.749  0.00  0.00    +0.000 F 
ENDBRANCH   4  14
BRANCH   5  18
ATOM     18  C   UNL     1       2.619   5.647  18.301  0.00  0.00    +0.000 C 
BRANCH  18  19
ATOM     19  O   UNL     1       2.949   6.675  19.227  0.00  0.00    +0.000 OA
BRANCH  19  20
ATOM     20  C   UNL     1       2.200   7.815  19.239  0.00  0.00    +0.000 A 
ATOM     21  C   UNL     1       1.410   8.287  20.284  0.00  0.00    +0.000 A 
ATOM     22  F   UNL     1       1.302   7.608  21.436  0.00  0.00    +0.000 F 
ATOM     23  C   UNL     1       0.692   9.483  20.168  0.00  0.00    +0.000 A 
ATOM     24  C   UNL     1       0.748  10.240  18.989  0.00  0.00    +0.000 A 
ATOM     25  C   UNL     1       1.550   9.774  17.941  0.00  0.00    +0.000 A 
ATOM     26  C   UNL     1       2.259   8.581  18.073  0.00  0.00    +0.000 A 
ATOM     27  F   UNL     1       2.998   8.168  17.032  0.00  0.00    +0.000 F 
BRANCH  24  28
ATOM     28  C   UNL     1      -0.089  11.480  18.798  0.00  0.00    +0.000 C 
BRANCH  28  29
ATOM     29  C   UNL     1      -1.593  11.221  18.734  0.00  0.00    +0.000 C 
BRANCH  29  30
ATOM     30  C   UNL     1      -1.989  10.746  17.354  0.00  0.00    +0.000 C 
ATOM     31  O   UNL     1      -2.245   9.595  17.055  0.00  0.00    +0.000 OA
BRANCH  30  32
ATOM     32  O   UNL     1      -2.040  11.754  16.457  0.00  0.00    +0.000 OA
ATOM     33  H   UNL     1      -2.285  12.620  16.836  0.00  0.00    +0.000 HD
ENDBRANCH  30  32
ENDBRANCH  29  30
ENDBRANCH  28  29
ENDBRANCH  24  28
ENDBRANCH  19  20
ENDBRANCH  18  19
ENDBRANCH   5  18
TORSDOF 9
ENDMDL
MODEL 2
REMARK VINA RESULT:      -8.7      0.613      1.729
REMARK  Name = 
REMARK  10 active torsions:
REMARK  status: ('A' for Active; 'I' for Inactive)
REMARK    1  A    between atoms: C_1  and  C_2
REMARK    2  A    between atoms: C_5  and  N_6
REMARK    3  A    between atoms: C_9  and  C_10
REMARK    4  A    between atoms: C_14  and  C_15
REMARK    5  A    between atoms: C_15  and  O_16
REMARK    6  A    between atoms: O_16  and  C_17
REMARK    7  A    between atoms: C_21  and  C_22
REMARK    8  A    between atoms: C_22  and  C_23
REMARK    9  A    between atoms: C_23  and  C_24
REMARK   10  A    between atoms: C_24  and  O_26
REMARK                            x       y       z     vdW  Elec       q    Type
REMARK                         _______ _______ _______ _____ _____    ______ ____
ROOT
ATOM      1  N   UNL     1       4.351   3.617  18.419  0.00  0.00    +0.000 N 
ATOM      2  C   UNL     1       4.579   2.469  19.156  0.00  0.00    +0.000 A 
ATOM      3  C   UNL     1       3.716   2.415  20.218  0.00  0.00    +0.000 A 
ATOM      4  C   UNL     1       2.869   3.549  20.144  0.00  0.00    +0.000 A 
ATOM      5  C   UNL     1       3.266   4.283  19.014  0.00  0.00    +0.000 A 
ENDROOT
BRANCH   1  10
ATOM      6  C   UNL     1       7.526   5.286  13.912  0.00  0.00    +0.000 C 
ATOM      7  C   UNL     1       6.695   4.847  15.079  0.00  0.00    +0.000 A 
ATOM      8  C   UNL     1       5.459   4.229  14.889  0.00  0.00    +0.000 A 
ATOM      9  C   UNL     1       4.688   3.819  15.984  0.00  0.00    +0.000 A 
ATOM     10  C   UNL     1       5.146   4.000  17.293  0.00  0.00    +0.000 A 
ATOM     11  C   UNL     1       6.386   4.631  17.473  0.00  0.00    +0.000 A 
ATOM     12  F   UNL     1       6.915   4.816  18.691  0.00  0.00    +0.000 F 
ATOM     13  C   UNL     1       7.151   5.052  16.383  0.00  0.00    +0.000 A 
ENDBRANCH   1  10
BRANCH   4  14
ATOM     14  C   UNL     1       1.757   3.840  21.115  0.00  0.00    +0.000 C 
ATOM     15  F   UNL     1       0.568   4.015  20.474  0.00  0.00    +0.000 F 
ATOM     16  F   UNL     1       1.568   2.820  21.991  0.00  0.00    +0.000 F 
ATOM     17  F   UNL     1       1.969   4.978  21.822  0.00  0.00    +0.000 F 
ENDBRANCH   4  14
BRANCH   5  18
ATOM     18  C   UNL     1       2.625   5.520  18.430  0.00  0.00    +0.000 C 
BRANCH  18  19
ATOM     19  O   UNL     1       2.913   6.610  19.297  0.00  0.00    +0.000 OA
BRANCH  19  20
ATOM     20  C   UNL     1       2.253   7.790  19.113  0.00  0.00    +0.000 A 
ATOM     21  C   UNL     1       2.275   8.593  17.976  0.00  0.00    +0.000 A 
ATOM     22  F   UNL     1       3.004   8.258  16.901  0.00  0.00    +0.000 F 
ATOM     23  C   UNL     1       1.542   9.785  17.915  0.00  0.00    +0.000 A 
ATOM     24  C   UNL     1       0.766  10.203  19.005  0.00  0.00    +0.000 A 
ATOM     25  C   UNL     1       0.734   9.392  20.145  0.00  0.00    +0.000 A 
ATOM     26  C   UNL     1       1.469   8.209  20.189  0.00  0.00    +0.000 A 
ATOM     27  F   UNL     1       1.420   7.477  21.313  0.00  0.00    +0.000 F 
BRANCH  24  28
ATOM     28  C   UNL     1       0.043  11.528  19.006  0.00  0.00    +0.000 C 
BRANCH  28  29
ATOM     29  C   UNL     1      -1.423  11.444  19.426  0.00  0.00    +0.000 C 
BRANCH  29  30
ATOM     30  C   UNL     1      -2.326  11.803  18.267  0.00  0.00    +0.000 C 
ATOM     31  O   UNL     1      -3.541  11.740  18.279  0.00  0.00    +0.000 OA
BRANCH  30  32
ATOM     32  O   UNL     1      -1.634  12.222  17.185  0.00  0.00    +0.000 OA
ATOM     33  H   UNL     1      -1.622  11.587  16.444  0.00  0.00    +0.000 HD
ENDBRANCH  30  32
ENDBRANCH  29  30
ENDBRANCH  28  29
ENDBRANCH  24  28
ENDBRANCH  19  20
ENDBRANCH  18  19
ENDBRANCH   5  18
TORSDOF 9
ENDMDL
MODEL 3
REMARK VINA RESULT:      -8.6      0.963      1.460
REMARK  Name = 
REMARK  10 active torsions:
REMARK  status: ('A' for Active; 'I' for Inactive)
REMARK    1  A    between atoms: C_1  and  C_2
REMARK    2  A    between atoms: C_5  and  N_6
REMARK    3  A    between atoms: C_9  and  C_10
REMARK    4  A    between atoms: C_14  and  C_15
REMARK    5  A    between atoms: C_15  and  O_16
REMARK    6  A    between atoms: O_16  and  C_17
REMARK    7  A    between atoms: C_21  and  C_22
REMARK    8  A    between atoms: C_22  and  C_23
REMARK    9  A    between atoms: C_23  and  C_24
REMARK   10  A    between atoms: C_24  and  O_26
REMARK                            x       y       z     vdW  Elec       q    Type
REMARK                         _______ _______ _______ _____ _____    ______ ____
ROOT
ATOM      1  N   UNL     1       4.390   3.715  18.333  0.00  0.00    +0.000 N 
ATOM      2  C   UNL     1       4.583   2.564  19.075  0.00  0.00    +0.000 A 
ATOM      3  C   UNL     1       3.722   2.543  20.140  0.00  0.00    +0.000 A 
ATOM      4  C   UNL     1       2.912   3.704  20.063  0.00  0.00    +0.000 A 
ATOM      5  C   UNL     1       3.329   4.419  18.928  0.00  0.00    +0.000 A 
ENDROOT
BRANCH   1  10
ATOM      6  C   UNL     1       7.602   5.259  13.807  0.00  0.00    +0.000 C 
ATOM      7  C   UNL     1       6.761   4.853  14.979  0.00  0.00    +0.000 A 
ATOM      8  C   UNL     1       5.507   4.269  14.797  0.00  0.00    +0.000 A 
ATOM      9  C   UNL     1       4.728   3.889  15.896  0.00  0.00    +0.000 A 
ATOM     10  C   UNL     1       5.194   4.067  17.202  0.00  0.00    +0.000 A 
ATOM     11  C   UNL     1       6.451   4.663  17.376  0.00  0.00    +0.000 A 
ATOM     12  F   UNL     1       6.988   4.842  18.591  0.00  0.00    +0.000 F 
ATOM     13  C   UNL     1       7.226   5.053  16.281  0.00  0.00    +0.000 A 
ENDBRANCH   1  10
BRANCH   4  14
ATOM     14  C   UNL     1       1.813   4.035  21.036  0.00  0.00    +0.000 C 
ATOM     15  F   UNL     1       0.758   4.628  20.413  0.00  0.00    +0.000 F 
ATOM     16  F   UNL     1       1.320   2.925  21.642  0.00  0.00    +0.000 F 
ATOM     17  F   UNL     1       2.215   4.905  21.997  0.00  0.00    +0.000 F 
ENDBRANCH   4  14
BRANCH   5  18
ATOM     18  C   UNL     1       2.726   5.672  18.340  0.00  0.00    +0.000 C 
BRANCH  18  19
ATOM     19  O   UNL     1       3.024   6.751  19.218  0.00  0.00    +0.000 OA
BRANCH  19  20
ATOM     20  C   UNL     1       2.135   7.782  19.319  0.00  0.00    +0.000 A 
ATOM     21  C   UNL     1       1.380   8.130  20.435  0.00  0.00    +0.000 A 
ATOM     22  F   UNL     1       1.458   7.427  21.574  0.00  0.00    +0.000 F 
ATOM     23  C   UNL     1       0.505   9.223  20.407  0.00  0.00    +0.000 A 
ATOM     24  C   UNL     1       0.364   9.996  19.247  0.00  0.00    +0.000 A 
ATOM     25  C   UNL     1       1.129   9.656  18.127  0.00  0.00    +0.000 A 
ATOM     26  C   UNL     1       1.996   8.565  18.171  0.00  0.00    +0.000 A 
ATOM     27  F   UNL     1       2.694   8.268  17.064  0.00  0.00    +0.000 F 
BRANCH  24  28
ATOM     28  C   UNL     1      -0.641  11.118  19.155  0.00  0.00    +0.000 C 
BRANCH  28  29
ATOM     29  C   UNL     1      -0.111  12.477  19.608  0.00  0.00    +0.000 C 
BRANCH  29  30
ATOM     30  C   UNL     1      -0.307  13.510  18.521  0.00  0.00    +0.000 C 
ATOM     31  O   UNL     1       0.082  14.662  18.570  0.00  0.00    +0.000 OA
BRANCH  30  32
ATOM     32  O   UNL     1      -0.967  13.015  17.452  0.00  0.00    +0.000 OA
ATOM     33  H   UNL     1      -1.503  12.221  17.641  0.00  0.00    +0.000 HD
ENDBRANCH  30  32
ENDBRANCH  29  30
ENDBRANCH  28  29
ENDBRANCH  24  28
ENDBRANCH  19  20
ENDBRANCH  18  19
ENDBRANCH   5  18
TORSDOF 9
ENDMDL
MODEL 4
REMARK VINA RESULT:      -8.5      0.933      1.020
REMARK  Name = 
REMARK  10 active torsions:
REMARK  status: ('A' for Active; 'I' for Inactive)
REMARK    1  A    between atoms: C_1  and  C_2
REMARK    2  A    between atoms: C_5  and  N_6
REMARK    3  A    between atoms: C_9  and  C_10
REMARK    4  A    between atoms: C_14  and  C_15
REMARK    5  A    between atoms: C_15  and  O_16
REMARK    6  A    between atoms: O_16  and  C_17
REMARK    7  A    between atoms: C_21  and  C_22
REMARK    8  A    between atoms: C_22  and  C_23
REMARK    9  A    between atoms: C_23  and  C_24
REMARK   10  A    between atoms: C_24  and  O_26
REMARK                            x       y       z     vdW  Elec       q    Type
REMARK                         _______ _______ _______ _____ _____    ______ ____
ROOT
ATOM      1  N   UNL     1       4.386   3.469  18.621  0.00  0.00    +0.000 N 
ATOM      2  C   UNL     1       4.715   2.366  19.387  0.00  0.00    +0.000 A 
ATOM      3  C   UNL     1       3.864   2.268  20.456  0.00  0.00    +0.000 A 
ATOM      4  C   UNL     1       2.924   3.324  20.358  0.00  0.00    +0.000 A 
ATOM      5  C   UNL     1       3.252   4.057  19.205  0.00  0.00    +0.000 A 
ENDROOT
BRANCH   1  10
ATOM      6  C   UNL     1       7.384   5.277  14.046  0.00  0.00    +0.000 C 
ATOM      7  C   UNL     1       6.600   4.802  15.231  0.00  0.00    +0.000 A 
ATOM      8  C   UNL     1       5.429   4.061  15.068  0.00  0.00    +0.000 A 
ATOM      9  C   UNL     1       4.702   3.617  16.179  0.00  0.00    +0.000 A 
ATOM     10  C   UNL     1       5.140   3.888  17.479  0.00  0.00    +0.000 A 
ATOM     11  C   UNL     1       6.313   4.642  17.633  0.00  0.00    +0.000 A 
ATOM     12  F   UNL     1       6.822   4.919  18.842  0.00  0.00    +0.000 F 
ATOM     13  C   UNL     1       7.034   5.095  16.526  0.00  0.00    +0.000 A 
ENDBRANCH   1  10
BRANCH   4  14
ATOM     14  C   UNL     1       1.795   3.545  21.329  0.00  0.00    +0.000 C 
ATOM     15  F   UNL     1       2.146   4.420  22.311  0.00  0.00    +0.000 F 
ATOM     16  F   UNL     1       0.701   4.074  20.723  0.00  0.00    +0.000 F 
ATOM     17  F   UNL     1       1.425   2.404  21.962  0.00  0.00    +0.000 F 
ENDBRANCH   4  14
BRANCH   5  18
ATOM     18  C   UNL     1       2.504   5.218  18.593  0.00  0.00    +0.000 C 
BRANCH  18  19
ATOM     19  O   UNL     1       3.131   6.418  19.029  0.00  0.00    +0.000 OA
BRANCH  19  20
ATOM     20  C   UNL     1       2.388   7.560  19.102  0.00  0.00    +0.000 A 
ATOM     21  C   UNL     1       1.591   7.974  20.166  0.00  0.00    +0.000 A 
ATOM     22  F   UNL     1       1.468   7.229  21.274  0.00  0.00    +0.000 F 
ATOM     23  C   UNL     1       0.881   9.180  20.114  0.00  0.00    +0.000 A 
ATOM     24  C   UNL     1       0.953  10.004  18.983  0.00  0.00    +0.000 A 
ATOM     25  C   UNL     1       1.762   9.596  17.917  0.00  0.00    +0.000 A 
ATOM     26  C   UNL     1       2.463   8.393  17.984  0.00  0.00    +0.000 A 
ATOM     27  F   UNL     1       3.209   8.038  16.927  0.00  0.00    +0.000 F 
BRANCH  24  28
ATOM     28  C   UNL     1       0.125  11.259  18.858  0.00  0.00    +0.000 C 
BRANCH  28  29
ATOM     29  C   UNL     1      -1.300  11.026  18.359  0.00  0.00    +0.000 C 
BRANCH  29  30
ATOM     30  C   UNL     1      -2.281  11.855  19.156  0.00  0.00    +0.000 C 
ATOM     31  O   UNL     1      -2.175  12.122  20.338  0.00  0.00    +0.000 OA
BRANCH  30  32
ATOM     32  O   UNL     1      -3.316  12.292  18.407  0.00  0.00    +0.000 OA
ATOM     33  H   UNL     1      -4.151  11.805  18.547  0.00  0.00    +0.000 HD
ENDBRANCH  30  32
ENDBRANCH  29  30
ENDBRANCH  28  29
ENDBRANCH  24  28
ENDBRANCH  19  20
ENDBRANCH  18  19
ENDBRANCH   5  18
TORSDOF 9
ENDMDL
MODEL 5
REMARK VINA RESULT:      -8.4      1.143      2.188
REMARK  Name = 
REMARK  10 active torsions:
REMARK  status: ('A' for Active; 'I' for Inactive)
REMARK    1  A    between atoms: C_1  and  C_2
REMARK    2  A    between atoms: C_5  and  N_6
REMARK    3  A    between atoms: C_9  and  C_10
REMARK    4  A    between atoms: C_14  and  C_15
REMARK    5  A    between atoms: C_15  and  O_16
REMARK    6  A    between atoms: O_16  and  C_17
REMARK    7  A    between atoms: C_21  and  C_22
REMARK    8  A    between atoms: C_22  and  C_23
REMARK    9  A    between atoms: C_23  and  C_24
REMARK   10  A    between atoms: C_24  and  O_26
REMARK                            x       y       z     vdW  Elec       q    Type
REMARK                         _______ _______ _______ _____ _____    ______ ____
ROOT
ATOM      1  N   UNL     1       4.371   3.642  18.384  0.00  0.00    +0.000 N 
ATOM      2  C   UNL     1       4.571   2.483  19.112  0.00  0.00    +0.000 A 
ATOM      3  C   UNL     1       3.718   2.449  20.182  0.00  0.00    +0.000 A 
ATOM      4  C   UNL     1       2.906   3.609  20.124  0.00  0.00    +0.000 A 
ATOM      5  C   UNL     1       3.314   4.337  18.994  0.00  0.00    +0.000 A 
ENDROOT
BRANCH   1  10
ATOM      6  C   UNL     1       7.551   5.241  13.855  0.00  0.00    +0.000 C 
ATOM      7  C   UNL     1       6.719   4.820  15.028  0.00  0.00    +0.000 A 
ATOM      8  C   UNL     1       5.462   4.242  14.847  0.00  0.00    +0.000 A 
ATOM      9  C   UNL     1       4.690   3.848  15.947  0.00  0.00    +0.000 A 
ATOM     10  C   UNL     1       5.167   4.008  17.252  0.00  0.00    +0.000 A 
ATOM     11  C   UNL     1       6.427   4.599  17.424  0.00  0.00    +0.000 A 
ATOM     12  F   UNL     1       6.973   4.760  18.637  0.00  0.00    +0.000 F 
ATOM     13  C   UNL     1       7.194   5.003  16.329  0.00  0.00    +0.000 A 
ENDBRANCH   1  10
BRANCH   4  14
ATOM     14  C   UNL     1       1.813   3.928  21.108  0.00  0.00    +0.000 C 
ATOM     15  F   UNL     1       0.752   4.527  20.499  0.00  0.00    +0.000 F 
ATOM     16  F   UNL     1       1.325   2.810  21.705  0.00  0.00    +0.000 F 
ATOM     17  F   UNL     1       2.220   4.787  22.076  0.00  0.00    +0.000 F 
ENDBRANCH   4  14
BRANCH   5  18
ATOM     18  C   UNL     1       2.705   5.597  18.424  0.00  0.00    +0.000 C 
BRANCH  18  19
ATOM     19  O   UNL     1       2.910   6.644  19.365  0.00  0.00    +0.000 OA
BRANCH  19  20
ATOM     20  C   UNL     1       2.188   7.794  19.238  0.00  0.00    +0.000 A 
ATOM     21  C   UNL     1       2.117   8.619  18.119  0.00  0.00    +0.000 A 
ATOM     22  F   UNL     1       2.809   8.340  17.004  0.00  0.00    +0.000 F 
ATOM     23  C   UNL     1       1.328   9.776  18.119  0.00  0.00    +0.000 A 
ATOM     24  C   UNL     1       0.587  10.136  19.253  0.00  0.00    +0.000 A 
ATOM     25  C   UNL     1       0.648   9.303  20.375  0.00  0.00    +0.000 A 
ATOM     26  C   UNL     1       1.438   8.155  20.359  0.00  0.00    +0.000 A 
ATOM     27  F   UNL     1       1.477   7.400  21.468  0.00  0.00    +0.000 F 
BRANCH  24  28
ATOM     28  C   UNL     1      -0.195  11.425  19.317  0.00  0.00    +0.000 C 
BRANCH  28  29
ATOM     29  C   UNL     1       0.669  12.680  19.421  0.00  0.00    +0.000 C 
BRANCH  29  30
ATOM     30  C   UNL     1      -0.134  13.907  19.053  0.00  0.00    +0.000 C 
ATOM     31  O   UNL     1      -0.089  14.975  19.633  0.00  0.00    +0.000 OA
BRANCH  30  32
ATOM     32  O   UNL     1      -0.927  13.701  17.979  0.00  0.00    +0.000 OA
ATOM     33  H   UNL     1      -0.606  13.011  17.367  0.00  0.00    +0.000 HD
ENDBRANCH  30  32
ENDBRANCH  29  30
ENDBRANCH  28  29
ENDBRANCH  24  28
ENDBRANCH  19  20
ENDBRANCH  18  19
ENDBRANCH   5  18
TORSDOF 9
ENDMDL
MODEL 6
REMARK VINA RESULT:      -8.3      1.561      1.837
REMARK  Name = 
REMARK  10 active torsions:
REMARK  status: ('A' for Active; 'I' for Inactive)
REMARK    1  A    between atoms: C_1  and  C_2
REMARK    2  A    between atoms: C_5  and  N_6
REMARK    3  A    between atoms: C_9  and  C_10
REMARK    4  A    between atoms: C_14  and  C_15
REMARK    5  A    between atoms: C_15  and  O_16
REMARK    6  A    between atoms: O_16  and  C_17
REMARK    7  A    between atoms: C_21  and  C_22
REMARK    8  A    between atoms: C_22  and  C_23
REMARK    9  A    between atoms: C_23  and  C_24
REMARK   10  A    between atoms: C_24  and  O_26
REMARK                            x       y       z     vdW  Elec       q    Type
REMARK                         _______ _______ _______ _____ _____    ______ ____
ROOT
ATOM      1  N   UNL     1       4.344   3.565  18.445  0.00  0.00    +0.000 N 
ATOM      2  C   UNL     1       4.602   2.434  19.198  0.00  0.00    +0.000 A 
ATOM      3  C   UNL     1       3.746   2.377  20.266  0.00  0.00    +0.000 A 
ATOM      4  C   UNL     1       2.874   3.491  20.180  0.00  0.00    +0.000 A 
ATOM      5  C   UNL     1       3.249   4.216  19.036  0.00  0.00    +0.000 A 
ENDROOT
BRANCH   1  10
ATOM      6  C   UNL     1       7.458   5.235  13.895  0.00  0.00    +0.000 C 
ATOM      7  C   UNL     1       6.643   4.796  15.074  0.00  0.00    +0.000 A 
ATOM      8  C   UNL     1       5.417   4.154  14.900  0.00  0.00    +0.000 A 
ATOM      9  C   UNL     1       4.661   3.743  16.005  0.00  0.00    +0.000 A 
ATOM     10  C   UNL     1       5.125   3.948  17.309  0.00  0.00    +0.000 A 
ATOM     11  C   UNL     1       6.354   4.604  17.473  0.00  0.00    +0.000 A 
ATOM     12  F   UNL     1       6.889   4.812  18.684  0.00  0.00    +0.000 F 
ATOM     13  C   UNL     1       7.105   5.024  16.372  0.00  0.00    +0.000 A 
ENDBRANCH   1  10
BRANCH   4  14
ATOM     14  C   UNL     1       1.760   3.771  21.152  0.00  0.00    +0.000 C 
ATOM     15  F   UNL     1       2.171   4.592  22.158  0.00  0.00    +0.000 F 
ATOM     16  F   UNL     1       0.712   4.396  20.558  0.00  0.00    +0.000 F 
ATOM     17  F   UNL     1       1.303   2.645  21.755  0.00  0.00    +0.000 F 
ENDBRANCH   4  14
BRANCH   5  18
ATOM     18  C   UNL     1       2.576   5.429  18.437  0.00  0.00    +0.000 C 
BRANCH  18  19
ATOM     19  O   UNL     1       3.090   6.580  19.095  0.00  0.00    +0.000 OA
BRANCH  19  20
ATOM     20  C   UNL     1       2.297   7.686  19.203  0.00  0.00    +0.000 A 
ATOM     21  C   UNL     1       1.521   8.055  20.298  0.00  0.00    +0.000 A 
ATOM     22  F   UNL     1       1.474   7.299  21.404  0.00  0.00    +0.000 F 
ATOM     23  C   UNL     1       0.753   9.226  20.280  0.00  0.00    +0.000 A 
ATOM     24  C   UNL     1       0.745  10.059  19.153  0.00  0.00    +0.000 A 
ATOM     25  C   UNL     1       1.533   9.696  18.055  0.00  0.00    +0.000 A 
ATOM     26  C   UNL     1       2.292   8.527  18.089  0.00  0.00    +0.000 A 
ATOM     27  F   UNL     1       3.015   8.213  17.003  0.00  0.00    +0.000 F 
BRANCH  24  28
ATOM     28  C   UNL     1      -0.145  11.274  19.067  0.00  0.00    +0.000 C 
BRANCH  28  29
ATOM     29  C   UNL     1      -0.113  12.167  20.306  0.00  0.00    +0.000 C 
BRANCH  29  30
ATOM     30  C   UNL     1       1.154  12.992  20.331  0.00  0.00    +0.000 C 
ATOM     31  O   UNL     1       1.843  13.247  19.361  0.00  0.00    +0.000 OA
BRANCH  30  32
ATOM     32  O   UNL     1       1.454  13.439  21.569  0.00  0.00    +0.000 OA
ATOM     33  H   UNL     1       2.159  14.114  21.595  0.00  0.00    +0.000 HD
ENDBRANCH  30  32
ENDBRANCH  29  30
ENDBRANCH  28  29
ENDBRANCH  24  28
ENDBRANCH  19  20
ENDBRANCH  18  19
ENDBRANCH   5  18
TORSDOF 9
ENDMDL
MODEL 7
REMARK VINA RESULT:      -8.3      1.111      1.585
REMARK  Name = 
REMARK  10 active torsions:
REMARK  status: ('A' for Active; 'I' for Inactive)
REMARK    1  A    between atoms: C_1  and  C_2
REMARK    2  A    between atoms: C_5  and  N_6
REMARK    3  A    between atoms: C_9  and  C_10
REMARK    4  A    between atoms: C_14  and  C_15
REMARK    5  A    between atoms: C_15  and  O_16
REMARK    6  A    between atoms: O_16  and  C_17
REMARK    7  A    between atoms: C_21  and  C_22
REMARK    8  A    between atoms: C_22  and  C_23
REMARK    9  A    between atoms: C_23  and  C_24
REMARK   10  A    between atoms: C_24  and  O_26
REMARK                            x       y       z     vdW  Elec       q    Type
REMARK                         _______ _______ _______ _____ _____    ______ ____
ROOT
ATOM      1  N   UNL     1       4.442   3.614  18.569  0.00  0.00    +0.000 N 
ATOM      2  C   UNL     1       4.750   2.491  19.315  0.00  0.00    +0.000 A 
ATOM      3  C   UNL     1       3.907   2.397  20.390  0.00  0.00    +0.000 A 
ATOM      4  C   UNL     1       2.992   3.477  20.317  0.00  0.00    +0.000 A 
ATOM      5  C   UNL     1       3.327   4.220  19.173  0.00  0.00    +0.000 A 
ENDROOT
BRANCH   1  10
ATOM      6  C   UNL     1       7.492   5.172  13.937  0.00  0.00    +0.000 C 
ATOM      7  C   UNL     1       6.705   4.770  15.147  0.00  0.00    +0.000 A 
ATOM      8  C   UNL     1       7.265   4.835  16.424  0.00  0.00    +0.000 A 
ATOM      9  C   UNL     1       6.522   4.461  17.551  0.00  0.00    +0.000 A 
ATOM     10  C   UNL     1       5.197   4.032  17.428  0.00  0.00    +0.000 A 
ATOM     11  C   UNL     1       4.646   3.961  16.140  0.00  0.00    +0.000 A 
ATOM     12  F   UNL     1       3.374   3.593  15.934  0.00  0.00    +0.000 F 
ATOM     13  C   UNL     1       5.388   4.323  15.013  0.00  0.00    +0.000 A 
ENDBRANCH   1  10
BRANCH   4  14
ATOM     14  C   UNL     1       1.877   3.710  21.301  0.00  0.00    +0.000 C 
ATOM     15  F   UNL     1       0.741   4.127  20.678  0.00  0.00    +0.000 F 
ATOM     16  F   UNL     1       1.547   2.577  21.973  0.00  0.00    +0.000 F 
ATOM     17  F   UNL     1       2.179   4.673  22.208  0.00  0.00    +0.000 F 
ENDBRANCH   4  14
BRANCH   5  18
ATOM     18  C   UNL     1       2.603   5.408  18.586  0.00  0.00    +0.000 C 
BRANCH  18  19
ATOM     19  O   UNL     1       3.045   6.571  19.276  0.00  0.00    +0.000 OA
BRANCH  19  20
ATOM     20  C   UNL     1       2.235   7.670  19.299  0.00  0.00    +0.000 A 
ATOM     21  C   UNL     1       1.431   8.095  20.354  0.00  0.00    +0.000 A 
ATOM     22  F   UNL     1       1.371   7.407  21.503  0.00  0.00    +0.000 F 
ATOM     23  C   UNL     1       0.649   9.251  20.249  0.00  0.00    +0.000 A 
ATOM     24  C   UNL     1       0.654  10.014  19.072  0.00  0.00    +0.000 A 
ATOM     25  C   UNL     1       1.469   9.595  18.015  0.00  0.00    +0.000 A 
ATOM     26  C   UNL     1       2.242   8.442  18.136  0.00  0.00    +0.000 A 
ATOM     27  F   UNL     1       2.992   8.072  17.087  0.00  0.00    +0.000 F 
BRANCH  24  28
ATOM     28  C   UNL     1      -0.250  11.208  18.894  0.00  0.00    +0.000 C 
BRANCH  28  29
ATOM     29  C   UNL     1      -1.466  10.951  18.004  0.00  0.00    +0.000 C 
BRANCH  29  30
ATOM     30  C   UNL     1      -2.635  11.800  18.449  0.00  0.00    +0.000 C 
ATOM     31  O   UNL     1      -2.775  12.274  19.560  0.00  0.00    +0.000 OA
BRANCH  30  32
ATOM     32  O   UNL     1      -3.535  11.996  17.461  0.00  0.00    +0.000 OA
ATOM     33  H   UNL     1      -3.414  11.417  16.684  0.00  0.00    +0.000 HD
ENDBRANCH  30  32
ENDBRANCH  29  30
ENDBRANCH  28  29
ENDBRANCH  24  28
ENDBRANCH  19  20
ENDBRANCH  18  19
ENDBRANCH   5  18
TORSDOF 9
ENDMDL
MODEL 8
REMARK VINA RESULT:      -8.3      1.606      2.381
REMARK  Name = 
REMARK  10 active torsions:
REMARK  status: ('A' for Active; 'I' for Inactive)
REMARK    1  A    between atoms: C_1  and  C_2
REMARK    2  A    between atoms: C_5  and  N_6
REMARK    3  A    between atoms: C_9  and  C_10
REMARK    4  A    between atoms: C_14  and  C_15
REMARK    5  A    between atoms: C_15  and  O_16
REMARK    6  A    between atoms: O_16  and  C_17
REMARK    7  A    between atoms: C_21  and  C_22
REMARK    8  A    between atoms: C_22  and  C_23
REMARK    9  A    between atoms: C_23  and  C_24
REMARK   10  A    between atoms: C_24  and  O_26
REMARK                            x       y       z     vdW  Elec       q    Type
REMARK                         _______ _______ _______ _____ _____    ______ ____
ROOT
ATOM      1  N   UNL     1       4.294   3.582  18.334  0.00  0.00    +0.000 N 
ATOM      2  C   UNL     1       4.476   2.408  19.043  0.00  0.00    +0.000 A 
ATOM      3  C   UNL     1       3.614   2.365  20.107  0.00  0.00    +0.000 A 
ATOM      4  C   UNL     1       2.816   3.536  20.063  0.00  0.00    +0.000 A 
ATOM      5  C   UNL     1       3.241   4.279  18.949  0.00  0.00    +0.000 A 
ENDROOT
BRANCH   1  10
ATOM      6  C   UNL     1       7.524   5.223  13.856  0.00  0.00    +0.000 C 
ATOM      7  C   UNL     1       6.679   4.792  15.015  0.00  0.00    +0.000 A 
ATOM      8  C   UNL     1       5.429   4.205  14.815  0.00  0.00    +0.000 A 
ATOM      9  C   UNL     1       4.645   3.801  15.903  0.00  0.00    +0.000 A 
ATOM     10  C   UNL     1       5.103   3.958  17.215  0.00  0.00    +0.000 A 
ATOM     11  C   UNL     1       6.356   4.559  17.406  0.00  0.00    +0.000 A 
ATOM     12  F   UNL     1       6.885   4.718  18.628  0.00  0.00    +0.000 F 
ATOM     13  C   UNL     1       7.135   4.972  16.324  0.00  0.00    +0.000 A 
ENDBRANCH   1  10
BRANCH   4  14
ATOM     14  C   UNL     1       1.719   3.850  21.045  0.00  0.00    +0.000 C 
ATOM     15  F   UNL     1       2.142   4.718  22.005  0.00  0.00    +0.000 F 
ATOM     16  F   UNL     1       0.653   4.439  20.444  0.00  0.00    +0.000 F 
ATOM     17  F   UNL     1       1.284   2.748  21.706  0.00  0.00    +0.000 F 
ENDBRANCH   4  14
BRANCH   5  18
ATOM     18  C   UNL     1       2.651   5.556  18.398  0.00  0.00    +0.000 C 
BRANCH  18  19
ATOM     19  O   UNL     1       2.905   6.593  19.337  0.00  0.00    +0.000 OA
BRANCH  19  20
ATOM     20  C   UNL     1       2.217   7.767  19.224  0.00  0.00    +0.000 A 
ATOM     21  C   UNL     1       2.177   8.610  18.116  0.00  0.00    +0.000 A 
ATOM     22  F   UNL     1       2.866   8.327  17.001  0.00  0.00    +0.000 F 
ATOM     23  C   UNL     1       1.421   9.789  18.130  0.00  0.00    +0.000 A 
ATOM     24  C   UNL     1       0.685  10.153  19.265  0.00  0.00    +0.000 A 
ATOM     25  C   UNL     1       0.715   9.302  20.375  0.00  0.00    +0.000 A 
ATOM     26  C   UNL     1       1.471   8.132  20.345  0.00  0.00    +0.000 A 
ATOM     27  F   UNL     1       1.482   7.360  21.443  0.00  0.00    +0.000 F 
BRANCH  24  28
ATOM     28  C   UNL     1      -0.060  11.463  19.345  0.00  0.00    +0.000 C 
BRANCH  28  29
ATOM     29  C   UNL     1       0.122  12.211  20.664  0.00  0.00    +0.000 C 
BRANCH  29  30
ATOM     30  C   UNL     1       1.304  13.150  20.581  0.00  0.00    +0.000 C 
ATOM     31  O   UNL     1       1.950  13.550  21.532  0.00  0.00    +0.000 OA
BRANCH  30  32
ATOM     32  O   UNL     1       1.592  13.507  19.311  0.00  0.00    +0.000 OA
ATOM     33  H   UNL     1       0.985  14.171  18.931  0.00  0.00    +0.000 HD
ENDBRANCH  30  32
ENDBRANCH  29  30
ENDBRANCH  28  29
ENDBRANCH  24  28
ENDBRANCH  19  20
ENDBRANCH  18  19
ENDBRANCH   5  18
TORSDOF 9
ENDMDL
MODEL 9
REMARK VINA RESULT:      -8.3      1.298      1.922
REMARK  Name = 
REMARK  10 active torsions:
REMARK  status: ('A' for Active; 'I' for Inactive)
REMARK    1  A    between atoms: C_1  and  C_2
REMARK    2  A    between atoms: C_5  and  N_6
REMARK    3  A    between atoms: C_9  and  C_10
REMARK    4  A    between atoms: C_14  and  C_15
REMARK    5  A    between atoms: C_15  and  O_16
REMARK    6  A    between atoms: O_16  and  C_17
REMARK    7  A    between atoms: C_21  and  C_22
REMARK    8  A    between atoms: C_22  and  C_23
REMARK    9  A    between atoms: C_23  and  C_24
REMARK   10  A    between atoms: C_24  and  O_26
REMARK                            x       y       z     vdW  Elec       q    Type
REMARK                         _______ _______ _______ _____ _____    ______ ____
ROOT
ATOM      1  N   UNL     1       4.434   3.663  18.542  0.00  0.00    +0.000 N 
ATOM      2  C   UNL     1       4.723   2.541  19.297  0.00  0.00    +0.000 A 
ATOM      3  C   UNL     1       3.872   2.463  20.366  0.00  0.00    +0.000 A 
ATOM      4  C   UNL     1       2.970   3.553  20.281  0.00  0.00    +0.000 A 
ATOM      5  C   UNL     1       3.323   4.286  19.135  0.00  0.00    +0.000 A 
ENDROOT
BRANCH   1  10
ATOM      6  C   UNL     1       7.540   5.157  13.926  0.00  0.00    +0.000 C 
ATOM      7  C   UNL     1       6.738   4.772  15.132  0.00  0.00    +0.000 A 
ATOM      8  C   UNL     1       7.272   4.884  16.417  0.00  0.00    +0.000 A 
ATOM      9  C   UNL     1       6.516   4.526  17.540  0.00  0.00    +0.000 A 
ATOM     10  C   UNL     1       5.202   4.066  17.404  0.00  0.00    +0.000 A 
ATOM     11  C   UNL     1       4.678   3.947  16.108  0.00  0.00    +0.000 A 
ATOM     12  F   UNL     1       3.418   3.546  15.889  0.00  0.00    +0.000 F 
ATOM     13  C   UNL     1       5.434   4.293  14.986  0.00  0.00    +0.000 A 
ENDBRANCH   1  10
BRANCH   4  14
ATOM     14  C   UNL     1       1.851   3.805  21.255  0.00  0.00    +0.000 C 
ATOM     15  F   UNL     1       0.723   4.227  20.621  0.00  0.00    +0.000 F 
ATOM     16  F   UNL     1       1.507   2.682  21.935  0.00  0.00    +0.000 F 
ATOM     17  F   UNL     1       2.156   4.774  22.155  0.00  0.00    +0.000 F 
ENDBRANCH   4  14
BRANCH   5  18
ATOM     18  C   UNL     1       2.617   5.480  18.535  0.00  0.00    +0.000 C 
BRANCH  18  19
ATOM     19  O   UNL     1       3.022   6.634  19.262  0.00  0.00    +0.000 OA
BRANCH  19  20
ATOM     20  C   UNL     1       2.166   7.693  19.346  0.00  0.00    +0.000 A 
ATOM     21  C   UNL     1       1.390   8.056  20.444  0.00  0.00    +0.000 A 
ATOM     22  F   UNL     1       1.411   7.342  21.578  0.00  0.00    +0.000 F 
ATOM     23  C   UNL     1       0.552   9.177  20.400  0.00  0.00    +0.000 A 
ATOM     24  C   UNL     1       0.470   9.965  19.243  0.00  0.00    +0.000 A 
ATOM     25  C   UNL     1       1.257   9.608  18.142  0.00  0.00    +0.000 A 
ATOM     26  C   UNL     1       2.086   8.489  18.202  0.00  0.00    +0.000 A 
ATOM     27  F   UNL     1       2.806   8.178  17.113  0.00  0.00    +0.000 F 
BRANCH  24  28
ATOM     28  C   UNL     1      -0.494  11.120  19.132  0.00  0.00    +0.000 C 
BRANCH  28  29
ATOM     29  C   UNL     1       0.048  12.445  19.664  0.00  0.00    +0.000 C 
BRANCH  29  30
ATOM     30  C   UNL     1      -0.011  13.509  18.590  0.00  0.00    +0.000 C 
ATOM     31  O   UNL     1       0.612  14.554  18.604  0.00  0.00    +0.000 OA
BRANCH  30  32
ATOM     32  O   UNL     1      -0.839  13.175  17.578  0.00  0.00    +0.000 OA
ATOM     33  H   UNL     1      -0.401  12.730  16.827  0.00  0.00    +0.000 HD
ENDBRANCH  30  32
ENDBRANCH  29  30
ENDBRANCH  28  29
ENDBRANCH  24  28
ENDBRANCH  19  20
ENDBRANCH  18  19
ENDBRANCH   5  18
TORSDOF 9
ENDMDL
