MODEL 1
REMARK VINA RESULT:      -7.9      0.000      0.000
REMARK  Name = 
REMARK  5 active torsions:
REMARK  status: ('A' for Active; 'I' for Inactive)
REMARK    1  A    between atoms: C_2  and  C_3
REMARK    2  A    between atoms: C_3  and  C_4
REMARK    3  A    between atoms: C_3  and  C_11
REMARK    4  A    between atoms: N_20  and  C_21
REMARK    5  A    between atoms: C_24  and  C_25
REMARK                            x       y       z     vdW  Elec       q    Type
REMARK                         _______ _______ _______ _____ _____    ______ ____
ROOT
ATOM      1  O   UNL     1      -0.815  11.424  21.665  0.00  0.00    +0.000 OA
ATOM      2  C   UNL     1      -0.517  11.213  20.485  0.00  0.00    +0.000 C 
ATOM      3  N   UNL     1       0.204  10.068  20.158  0.00  0.00    +0.000 N 
ATOM      4  C   UNL     1       0.746   9.683  18.843  0.00  0.00    +0.000 C 
ATOM      5  C   UNL     1       2.039   8.814  18.936  0.00  0.00    +0.000 C 
ATOM      6  N   UNL     1       1.872   7.737  19.923  0.00  0.00    +0.000 N 
ATOM      7  C   UNL     1       1.466   8.202  21.255  0.00  0.00    +0.000 C 
ATOM      8  C   UNL     1       0.148   8.973  21.145  0.00  0.00    +0.000 C 
ENDROOT
BRANCH   6   9
ATOM      9  C   UNL     1       2.045   6.399  19.633  0.00  0.00    +0.000 A 
ATOM     10  C   UNL     1       1.731   5.391  20.552  0.00  0.00    +0.000 A 
ATOM     11  C   UNL     1       1.911   4.038  20.247  0.00  0.00    +0.000 A 
ATOM     12  C   UNL     1       2.415   3.679  19.001  0.00  0.00    +0.000 A 
ATOM     13  N   UNL     1       2.733   4.627  18.077  0.00  0.00    +0.000 NA
ATOM     14  C   UNL     1       2.544   5.933  18.416  0.00  0.00    +0.000 A 
BRANCH  12  15
ATOM     15  C   UNL     1       2.614   2.209  18.654  0.00  0.00    +0.000 C 
ATOM     16  F   UNL     1       1.766   1.379  19.338  0.00  0.00    +0.000 F 
ATOM     17  F   UNL     1       2.396   1.935  17.335  0.00  0.00    +0.000 F 
ATOM     18  F   UNL     1       3.867   1.755  18.940  0.00  0.00    +0.000 F 
ENDBRANCH  12  15
ENDBRANCH   6   9
BRANCH   2  19
ATOM     19  C   UNL     1      -0.970  12.228  19.393  0.00  0.00    +0.000 C 
BRANCH  19  20
ATOM     20  C   UNL     1      -2.471  11.995  19.091  0.00  0.00    +0.000 A 
ATOM     21  C   UNL     1      -3.482  12.607  19.860  0.00  0.00    +0.000 A 
ATOM     22  C   UNL     1      -4.836  12.395  19.579  0.00  0.00    +0.000 A 
ATOM     23  C   UNL     1      -5.202  11.582  18.513  0.00  0.00    +0.000 A 
ATOM     24 CL   UNL     1      -6.864  11.325  18.159  0.00  0.00    +0.000 Cl
ATOM     25  C   UNL     1      -4.220  10.974  17.731  0.00  0.00    +0.000 A 
ATOM     26  C   UNL     1      -2.865  11.177  18.016  0.00  0.00    +0.000 A 
ENDBRANCH  19  20
BRANCH  19  27
ATOM     27  C   UNL     1      -0.690  13.681  19.761  0.00  0.00    +0.000 A 
ATOM     28  C   UNL     1      -0.685  14.184  21.052  0.00  0.00    +0.000 A 
ATOM     29  N   UNL     1      -0.526  15.488  21.362  0.00  0.00    +0.000 NA
ATOM     30  C   UNL     1      -0.356  16.320  20.327  0.00  0.00    +0.000 A 
ATOM     31  N   UNL     1      -0.260  15.955  19.042  0.00  0.00    +0.000 NA
ATOM     32  C   UNL     1      -0.423  14.637  18.794  0.00  0.00    +0.000 A 
ENDBRANCH  19  27
ENDBRANCH   2  19
TORSDOF 5
ENDMDL
MODEL 2
REMARK VINA RESULT:      -7.9      0.624      1.152
REMARK  Name = 
REMARK  5 active torsions:
REMARK  status: ('A' for Active; 'I' for Inactive)
REMARK    1  A    between atoms: C_2  and  C_3
REMARK    2  A    between atoms: C_3  and  C_4
REMARK    3  A    between atoms: C_3  and  C_11
REMARK    4  A    between atoms: N_20  and  C_21
REMARK    5  A    between atoms: C_24  and  C_25
REMARK                            x       y       z     vdW  Elec       q    Type
REMARK                         _______ _______ _______ _____ _____    ______ ____
ROOT
ATOM      1  O   UNL     1      -0.735  11.546  21.468  0.00  0.00    +0.000 OA
ATOM      2  C   UNL     1      -0.480  11.297  20.285  0.00  0.00    +0.000 C 
ATOM      3  N   UNL     1       0.236  10.145  19.971  0.00  0.00    +0.000 N 
ATOM      4  C   UNL     1       0.732   9.718  18.650  0.00  0.00    +0.000 C 
ATOM      5  C   UNL     1       2.034   8.861  18.724  0.00  0.00    +0.000 C 
ATOM      6  N   UNL     1       1.911   7.817  19.753  0.00  0.00    +0.000 N 
ATOM      7  C   UNL     1       1.552   8.326  21.083  0.00  0.00    +0.000 C 
ATOM      8  C   UNL     1       0.225   9.084  20.996  0.00  0.00    +0.000 C 
ENDROOT
BRANCH   6   9
ATOM      9  C   UNL     1       2.083   6.471  19.502  0.00  0.00    +0.000 A 
ATOM     10  C   UNL     1       2.328   5.980  18.215  0.00  0.00    +0.000 A 
ATOM     11  C   UNL     1       2.499   4.613  17.972  0.00  0.00    +0.000 A 
ATOM     12  C   UNL     1       2.425   3.715  19.033  0.00  0.00    +0.000 A 
ATOM     13  N   UNL     1       2.190   4.151  20.301  0.00  0.00    +0.000 NA
ATOM     14  C   UNL     1       2.026   5.490  20.492  0.00  0.00    +0.000 A 
BRANCH  12  15
ATOM     15  C   UNL     1       2.612   2.224  18.783  0.00  0.00    +0.000 C 
ATOM     16  F   UNL     1       2.627   1.903  17.452  0.00  0.00    +0.000 F 
ATOM     17  F   UNL     1       3.787   1.741  19.280  0.00  0.00    +0.000 F 
ATOM     18  F   UNL     1       1.621   1.461  19.324  0.00  0.00    +0.000 F 
ENDBRANCH  12  15
ENDBRANCH   6   9
BRANCH   2  19
ATOM     19  C   UNL     1      -0.981  12.271  19.178  0.00  0.00    +0.000 C 
BRANCH  19  20
ATOM     20  C   UNL     1      -2.491  12.021  18.942  0.00  0.00    +0.000 A 
ATOM     21  C   UNL     1      -3.464  12.462  19.862  0.00  0.00    +0.000 A 
ATOM     22  C   UNL     1      -4.827  12.235  19.641  0.00  0.00    +0.000 A 
ATOM     23  C   UNL     1      -5.241  11.581  18.488  0.00  0.00    +0.000 A 
ATOM     24 CL   UNL     1      -6.914  11.308  18.208  0.00  0.00    +0.000 Cl
ATOM     25  C   UNL     1      -4.298  11.145  17.558  0.00  0.00    +0.000 A 
ATOM     26  C   UNL     1      -2.934  11.361  17.781  0.00  0.00    +0.000 A 
ENDBRANCH  19  20
BRANCH  19  27
ATOM     27  C   UNL     1      -0.695  13.737  19.484  0.00  0.00    +0.000 A 
ATOM     28  C   UNL     1      -1.408  14.511  20.385  0.00  0.00    +0.000 A 
ATOM     29  N   UNL     1      -1.207  15.831  20.583  0.00  0.00    +0.000 NA
ATOM     30  C   UNL     1      -0.240  16.393  19.848  0.00  0.00    +0.000 A 
ATOM     31  N   UNL     1       0.574  15.745  19.005  0.00  0.00    +0.000 NA
ATOM     32  C   UNL     1       0.327  14.427  18.850  0.00  0.00    +0.000 A 
ENDBRANCH  19  27
ENDBRANCH   2  19
TORSDOF 5
ENDMDL
MODEL 3
REMARK VINA RESULT:      -7.9      0.357      1.141
REMARK  Name = 
REMARK  5 active torsions:
REMARK  status: ('A' for Active; 'I' for Inactive)
REMARK    1  A    between atoms: C_2  and  C_3
REMARK    2  A    between atoms: C_3  and  C_4
REMARK    3  A    between atoms: C_3  and  C_11
REMARK    4  A    between atoms: N_20  and  C_21
REMARK    5  A    between atoms: C_24  and  C_25
REMARK                            x       y       z     vdW  Elec       q    Type
REMARK                         _______ _______ _______ _____ _____    ______ ____
ROOT
ATOM      1  O   UNL     1      -0.796  11.550  21.460  0.00  0.00    +0.000 OA
ATOM      2  C   UNL     1      -0.536  11.295  20.280  0.00  0.00    +0.000 C 
ATOM      3  N   UNL     1       0.182  10.142  19.975  0.00  0.00    +0.000 N 
ATOM      4  C   UNL     1       0.684   9.709  18.659  0.00  0.00    +0.000 C 
ATOM      5  C   UNL     1       1.986   8.852  18.743  0.00  0.00    +0.000 C 
ATOM      6  N   UNL     1       1.858   7.813  19.777  0.00  0.00    +0.000 N 
ATOM      7  C   UNL     1       1.492   8.328  21.102  0.00  0.00    +0.000 C 
ATOM      8  C   UNL     1       0.166   9.086  21.005  0.00  0.00    +0.000 C 
ENDROOT
BRANCH   6   9
ATOM      9  C   UNL     1       2.031   6.466  19.533  0.00  0.00    +0.000 A 
ATOM     10  C   UNL     1       1.669   5.489  20.466  0.00  0.00    +0.000 A 
ATOM     11  C   UNL     1       1.849   4.125  20.209  0.00  0.00    +0.000 A 
ATOM     12  C   UNL     1       2.402   3.726  18.996  0.00  0.00    +0.000 A 
ATOM     13  N   UNL     1       2.767   4.644  18.059  0.00  0.00    +0.000 NA
ATOM     14  C   UNL     1       2.576   5.961  18.352  0.00  0.00    +0.000 A 
BRANCH  12  15
ATOM     15  C   UNL     1       2.602   2.245  18.701  0.00  0.00    +0.000 C 
ATOM     16  F   UNL     1       3.876   1.815  18.965  0.00  0.00    +0.000 F 
ATOM     17  F   UNL     1       1.792   1.437  19.443  0.00  0.00    +0.000 F 
ATOM     18  F   UNL     1       2.378   1.922  17.397  0.00  0.00    +0.000 F 
ENDBRANCH  12  15
ENDBRANCH   6   9
BRANCH   2  19
ATOM     19  C   UNL     1      -1.031  12.264  19.166  0.00  0.00    +0.000 C 
BRANCH  19  20
ATOM     20  C   UNL     1      -2.527  11.979  18.889  0.00  0.00    +0.000 A 
ATOM     21  C   UNL     1      -2.940  11.212  17.780  0.00  0.00    +0.000 A 
ATOM     22  C   UNL     1      -4.293  10.956  17.538  0.00  0.00    +0.000 A 
ATOM     23  C   UNL     1      -5.257  11.448  18.409  0.00  0.00    +0.000 A 
ATOM     24 CL   UNL     1      -6.921  11.129  18.120  0.00  0.00    +0.000 Cl
ATOM     25  C   UNL     1      -4.874  12.201  19.519  0.00  0.00    +0.000 A 
ATOM     26  C   UNL     1      -3.521  12.466  19.758  0.00  0.00    +0.000 A 
ENDBRANCH  19  20
BRANCH  19  27
ATOM     27  C   UNL     1      -0.790  13.735  19.488  0.00  0.00    +0.000 A 
ATOM     28  C   UNL     1      -1.476  14.457  20.451  0.00  0.00    +0.000 A 
ATOM     29  N   UNL     1      -1.320  15.780  20.668  0.00  0.00    +0.000 NA
ATOM     30  C   UNL     1      -0.427  16.401  19.887  0.00  0.00    +0.000 A 
ATOM     31  N   UNL     1       0.358  15.807  18.978  0.00  0.00    +0.000 NA
ATOM     32  C   UNL     1       0.159  14.482  18.808  0.00  0.00    +0.000 A 
ENDBRANCH  19  27
ENDBRANCH   2  19
TORSDOF 5
ENDMDL
MODEL 4
REMARK VINA RESULT:      -7.8      0.460      1.076
REMARK  Name = 
REMARK  5 active torsions:
REMARK  status: ('A' for Active; 'I' for Inactive)
REMARK    1  A    between atoms: C_2  and  C_3
REMARK    2  A    between atoms: C_3  and  C_4
REMARK    3  A    between atoms: C_3  and  C_11
REMARK    4  A    between atoms: N_20  and  C_21
REMARK    5  A    between atoms: C_24  and  C_25
REMARK                            x       y       z     vdW  Elec       q    Type
REMARK                         _______ _______ _______ _____ _____    ______ ____
ROOT
ATOM      1  O   UNL     1      -0.494  11.602  21.328  0.00  0.00    +0.000 OA
ATOM      2  C   UNL     1      -0.299  11.306  20.145  0.00  0.00    +0.000 C 
ATOM      3  N   UNL     1       0.376  10.128  19.840  0.00  0.00    +0.000 N 
ATOM      4  C   UNL     1       0.802   9.644  18.514  0.00  0.00    +0.000 C 
ATOM      5  C   UNL     1       2.086   8.759  18.561  0.00  0.00    +0.000 C 
ATOM      6  N   UNL     1       1.987   7.754  19.631  0.00  0.00    +0.000 N 
ATOM      7  C   UNL     1       1.699   8.317  20.956  0.00  0.00    +0.000 C 
ATOM      8  C   UNL     1       0.388   9.103  20.902  0.00  0.00    +0.000 C 
ENDROOT
BRANCH   6   9
ATOM      9  C   UNL     1       2.116   6.396  19.420  0.00  0.00    +0.000 A 
ATOM     10  C   UNL     1       1.835   5.458  20.420  0.00  0.00    +0.000 A 
ATOM     11  C   UNL     1       1.970   4.084  20.196  0.00  0.00    +0.000 A 
ATOM     12  C   UNL     1       2.395   3.634  18.950  0.00  0.00    +0.000 A 
ATOM     13  N   UNL     1       2.679   4.511  17.949  0.00  0.00    +0.000 NA
ATOM     14  C   UNL     1       2.536   5.841  18.212  0.00  0.00    +0.000 A 
BRANCH  12  15
ATOM     15  C   UNL     1       2.546   2.140  18.691  0.00  0.00    +0.000 C 
ATOM     16  F   UNL     1       2.425   1.812  17.367  0.00  0.00    +0.000 F 
ATOM     17  F   UNL     1       3.761   1.649  19.072  0.00  0.00    +0.000 F 
ATOM     18  F   UNL     1       1.609   1.387  19.334  0.00  0.00    +0.000 F 
ENDBRANCH  12  15
ENDBRANCH   6   9
BRANCH   2  19
ATOM     19  C   UNL     1      -0.827  12.253  19.027  0.00  0.00    +0.000 C 
BRANCH  19  20
ATOM     20  C   UNL     1      -2.334  11.971  18.808  0.00  0.00    +0.000 A 
ATOM     21  C   UNL     1      -3.308  12.399  19.733  0.00  0.00    +0.000 A 
ATOM     22  C   UNL     1      -4.667  12.143  19.527  0.00  0.00    +0.000 A 
ATOM     23  C   UNL     1      -5.079  11.471  18.383  0.00  0.00    +0.000 A 
ATOM     24 CL   UNL     1      -6.749  11.162  18.121  0.00  0.00    +0.000 Cl
ATOM     25  C   UNL     1      -4.136  11.047  17.447  0.00  0.00    +0.000 A 
ATOM     26  C   UNL     1      -2.774  11.293  17.656  0.00  0.00    +0.000 A 
ENDBRANCH  19  20
BRANCH  19  27
ATOM     27  C   UNL     1      -0.568  13.730  19.308  0.00  0.00    +0.000 A 
ATOM     28  C   UNL     1       0.448  14.477  18.737  0.00  0.00    +0.000 A 
ATOM     29  N   UNL     1       0.727  15.759  19.060  0.00  0.00    +0.000 NA
ATOM     30  C   UNL     1      -0.060  16.313  19.991  0.00  0.00    +0.000 A 
ATOM     31  N   UNL     1      -1.122  15.729  20.560  0.00  0.00    +0.000 NA
ATOM     32  C   UNL     1      -1.353  14.449  20.196  0.00  0.00    +0.000 A 
ENDBRANCH  19  27
ENDBRANCH   2  19
TORSDOF 5
ENDMDL
MODEL 5
REMARK VINA RESULT:      -7.8      0.134      1.197
REMARK  Name = 
REMARK  5 active torsions:
REMARK  status: ('A' for Active; 'I' for Inactive)
REMARK    1  A    between atoms: C_2  and  C_3
REMARK    2  A    between atoms: C_3  and  C_4
REMARK    3  A    between atoms: C_3  and  C_11
REMARK    4  A    between atoms: N_20  and  C_21
REMARK    5  A    between atoms: C_24  and  C_25
REMARK                            x       y       z     vdW  Elec       q    Type
REMARK                         _______ _______ _______ _____ _____    ______ ____
ROOT
ATOM      1  O   UNL     1      -0.836  11.404  21.575  0.00  0.00    +0.000 OA
ATOM      2  C   UNL     1      -0.516  11.187  20.402  0.00  0.00    +0.000 C 
ATOM      3  N   UNL     1       0.211  10.040  20.096  0.00  0.00    +0.000 N 
ATOM      4  C   UNL     1       0.779   9.648  18.794  0.00  0.00    +0.000 C 
ATOM      5  C   UNL     1       2.070   8.780  18.917  0.00  0.00    +0.000 C 
ATOM      6  N   UNL     1       1.883   7.707  19.907  0.00  0.00    +0.000 N 
ATOM      7  C   UNL     1       1.451   8.180  21.228  0.00  0.00    +0.000 C 
ATOM      8  C   UNL     1       0.136   8.950  21.087  0.00  0.00    +0.000 C 
ENDROOT
BRANCH   6   9
ATOM      9  C   UNL     1       2.061   6.368  19.627  0.00  0.00    +0.000 A 
ATOM     10  C   UNL     1       1.797   5.369  20.571  0.00  0.00    +0.000 A 
ATOM     11  C   UNL     1       1.982   4.014  20.277  0.00  0.00    +0.000 A 
ATOM     12  C   UNL     1       2.440   3.645  19.015  0.00  0.00    +0.000 A 
ATOM     13  N   UNL     1       2.709   4.584  18.067  0.00  0.00    +0.000 NA
ATOM     14  C   UNL     1       2.517   5.892  18.397  0.00  0.00    +0.000 A 
BRANCH  12  15
ATOM     15  C   UNL     1       2.645   2.173  18.680  0.00  0.00    +0.000 C 
ATOM     16  F   UNL     1       1.748   1.352  19.312  0.00  0.00    +0.000 F 
ATOM     17  F   UNL     1       2.503   1.901  17.351  0.00  0.00    +0.000 F 
ATOM     18  F   UNL     1       3.873   1.706  19.039  0.00  0.00    +0.000 F 
ENDBRANCH  12  15
ENDBRANCH   6   9
BRANCH   2  19
ATOM     19  C   UNL     1      -0.947  12.196  19.297  0.00  0.00    +0.000 C 
BRANCH  19  20
ATOM     20  C   UNL     1      -2.450  11.987  18.992  0.00  0.00    +0.000 A 
ATOM     21  C   UNL     1      -2.881  11.235  17.879  0.00  0.00    +0.000 A 
ATOM     22  C   UNL     1      -4.241  11.048  17.611  0.00  0.00    +0.000 A 
ATOM     23  C   UNL     1      -5.194  11.593  18.462  0.00  0.00    +0.000 A 
ATOM     24 CL   UNL     1      -6.866  11.357  18.142  0.00  0.00    +0.000 Cl
ATOM     25  C   UNL     1      -4.794  12.331  19.576  0.00  0.00    +0.000 A 
ATOM     26  C   UNL     1      -3.434  12.528  19.840  0.00  0.00    +0.000 A 
ENDBRANCH  19  20
BRANCH  19  27
ATOM     27  C   UNL     1      -0.643  13.648  19.647  0.00  0.00    +0.000 A 
ATOM     28  C   UNL     1      -0.331  14.636  18.728  0.00  0.00    +0.000 A 
ATOM     29  N   UNL     1       0.026  15.897  19.053  0.00  0.00    +0.000 NA
ATOM     30  C   UNL     1       0.060  16.177  20.362  0.00  0.00    +0.000 A 
ATOM     31  N   UNL     1      -0.295  15.341  21.346  0.00  0.00    +0.000 NA
ATOM     32  C   UNL     1      -0.645  14.095  20.960  0.00  0.00    +0.000 A 
ENDBRANCH  19  27
ENDBRANCH   2  19
TORSDOF 5
ENDMDL
MODEL 6
REMARK VINA RESULT:      -7.5      1.220      1.582
REMARK  Name = 
REMARK  5 active torsions:
REMARK  status: ('A' for Active; 'I' for Inactive)
REMARK    1  A    between atoms: C_2  and  C_3
REMARK    2  A    between atoms: C_3  and  C_4
REMARK    3  A    between atoms: C_3  and  C_11
REMARK    4  A    between atoms: N_20  and  C_21
REMARK    5  A    between atoms: C_24  and  C_25
REMARK                            x       y       z     vdW  Elec       q    Type
REMARK                         _______ _______ _______ _____ _____    ______ ____
ROOT
ATOM      1  O   UNL     1      -0.889  11.271  21.998  0.00  0.00    +0.000 OA
ATOM      2  C   UNL     1      -0.587  11.145  20.807  0.00  0.00    +0.000 C 
ATOM      3  N   UNL     1       0.151  10.035  20.405  0.00  0.00    +0.000 N 
ATOM      4  C   UNL     1       0.701   9.748  19.067  0.00  0.00    +0.000 C 
ATOM      5  C   UNL     1       2.007   8.895  19.105  0.00  0.00    +0.000 C 
ATOM      6  N   UNL     1       1.855   7.750  20.016  0.00  0.00    +0.000 N 
ATOM      7  C   UNL     1       1.440   8.119  21.375  0.00  0.00    +0.000 C 
ATOM      8  C   UNL     1       0.111   8.875  21.315  0.00  0.00    +0.000 C 
ENDROOT
BRANCH   6   9
ATOM      9  C   UNL     1       2.048   6.438  19.636  0.00  0.00    +0.000 A 
ATOM     10  C   UNL     1       2.485   6.092  18.353  0.00  0.00    +0.000 A 
ATOM     11  C   UNL     1       2.677   4.758  17.977  0.00  0.00    +0.000 A 
ATOM     12  C   UNL     1       2.427   3.746  18.900  0.00  0.00    +0.000 A 
ATOM     13  N   UNL     1       2.002   4.038  20.159  0.00  0.00    +0.000 NA
ATOM     14  C   UNL     1       1.826   5.351  20.481  0.00  0.00    +0.000 A 
BRANCH  12  15
ATOM     15  C   UNL     1       2.634   2.289  18.506  0.00  0.00    +0.000 C 
ATOM     16  F   UNL     1       1.886   1.421  19.257  0.00  0.00    +0.000 F 
ATOM     17  F   UNL     1       2.288   2.030  17.211  0.00  0.00    +0.000 F 
ATOM     18  F   UNL     1       3.922   1.871  18.651  0.00  0.00    +0.000 F 
ENDBRANCH  12  15
ENDBRANCH   6   9
BRANCH   2  19
ATOM     19  C   UNL     1      -1.054  12.224  19.786  0.00  0.00    +0.000 C 
BRANCH  19  20
ATOM     20  C   UNL     1      -2.512  12.624  20.117  0.00  0.00    +0.000 A 
ATOM     21  C   UNL     1      -2.817  13.475  21.199  0.00  0.00    +0.000 A 
ATOM     22  C   UNL     1      -4.137  13.834  21.491  0.00  0.00    +0.000 A 
ATOM     23  C   UNL     1      -5.174  13.363  20.695  0.00  0.00    +0.000 A 
ATOM     24 CL   UNL     1      -6.797  13.808  21.045  0.00  0.00    +0.000 Cl
ATOM     25  C   UNL     1      -4.897  12.528  19.613  0.00  0.00    +0.000 A 
ATOM     26  C   UNL     1      -3.579  12.160  19.325  0.00  0.00    +0.000 A 
ENDBRANCH  19  20
BRANCH  19  27
ATOM     27  C   UNL     1      -0.138  13.442  19.728  0.00  0.00    +0.000 A 
ATOM     28  C   UNL     1       0.956  13.650  20.552  0.00  0.00    +0.000 A 
ATOM     29  N   UNL     1       1.707  14.773  20.555  0.00  0.00    +0.000 NA
ATOM     30  C   UNL     1       1.345  15.722  19.682  0.00  0.00    +0.000 A 
ATOM     31  N   UNL     1       0.363  15.615  18.778  0.00  0.00    +0.000 NA
ATOM     32  C   UNL     1      -0.351  14.469  18.821  0.00  0.00    +0.000 A 
ENDBRANCH  19  27
ENDBRANCH   2  19
TORSDOF 5
ENDMDL
MODEL 7
REMARK VINA RESULT:      -7.5      1.835      2.287
REMARK  Name = 
REMARK  5 active torsions:
REMARK  status: ('A' for Active; 'I' for Inactive)
REMARK    1  A    between atoms: C_2  and  C_3
REMARK    2  A    between atoms: C_3  and  C_4
REMARK    3  A    between atoms: C_3  and  C_11
REMARK    4  A    between atoms: N_20  and  C_21
REMARK    5  A    between atoms: C_24  and  C_25
REMARK                            x       y       z     vdW  Elec       q    Type
REMARK                         _______ _______ _______ _____ _____    ______ ____
ROOT
ATOM      1  O   UNL     1      -0.421  11.303  22.996  0.00  0.00    +0.000 OA
ATOM      2  C   UNL     1      -0.537  11.144  21.777  0.00  0.00    +0.000 C 
ATOM      3  N   UNL     1       0.118  10.080  21.164  0.00  0.00    +0.000 N 
ATOM      4  C   UNL     1       0.198   9.773  19.724  0.00  0.00    +0.000 C 
ATOM      5  C   UNL     1       1.510   9.031  19.321  0.00  0.00    +0.000 C 
ATOM      6  N   UNL     1       1.788   7.924  20.249  0.00  0.00    +0.000 N 
ATOM      7  C   UNL     1       1.834   8.324  21.661  0.00  0.00    +0.000 C 
ATOM      8  C   UNL     1       0.502   8.966  22.052  0.00  0.00    +0.000 C 
ENDROOT
BRANCH   6   9
ATOM      9  C   UNL     1       1.960   6.615  19.849  0.00  0.00    +0.000 A 
ATOM     10  C   UNL     1       1.589   5.535  20.658  0.00  0.00    +0.000 A 
ATOM     11  C   UNL     1       1.769   4.211  20.243  0.00  0.00    +0.000 A 
ATOM     12  C   UNL     1       2.331   3.956  18.996  0.00  0.00    +0.000 A 
ATOM     13  N   UNL     1       2.705   4.977  18.177  0.00  0.00    +0.000 NA
ATOM     14  C   UNL     1       2.514   6.251  18.622  0.00  0.00    +0.000 A 
BRANCH  12  15
ATOM     15  C   UNL     1       2.530   2.520  18.530  0.00  0.00    +0.000 C 
ATOM     16  F   UNL     1       3.794   2.051  18.770  0.00  0.00    +0.000 F 
ATOM     17  F   UNL     1       1.697   1.635  19.150  0.00  0.00    +0.000 F 
ATOM     18  F   UNL     1       2.336   2.357  17.191  0.00  0.00    +0.000 F 
ENDBRANCH  12  15
ENDBRANCH   6   9
BRANCH   2  19
ATOM     19  C   UNL     1      -1.425  12.130  20.962  0.00  0.00    +0.000 C 
BRANCH  19  20
ATOM     20  C   UNL     1      -2.718  12.415  21.766  0.00  0.00    +0.000 A 
ATOM     21  C   UNL     1      -2.735  12.374  23.175  0.00  0.00    +0.000 A 
ATOM     22  C   UNL     1      -3.905  12.635  23.895  0.00  0.00    +0.000 A 
ATOM     23  C   UNL     1      -5.075  12.960  23.219  0.00  0.00    +0.000 A 
ATOM     24 CL   UNL     1      -6.513  13.290  24.100  0.00  0.00    +0.000 Cl
ATOM     25  C   UNL     1      -5.081  13.017  21.826  0.00  0.00    +0.000 A 
ATOM     26  C   UNL     1      -3.914  12.747  21.103  0.00  0.00    +0.000 A 
ENDBRANCH  19  20
BRANCH  19  27
ATOM     27  C   UNL     1      -0.708  13.420  20.579  0.00  0.00    +0.000 A 
ATOM     28  C   UNL     1      -0.055  14.257  21.469  0.00  0.00    +0.000 A 
ATOM     29  N   UNL     1       0.500  15.442  21.136  0.00  0.00    +0.000 NA
ATOM     30  C   UNL     1       0.400  15.794  19.848  0.00  0.00    +0.000 A 
ATOM     31  N   UNL     1      -0.130  15.043  18.875  0.00  0.00    +0.000 NA
ATOM     32  C   UNL     1      -0.666  13.867  19.268  0.00  0.00    +0.000 A 
ENDBRANCH  19  27
ENDBRANCH   2  19
TORSDOF 5
ENDMDL
MODEL 8
REMARK VINA RESULT:      -7.5      0.916      1.397
REMARK  Name = 
REMARK  5 active torsions:
REMARK  status: ('A' for Active; 'I' for Inactive)
REMARK    1  A    between atoms: C_2  and  C_3
REMARK    2  A    between atoms: C_3  and  C_4
REMARK    3  A    between atoms: C_3  and  C_11
REMARK    4  A    between atoms: N_20  and  C_21
REMARK    5  A    between atoms: C_24  and  C_25
REMARK                            x       y       z     vdW  Elec       q    Type
REMARK                         _______ _______ _______ _____ _____    ______ ____
ROOT
ATOM      1  O   UNL     1      -0.518  11.334  21.462  0.00  0.00    +0.000 OA
ATOM      2  C   UNL     1      -0.279  11.073  20.279  0.00  0.00    +0.000 C 
ATOM      3  N   UNL     1       0.423   9.912  19.966  0.00  0.00    +0.000 N 
ATOM      4  C   UNL     1       0.899   9.470  18.643  0.00  0.00    +0.000 C 
ATOM      5  C   UNL     1       2.194   8.602  18.710  0.00  0.00    +0.000 C 
ATOM      6  N   UNL     1       2.074   7.567  19.749  0.00  0.00    +0.000 N 
ATOM      7  C   UNL     1       1.734   8.090  21.078  0.00  0.00    +0.000 C 
ATOM      8  C   UNL     1       0.414   8.860  21.000  0.00  0.00    +0.000 C 
ENDROOT
BRANCH   6   9
ATOM      9  C   UNL     1       2.230   6.218  19.507  0.00  0.00    +0.000 A 
ATOM     10  C   UNL     1       1.479   5.249  20.182  0.00  0.00    +0.000 A 
ATOM     11  C   UNL     1       1.646   3.883  19.930  0.00  0.00    +0.000 A 
ATOM     12  C   UNL     1       2.582   3.473  18.985  0.00  0.00    +0.000 A 
ATOM     13  N   UNL     1       3.333   4.381  18.305  0.00  0.00    +0.000 NA
ATOM     14  C   UNL     1       3.139   5.701  18.584  0.00  0.00    +0.000 A 
BRANCH  12  15
ATOM     15  C   UNL     1       2.773   1.989  18.699  0.00  0.00    +0.000 C 
ATOM     16  F   UNL     1       1.982   1.188  19.478  0.00  0.00    +0.000 F 
ATOM     17  F   UNL     1       2.469   1.648  17.413  0.00  0.00    +0.000 F 
ATOM     18  F   UNL     1       4.047   1.559  18.920  0.00  0.00    +0.000 F 
ENDBRANCH  12  15
ENDBRANCH   6   9
BRANCH   2  19
ATOM     19  C   UNL     1      -0.784  12.042  19.170  0.00  0.00    +0.000 C 
BRANCH  19  20
ATOM     20  C   UNL     1      -2.317  12.207  19.313  0.00  0.00    +0.000 A 
ATOM     21  C   UNL     1      -3.208  11.708  18.341  0.00  0.00    +0.000 A 
ATOM     22  C   UNL     1      -4.592  11.857  18.479  0.00  0.00    +0.000 A 
ATOM     23  C   UNL     1      -5.110  12.493  19.601  0.00  0.00    +0.000 A 
ATOM     24 CL   UNL     1      -6.810  12.672  19.779  0.00  0.00    +0.000 Cl
ATOM     25  C   UNL     1      -4.250  12.987  20.581  0.00  0.00    +0.000 A 
ATOM     26  C   UNL     1      -2.865  12.847  20.441  0.00  0.00    +0.000 A 
ENDBRANCH  19  20
BRANCH  19  27
ATOM     27  C   UNL     1      -0.072  13.391  19.171  0.00  0.00    +0.000 A 
ATOM     28  C   UNL     1      -0.701  14.617  19.033  0.00  0.00    +0.000 A 
ATOM     29  N   UNL     1      -0.055  15.800  18.945  0.00  0.00    +0.000 NA
ATOM     30  C   UNL     1       1.281  15.744  19.007  0.00  0.00    +0.000 A 
ATOM     31  N   UNL     1       2.005  14.638  19.219  0.00  0.00    +0.000 NA
ATOM     32  C   UNL     1       1.304  13.486  19.303  0.00  0.00    +0.000 A 
ENDBRANCH  19  27
ENDBRANCH   2  19
TORSDOF 5
ENDMDL
MODEL 9
REMARK VINA RESULT:      -7.4      0.729      1.566
REMARK  Name = 
REMARK  5 active torsions:
REMARK  status: ('A' for Active; 'I' for Inactive)
REMARK    1  A    between atoms: C_2  and  C_3
REMARK    2  A    between atoms: C_3  and  C_4
REMARK    3  A    between atoms: C_3  and  C_11
REMARK    4  A    between atoms: N_20  and  C_21
REMARK    5  A    between atoms: C_24  and  C_25
REMARK                            x       y       z     vdW  Elec       q    Type
REMARK                         _______ _______ _______ _____ _____    ______ ____
ROOT
ATOM      1  O   UNL     1      -0.080  11.693  21.952  0.00  0.00    +0.000 OA
ATOM      2  C   UNL     1       0.036  11.467  20.743  0.00  0.00    +0.000 C 
ATOM      3  N   UNL     1       0.574  10.252  20.326  0.00  0.00    +0.000 N 
ATOM      4  C   UNL     1       0.893   9.827  18.952  0.00  0.00    +0.000 C 
ATOM      5  C   UNL     1       2.080   8.817  18.876  0.00  0.00    +0.000 C 
ATOM      6  N   UNL     1       1.921   7.751  19.878  0.00  0.00    +0.000 N 
ATOM      7  C   UNL     1       1.747   8.242  21.251  0.00  0.00    +0.000 C 
ATOM      8  C   UNL     1       0.523   9.157  21.313  0.00  0.00    +0.000 C 
ENDROOT
BRANCH   6   9
ATOM      9  C   UNL     1       1.902   6.407  19.568  0.00  0.00    +0.000 A 
ATOM     10  C   UNL     1       1.492   5.437  20.491  0.00  0.00    +0.000 A 
ATOM     11  C   UNL     1       1.477   4.076  20.167  0.00  0.00    +0.000 A 
ATOM     12  C   UNL     1       1.879   3.672  18.897  0.00  0.00    +0.000 A 
ATOM     13  N   UNL     1       2.284   4.581  17.970  0.00  0.00    +0.000 NA
ATOM     14  C   UNL     1       2.286   5.896  18.328  0.00  0.00    +0.000 A 
BRANCH  12  15
ATOM     15  C   UNL     1       1.866   2.193  18.530  0.00  0.00    +0.000 C 
ATOM     16  F   UNL     1       2.370   1.948  17.281  0.00  0.00    +0.000 F 
ATOM     17  F   UNL     1       2.614   1.425  19.374  0.00  0.00    +0.000 F 
ATOM     18  F   UNL     1       0.615   1.652  18.524  0.00  0.00    +0.000 F 
ENDBRANCH  12  15
ENDBRANCH   6   9
BRANCH   2  19
ATOM     19  C   UNL     1      -0.437  12.541  19.720  0.00  0.00    +0.000 C 
BRANCH  19  20
ATOM     20  C   UNL     1      -1.956  12.363  19.478  0.00  0.00    +0.000 A 
ATOM     21  C   UNL     1      -2.449  11.666  18.356  0.00  0.00    +0.000 A 
ATOM     22  C   UNL     1      -3.822  11.506  18.147  0.00  0.00    +0.000 A 
ATOM     23  C   UNL     1      -4.727  12.025  19.065  0.00  0.00    +0.000 A 
ATOM     24 CL   UNL     1      -6.416  11.824  18.815  0.00  0.00    +0.000 Cl
ATOM     25  C   UNL     1      -4.264  12.710  20.188  0.00  0.00    +0.000 A 
ATOM     26  C   UNL     1      -2.891  12.879  20.395  0.00  0.00    +0.000 A 
ENDBRANCH  19  20
BRANCH  19  27
ATOM     27  C   UNL     1      -0.099  13.968  20.136  0.00  0.00    +0.000 A 
ATOM     28  C   UNL     1      -0.151  15.071  19.299  0.00  0.00    +0.000 A 
ATOM     29  N   UNL     1       0.237  16.315  19.652  0.00  0.00    +0.000 NA
ATOM     30  C   UNL     1       0.688  16.456  20.904  0.00  0.00    +0.000 A 
ATOM     31  N   UNL     1       0.713  15.494  21.835  0.00  0.00    +0.000 NA
ATOM     32  C   UNL     1       0.311  14.272  21.426  0.00  0.00    +0.000 A 
ENDBRANCH  19  27
ENDBRANCH   2  19
TORSDOF 5
ENDMDL
