MODEL 1
REMARK VINA RESULT:      -8.6      0.000      0.000
REMARK  Name = 
REMARK  6 active torsions:
REMARK  status: ('A' for Active; 'I' for Inactive)
REMARK    1  A    between atoms: C_1  and  O_2
REMARK    2  A    between atoms: O_2  and  C_3
REMARK    3  A    between atoms: C_6  and  N_7
REMARK    4  A    between atoms: C_8  and  C_10
REMARK    5  A    between atoms: C_10  and  N_11
REMARK    6  A    between atoms: N_14  and  C_15
REMARK                            x       y       z     vdW  Elec       q    Type
REMARK                         _______ _______ _______ _____ _____    ______ ____
ROOT
ATOM      1  N   UNL     1       6.839   5.782  18.107  0.00  0.00    +0.000 N 
ATOM      2  C   UNL     1       5.825   5.515  19.113  0.00  0.00    +0.000 C 
ATOM      3  C   UNL     1       4.430   5.562  18.501  0.00  0.00    +0.000 C 
ATOM      4  N   UNL     1       4.322   4.583  17.429  0.00  0.00    +0.000 N 
ATOM      5  C   UNL     1       5.350   4.562  16.470  0.00  0.00    +0.000 C 
ATOM      6  O   UNL     1       5.313   3.892  15.444  0.00  0.00    +0.000 OA
ATOM      7  C   UNL     1       6.635   5.407  16.779  0.00  0.00    +0.000 C 
ATOM      8  O   UNL     1       7.429   5.676  15.886  0.00  0.00    +0.000 OA
ENDROOT
BRANCH   4   9
ATOM      9  C   UNL     1       3.122   3.736  17.245  0.00  0.00    +0.000 C 
ATOM     10  C   UNL     1       3.282   2.315  17.816  0.00  0.00    +0.000 C 
ATOM     11  C   UNL     1       2.962   2.169  19.302  0.00  0.00    +0.000 C 
ATOM     12  C   UNL     1       1.664   2.859  19.709  0.00  0.00    +0.000 C 
ATOM     13  C   UNL     1       1.527   4.283  19.183  0.00  0.00    +0.000 C 
ATOM     14  C   UNL     1       1.809   4.391  17.689  0.00  0.00    +0.000 C 
ENDBRANCH   4   9
BRANCH   1  15
ATOM     15  C   UNL     1       8.084   6.441  18.502  0.00  0.00    +0.000 C 
BRANCH  15  17
ATOM     16  N   UNL     1       8.951   8.666  19.053  0.00  0.00    +0.000 N 
ATOM     17  C   UNL     1       8.080   7.956  18.230  0.00  0.00    +0.000 C 
ATOM     18  O   UNL     1       7.322   8.445  17.393  0.00  0.00    +0.000 OA
ATOM     19  H   UNL     1       9.650   8.133  19.556  0.00  0.00    +0.000 HD
BRANCH  16  23
ATOM     20  C   UNL     1       9.499  12.866  19.239  0.00  0.00    +0.000 A 
ATOM     21  C   UNL     1       9.304  12.242  18.008  0.00  0.00    +0.000 A 
ATOM     22  C   UNL     1       9.099  10.861  17.930  0.00  0.00    +0.000 A 
ATOM     23  C   UNL     1       9.105  10.072  19.080  0.00  0.00    +0.000 A 
ATOM     24  C   UNL     1       9.269  10.707  20.319  0.00  0.00    +0.000 A 
ATOM     25  C   UNL     1       9.480  12.094  20.399  0.00  0.00    +0.000 A 
BRANCH  20  27
ATOM     26  C   UNL     1      10.638  14.749  20.111  0.00  0.00    +0.000 C 
ATOM     27  O   UNL     1       9.733  14.208  19.160  0.00  0.00    +0.000 OA
ENDBRANCH  20  27
ENDBRANCH  16  23
ENDBRANCH  15  17
ENDBRANCH   1  15
TORSDOF 5
ENDMDL
MODEL 2
REMARK VINA RESULT:      -7.5      1.763      2.370
REMARK  Name = 
REMARK  6 active torsions:
REMARK  status: ('A' for Active; 'I' for Inactive)
REMARK    1  A    between atoms: C_1  and  O_2
REMARK    2  A    between atoms: O_2  and  C_3
REMARK    3  A    between atoms: C_6  and  N_7
REMARK    4  A    between atoms: C_8  and  C_10
REMARK    5  A    between atoms: C_10  and  N_11
REMARK    6  A    between atoms: N_14  and  C_15
REMARK                            x       y       z     vdW  Elec       q    Type
REMARK                         _______ _______ _______ _____ _____    ______ ____
ROOT
ATOM      1  N   UNL     1       5.543   5.908  17.597  0.00  0.00    +0.000 N 
ATOM      2  C   UNL     1       5.347   4.617  18.234  0.00  0.00    +0.000 C 
ATOM      3  C   UNL     1       4.320   4.717  19.356  0.00  0.00    +0.000 C 
ATOM      4  N   UNL     1       3.051   5.196  18.828  0.00  0.00    +0.000 N 
ATOM      5  C   UNL     1       3.085   6.334  18.001  0.00  0.00    +0.000 C 
ATOM      6  O   UNL     1       2.083   6.923  17.610  0.00  0.00    +0.000 OA
ATOM      7  C   UNL     1       4.494   6.824  17.517  0.00  0.00    +0.000 C 
ATOM      8  O   UNL     1       4.632   7.951  17.054  0.00  0.00    +0.000 OA
ENDROOT
BRANCH   4   9
ATOM      9  C   UNL     1       1.750   4.625  19.245  0.00  0.00    +0.000 C 
ATOM     10  C   UNL     1       1.507   3.201  18.711  0.00  0.00    +0.000 C 
ATOM     11  C   UNL     1       2.095   2.076  19.560  0.00  0.00    +0.000 C 
ATOM     12  C   UNL     1       1.812   2.236  21.050  0.00  0.00    +0.000 C 
ATOM     13  C   UNL     1       2.098   3.634  21.589  0.00  0.00    +0.000 C 
ATOM     14  C   UNL     1       1.463   4.734  20.747  0.00  0.00    +0.000 C 
ENDBRANCH   4   9
BRANCH   1  15
ATOM     15  C   UNL     1       6.851   6.237  17.029  0.00  0.00    +0.000 C 
BRANCH  15  17
ATOM     16  N   UNL     1       7.608   8.526  17.466  0.00  0.00    +0.000 N 
ATOM     17  C   UNL     1       7.665   7.205  17.905  0.00  0.00    +0.000 C 
ATOM     18  O   UNL     1       8.328   6.791  18.855  0.00  0.00    +0.000 OA
ATOM     19  H   UNL     1       6.882   8.761  16.800  0.00  0.00    +0.000 HD
BRANCH  16  23
ATOM     20  C   UNL     1       9.614  11.879  19.112  0.00  0.00    +0.000 A 
ATOM     21  C   UNL     1       9.735  10.628  19.715  0.00  0.00    +0.000 A 
ATOM     22  C   UNL     1       9.099   9.507  19.173  0.00  0.00    +0.000 A 
ATOM     23  C   UNL     1       8.312   9.617  18.027  0.00  0.00    +0.000 A 
ATOM     24  C   UNL     1       8.217  10.869  17.405  0.00  0.00    +0.000 A 
ATOM     25  C   UNL     1       8.852  11.998  17.951  0.00  0.00    +0.000 A 
BRANCH  20  27
ATOM     26  C   UNL     1      10.011  12.973  21.174  0.00  0.00    +0.000 C 
ATOM     27  O   UNL     1      10.248  12.888  19.775  0.00  0.00    +0.000 OA
ENDBRANCH  20  27
ENDBRANCH  16  23
ENDBRANCH  15  17
ENDBRANCH   1  15
TORSDOF 5
ENDMDL
MODEL 3
REMARK VINA RESULT:      -7.4      1.755      2.195
REMARK  Name = 
REMARK  6 active torsions:
REMARK  status: ('A' for Active; 'I' for Inactive)
REMARK    1  A    between atoms: C_1  and  O_2
REMARK    2  A    between atoms: O_2  and  C_3
REMARK    3  A    between atoms: C_6  and  N_7
REMARK    4  A    between atoms: C_8  and  C_10
REMARK    5  A    between atoms: C_10  and  N_11
REMARK    6  A    between atoms: N_14  and  C_15
REMARK                            x       y       z     vdW  Elec       q    Type
REMARK                         _______ _______ _______ _____ _____    ______ ____
ROOT
ATOM      1  N   UNL     1       5.575   5.886  17.609  0.00  0.00    +0.000 N 
ATOM      2  C   UNL     1       5.359   4.575  18.198  0.00  0.00    +0.000 C 
ATOM      3  C   UNL     1       4.327   4.648  19.318  0.00  0.00    +0.000 C 
ATOM      4  N   UNL     1       3.067   5.162  18.801  0.00  0.00    +0.000 N 
ATOM      5  C   UNL     1       3.121   6.328  18.015  0.00  0.00    +0.000 C 
ATOM      6  O   UNL     1       2.129   6.944  17.640  0.00  0.00    +0.000 OA
ATOM      7  C   UNL     1       4.538   6.817  17.556  0.00  0.00    +0.000 C 
ATOM      8  O   UNL     1       4.694   7.957  17.134  0.00  0.00    +0.000 OA
ENDROOT
BRANCH   4   9
ATOM      9  C   UNL     1       1.757   4.594  19.191  0.00  0.00    +0.000 C 
ATOM     10  C   UNL     1       1.535   3.159  18.677  0.00  0.00    +0.000 C 
ATOM     11  C   UNL     1       2.102   2.053  19.563  0.00  0.00    +0.000 C 
ATOM     12  C   UNL     1       1.775   2.240  21.042  0.00  0.00    +0.000 C 
ATOM     13  C   UNL     1       2.040   3.648  21.562  0.00  0.00    +0.000 C 
ATOM     14  C   UNL     1       1.426   4.730  20.681  0.00  0.00    +0.000 C 
ENDBRANCH   4   9
BRANCH   1  15
ATOM     15  C   UNL     1       6.890   6.217  17.060  0.00  0.00    +0.000 C 
BRANCH  15  17
ATOM     16  N   UNL     1       7.603   8.530  17.442  0.00  0.00    +0.000 N 
ATOM     17  C   UNL     1       7.670   7.224  17.923  0.00  0.00    +0.000 C 
ATOM     18  O   UNL     1       8.318   6.850  18.899  0.00  0.00    +0.000 OA
ATOM     19  H   UNL     1       6.889   8.733  16.754  0.00  0.00    +0.000 HD
BRANCH  16  23
ATOM     20  C   UNL     1       9.730  11.801  19.102  0.00  0.00    +0.000 A 
ATOM     21  C   UNL     1       8.922  11.990  17.982  0.00  0.00    +0.000 A 
ATOM     22  C   UNL     1       8.196  10.928  17.435  0.00  0.00    +0.000 A 
ATOM     23  C   UNL     1       8.278   9.649  17.985  0.00  0.00    +0.000 A 
ATOM     24  C   UNL     1       9.066   9.468  19.130  0.00  0.00    +0.000 A 
ATOM     25  C   UNL     1       9.800  10.534  19.678  0.00  0.00    +0.000 A 
BRANCH  20  27
ATOM     26  C   UNL     1      10.625  13.910  18.508  0.00  0.00    +0.000 C 
ATOM     27  O   UNL     1      10.414  12.913  19.497  0.00  0.00    +0.000 OA
ENDBRANCH  20  27
ENDBRANCH  16  23
ENDBRANCH  15  17
ENDBRANCH   1  15
TORSDOF 5
ENDMDL
MODEL 4
REMARK VINA RESULT:      -7.4      5.966      8.434
REMARK  Name = 
REMARK  6 active torsions:
REMARK  status: ('A' for Active; 'I' for Inactive)
REMARK    1  A    between atoms: C_1  and  O_2
REMARK    2  A    between atoms: O_2  and  C_3
REMARK    3  A    between atoms: C_6  and  N_7
REMARK    4  A    between atoms: C_8  and  C_10
REMARK    5  A    between atoms: C_10  and  N_11
REMARK    6  A    between atoms: N_14  and  C_15
REMARK                            x       y       z     vdW  Elec       q    Type
REMARK                         _______ _______ _______ _____ _____    ______ ____
ROOT
ATOM      1  N   UNL     1       2.107   7.678  19.927  0.00  0.00    +0.000 N 
ATOM      2  C   UNL     1       2.130   6.315  20.431  0.00  0.00    +0.000 C 
ATOM      3  C   UNL     1       1.967   5.315  19.293  0.00  0.00    +0.000 C 
ATOM      4  N   UNL     1       3.034   5.491  18.319  0.00  0.00    +0.000 N 
ATOM      5  C   UNL     1       3.292   6.801  17.876  0.00  0.00    +0.000 C 
ATOM      6  O   UNL     1       4.059   7.072  16.958  0.00  0.00    +0.000 OA
ATOM      7  C   UNL     1       2.594   7.970  18.653  0.00  0.00    +0.000 C 
ATOM      8  O   UNL     1       2.528   9.090  18.159  0.00  0.00    +0.000 OA
ENDROOT
BRANCH   4   9
ATOM      9  C   UNL     1       3.733   4.347  17.690  0.00  0.00    +0.000 C 
ATOM     10  C   UNL     1       4.772   3.682  18.612  0.00  0.00    +0.000 C 
ATOM     11  C   UNL     1       4.220   2.621  19.560  0.00  0.00    +0.000 C 
ATOM     12  C   UNL     1       3.277   1.635  18.876  0.00  0.00    +0.000 C 
ATOM     13  C   UNL     1       2.218   2.296  18.000  0.00  0.00    +0.000 C 
ATOM     14  C   UNL     1       2.803   3.319  17.034  0.00  0.00    +0.000 C 
ENDBRANCH   4   9
BRANCH   1  15
ATOM     15  C   UNL     1       1.577   8.747  20.774  0.00  0.00    +0.000 C 
BRANCH  15  17
ATOM     16  N   UNL     1      -0.061   9.982  19.433  0.00  0.00    +0.000 N 
ATOM     17  C   UNL     1       0.103   9.078  20.480  0.00  0.00    +0.000 C 
ATOM     18  O   UNL     1      -0.800   8.605  21.170  0.00  0.00    +0.000 OA
ATOM     19  H   UNL     1       0.738  10.141  18.831  0.00  0.00    +0.000 HD
BRANCH  16  23
ATOM     20  C   UNL     1      -3.788  11.476  18.073  0.00  0.00    +0.000 A 
ATOM     21  C   UNL     1      -3.140  12.087  19.146  0.00  0.00    +0.000 A 
ATOM     22  C   UNL     1      -1.900  11.622  19.593  0.00  0.00    +0.000 A 
ATOM     23  C   UNL     1      -1.290  10.523  18.990  0.00  0.00    +0.000 A 
ATOM     24  C   UNL     1      -1.928   9.930  17.891  0.00  0.00    +0.000 A 
ATOM     25  C   UNL     1      -3.177  10.394  17.443  0.00  0.00    +0.000 A 
BRANCH  20  27
ATOM     26  C   UNL     1      -6.138  11.192  18.068  0.00  0.00    +0.000 C 
ATOM     27  O   UNL     1      -5.010  12.005  17.777  0.00  0.00    +0.000 OA
ENDBRANCH  20  27
ENDBRANCH  16  23
ENDBRANCH  15  17
ENDBRANCH   1  15
TORSDOF 5
ENDMDL
MODEL 5
REMARK VINA RESULT:      -7.3      1.557      2.049
REMARK  Name = 
REMARK  6 active torsions:
REMARK  status: ('A' for Active; 'I' for Inactive)
REMARK    1  A    between atoms: C_1  and  O_2
REMARK    2  A    between atoms: O_2  and  C_3
REMARK    3  A    between atoms: C_6  and  N_7
REMARK    4  A    between atoms: C_8  and  C_10
REMARK    5  A    between atoms: C_10  and  N_11
REMARK    6  A    between atoms: N_14  and  C_15
REMARK                            x       y       z     vdW  Elec       q    Type
REMARK                         _______ _______ _______ _____ _____    ______ ____
ROOT
ATOM      1  N   UNL     1       6.166   6.297  17.703  0.00  0.00    +0.000 N 
ATOM      2  C   UNL     1       4.843   6.876  17.868  0.00  0.00    +0.000 C 
ATOM      3  C   UNL     1       3.772   5.792  17.849  0.00  0.00    +0.000 C 
ATOM      4  N   UNL     1       4.018   4.829  18.913  0.00  0.00    +0.000 N 
ATOM      5  C   UNL     1       5.324   4.319  19.031  0.00  0.00    +0.000 C 
ATOM      6  O   UNL     1       5.633   3.402  19.785  0.00  0.00    +0.000 OA
ATOM      7  C   UNL     1       6.444   5.018  18.185  0.00  0.00    +0.000 C 
ATOM      8  O   UNL     1       7.521   4.462  18.005  0.00  0.00    +0.000 OA
ENDROOT
BRANCH   4   9
ATOM      9  C   UNL     1       2.930   4.277  19.752  0.00  0.00    +0.000 C 
ATOM     10  C   UNL     1       1.522   4.621  19.233  0.00  0.00    +0.000 C 
ATOM     11  C   UNL     1       0.968   3.674  18.171  0.00  0.00    +0.000 C 
ATOM     12  C   UNL     1       1.159   2.201  18.521  0.00  0.00    +0.000 C 
ATOM     13  C   UNL     1       2.567   1.852  18.989  0.00  0.00    +0.000 C 
ATOM     14  C   UNL     1       3.076   2.787  20.080  0.00  0.00    +0.000 C 
ENDBRANCH   4   9
BRANCH   1  15
ATOM     15  C   UNL     1       7.210   7.074  17.034  0.00  0.00    +0.000 C 
BRANCH  15  17
ATOM     16  N   UNL     1       7.983   9.321  17.629  0.00  0.00    +0.000 N 
ATOM     17  C   UNL     1       8.002   7.977  17.995  0.00  0.00    +0.000 C 
ATOM     18  O   UNL     1       8.617   7.500  18.948  0.00  0.00    +0.000 OA
ATOM     19  H   UNL     1       7.290   9.605  16.947  0.00  0.00    +0.000 HD
BRANCH  16  23
ATOM     20  C   UNL     1      10.160  12.363  19.625  0.00  0.00    +0.000 A 
ATOM     21  C   UNL     1       9.558  12.628  18.396  0.00  0.00    +0.000 A 
ATOM     22  C   UNL     1       8.818  11.643  17.734  0.00  0.00    +0.000 A 
ATOM     23  C   UNL     1       8.680  10.367  18.279  0.00  0.00    +0.000 A 
ATOM     24  C   UNL     1       9.259  10.113  19.530  0.00  0.00    +0.000 A 
ATOM     25  C   UNL     1      10.007  11.100  20.194  0.00  0.00    +0.000 A 
BRANCH  20  27
ATOM     26  C   UNL     1      11.991  13.837  19.351  0.00  0.00    +0.000 C 
ATOM     27  O   UNL     1      10.888  13.400  20.131  0.00  0.00    +0.000 OA
ENDBRANCH  20  27
ENDBRANCH  16  23
ENDBRANCH  15  17
ENDBRANCH   1  15
TORSDOF 5
ENDMDL
MODEL 6
REMARK VINA RESULT:      -7.3      6.737      9.113
REMARK  Name = 
REMARK  6 active torsions:
REMARK  status: ('A' for Active; 'I' for Inactive)
REMARK    1  A    between atoms: C_1  and  O_2
REMARK    2  A    between atoms: O_2  and  C_3
REMARK    3  A    between atoms: C_6  and  N_7
REMARK    4  A    between atoms: C_8  and  C_10
REMARK    5  A    between atoms: C_10  and  N_11
REMARK    6  A    between atoms: N_14  and  C_15
REMARK                            x       y       z     vdW  Elec       q    Type
REMARK                         _______ _______ _______ _____ _____    ______ ____
ROOT
ATOM      1  N   UNL     1       1.640   8.962  19.439  0.00  0.00    +0.000 N 
ATOM      2  C   UNL     1       1.550   8.205  20.677  0.00  0.00    +0.000 C 
ATOM      3  C   UNL     1       1.325   6.725  20.390  0.00  0.00    +0.000 C 
ATOM      4  N   UNL     1       2.415   6.203  19.579  0.00  0.00    +0.000 N 
ATOM      5  C   UNL     1       2.780   6.941  18.438  0.00  0.00    +0.000 C 
ATOM      6  O   UNL     1       3.578   6.545  17.595  0.00  0.00    +0.000 OA
ATOM      7  C   UNL     1       2.165   8.376  18.288  0.00  0.00    +0.000 C 
ATOM      8  O   UNL     1       2.194   8.951  17.206  0.00  0.00    +0.000 OA
ENDROOT
BRANCH   4   9
ATOM      9  C   UNL     1       3.030   4.880  19.831  0.00  0.00    +0.000 C 
ATOM     10  C   UNL     1       2.460   4.166  21.071  0.00  0.00    +0.000 C 
ATOM     11  C   UNL     1       1.190   3.354  20.830  0.00  0.00    +0.000 C 
ATOM     12  C   UNL     1       1.265   2.472  19.587  0.00  0.00    +0.000 C 
ATOM     13  C   UNL     1       1.785   3.192  18.347  0.00  0.00    +0.000 C 
ATOM     14  C   UNL     1       3.077   3.959  18.606  0.00  0.00    +0.000 C 
ENDBRANCH   4   9
BRANCH   1  15
ATOM     15  C   UNL     1       1.185  10.352  19.415  0.00  0.00    +0.000 C 
BRANCH  15  17
ATOM     16  N   UNL     1      -0.857  10.828  18.146  0.00  0.00    +0.000 N 
ATOM     17  C   UNL     1      -0.348  10.486  19.397  0.00  0.00    +0.000 C 
ATOM     18  O   UNL     1      -1.006  10.350  20.428  0.00  0.00    +0.000 OA
ATOM     19  H   UNL     1      -0.240  10.720  17.351  0.00  0.00    +0.000 HD
BRANCH  16  23
ATOM     20  C   UNL     1      -4.917  11.727  17.321  0.00  0.00    +0.000 A 
ATOM     21  C   UNL     1      -4.136  11.085  16.362  0.00  0.00    +0.000 A 
ATOM     22  C   UNL     1      -2.802  10.761  16.625  0.00  0.00    +0.000 A 
ATOM     23  C   UNL     1      -2.215  11.089  17.846  0.00  0.00    +0.000 A 
ATOM     24  C   UNL     1      -3.011  11.706  18.821  0.00  0.00    +0.000 A 
ATOM     25  C   UNL     1      -4.351  12.037  18.556  0.00  0.00    +0.000 A 
BRANCH  20  27
ATOM     26  C   UNL     1      -7.012  12.697  17.848  0.00  0.00    +0.000 C 
ATOM     27  O   UNL     1      -6.184  12.024  16.910  0.00  0.00    +0.000 OA
ENDBRANCH  20  27
ENDBRANCH  16  23
ENDBRANCH  15  17
ENDBRANCH   1  15
TORSDOF 5
ENDMDL
MODEL 7
REMARK VINA RESULT:      -7.3      6.156      8.653
REMARK  Name = 
REMARK  6 active torsions:
REMARK  status: ('A' for Active; 'I' for Inactive)
REMARK    1  A    between atoms: C_1  and  O_2
REMARK    2  A    between atoms: O_2  and  C_3
REMARK    3  A    between atoms: C_6  and  N_7
REMARK    4  A    between atoms: C_8  and  C_10
REMARK    5  A    between atoms: C_10  and  N_11
REMARK    6  A    between atoms: N_14  and  C_15
REMARK                            x       y       z     vdW  Elec       q    Type
REMARK                         _______ _______ _______ _____ _____    ______ ____
ROOT
ATOM      1  N   UNL     1       2.084   8.197  19.555  0.00  0.00    +0.000 N 
ATOM      2  C   UNL     1       2.184   6.994  20.364  0.00  0.00    +0.000 C 
ATOM      3  C   UNL     1       2.067   5.747  19.496  0.00  0.00    +0.000 C 
ATOM      4  N   UNL     1       3.117   5.743  18.486  0.00  0.00    +0.000 N 
ATOM      5  C   UNL     1       3.301   6.924  17.744  0.00  0.00    +0.000 C 
ATOM      6  O   UNL     1       4.045   7.010  16.773  0.00  0.00    +0.000 OA
ATOM      7  C   UNL     1       2.546   8.206  18.239  0.00  0.00    +0.000 C 
ATOM      8  O   UNL     1       2.416   9.173  17.498  0.00  0.00    +0.000 OA
ENDROOT
BRANCH   4   9
ATOM      9  C   UNL     1       3.871   4.521  18.130  0.00  0.00    +0.000 C 
ATOM     10  C   UNL     1       4.437   3.772  19.351  0.00  0.00    +0.000 C 
ATOM     11  C   UNL     1       3.474   2.793  20.019  0.00  0.00    +0.000 C 
ATOM     12  C   UNL     1       2.742   1.896  19.026  0.00  0.00    +0.000 C 
ATOM     13  C   UNL     1       2.142   2.644  17.841  0.00  0.00    +0.000 C 
ATOM     14  C   UNL     1       3.137   3.581  17.166  0.00  0.00    +0.000 C 
ENDBRANCH   4   9
BRANCH   1  15
ATOM     15  C   UNL     1       1.503   9.407  20.138  0.00  0.00    +0.000 C 
BRANCH  15  17
ATOM     16  N   UNL     1      -0.369  10.219  18.781  0.00  0.00    +0.000 N 
ATOM     17  C   UNL     1      -0.018   9.510  19.928  0.00  0.00    +0.000 C 
ATOM     18  O   UNL     1      -0.802   9.042  20.752  0.00  0.00    +0.000 OA
ATOM     19  H   UNL     1       0.359  10.380  18.096  0.00  0.00    +0.000 HD
BRANCH  16  23
ATOM     20  C   UNL     1      -4.290  11.299  17.585  0.00  0.00    +0.000 A 
ATOM     21  C   UNL     1      -3.623  10.263  16.934  0.00  0.00    +0.000 A 
ATOM     22  C   UNL     1      -2.338   9.879  17.330  0.00  0.00    +0.000 A 
ATOM     23  C   UNL     1      -1.686  10.535  18.373  0.00  0.00    +0.000 A 
ATOM     24  C   UNL     1      -2.372  11.556  19.046  0.00  0.00    +0.000 A 
ATOM     25  C   UNL     1      -3.662  11.946  18.646  0.00  0.00    +0.000 A 
BRANCH  20  27
ATOM     26  C   UNL     1      -6.602  11.629  17.976  0.00  0.00    +0.000 C 
ATOM     27  O   UNL     1      -5.515  11.596  17.062  0.00  0.00    +0.000 OA
ENDBRANCH  20  27
ENDBRANCH  16  23
ENDBRANCH  15  17
ENDBRANCH   1  15
TORSDOF 5
ENDMDL
MODEL 8
REMARK VINA RESULT:      -7.3      6.970      8.737
REMARK  Name = 
REMARK  6 active torsions:
REMARK  status: ('A' for Active; 'I' for Inactive)
REMARK    1  A    between atoms: C_1  and  O_2
REMARK    2  A    between atoms: O_2  and  C_3
REMARK    3  A    between atoms: C_6  and  N_7
REMARK    4  A    between atoms: C_8  and  C_10
REMARK    5  A    between atoms: C_10  and  N_11
REMARK    6  A    between atoms: N_14  and  C_15
REMARK                            x       y       z     vdW  Elec       q    Type
REMARK                         _______ _______ _______ _____ _____    ______ ____
ROOT
ATOM      1  N   UNL     1       1.701   8.971  19.338  0.00  0.00    +0.000 N 
ATOM      2  C   UNL     1       1.577   8.274  20.607  0.00  0.00    +0.000 C 
ATOM      3  C   UNL     1       1.335   6.785  20.385  0.00  0.00    +0.000 C 
ATOM      4  N   UNL     1       2.433   6.211  19.620  0.00  0.00    +0.000 N 
ATOM      5  C   UNL     1       2.830   6.890  18.454  0.00  0.00    +0.000 C 
ATOM      6  O   UNL     1       3.637   6.444  17.646  0.00  0.00    +0.000 OA
ATOM      7  C   UNL     1       2.239   8.325  18.225  0.00  0.00    +0.000 C 
ATOM      8  O   UNL     1       2.296   8.849  17.119  0.00  0.00    +0.000 OA
ENDROOT
BRANCH   4   9
ATOM      9  C   UNL     1       3.024   4.893  19.945  0.00  0.00    +0.000 C 
ATOM     10  C   UNL     1       2.366   4.209  21.158  0.00  0.00    +0.000 C 
ATOM     11  C   UNL     1       1.113   3.395  20.848  0.00  0.00    +0.000 C 
ATOM     12  C   UNL     1       1.272   2.484  19.634  0.00  0.00    +0.000 C 
ATOM     13  C   UNL     1       1.879   3.174  18.417  0.00  0.00    +0.000 C 
ATOM     14  C   UNL     1       3.153   3.944  18.748  0.00  0.00    +0.000 C 
ENDBRANCH   4   9
BRANCH   1  15
ATOM     15  C   UNL     1       1.266  10.365  19.240  0.00  0.00    +0.000 C 
BRANCH  15  17
ATOM     16  N   UNL     1      -0.242  11.510  20.795  0.00  0.00    +0.000 N 
ATOM     17  C   UNL     1      -0.167  10.589  19.753  0.00  0.00    +0.000 C 
ATOM     18  O   UNL     1      -1.111   9.950  19.289  0.00  0.00    +0.000 OA
ATOM     19  H   UNL     1       0.566  12.100  20.949  0.00  0.00    +0.000 HD
BRANCH  16  23
ATOM     20  C   UNL     1      -3.821  12.533  22.824  0.00  0.00    +0.000 A 
ATOM     21  C   UNL     1      -2.788  11.897  23.510  0.00  0.00    +0.000 A 
ATOM     22  C   UNL     1      -1.592  11.573  22.863  0.00  0.00    +0.000 A 
ATOM     23  C   UNL     1      -1.412  11.860  21.510  0.00  0.00    +0.000 A 
ATOM     24  C   UNL     1      -2.440  12.527  20.830  0.00  0.00    +0.000 A 
ATOM     25  C   UNL     1      -3.645  12.850  21.479  0.00  0.00    +0.000 A 
BRANCH  20  27
ATOM     26  C   UNL     1      -4.853  12.439  24.953  0.00  0.00    +0.000 C 
ATOM     27  O   UNL     1      -4.945  12.746  23.569  0.00  0.00    +0.000 OA
ENDBRANCH  20  27
ENDBRANCH  16  23
ENDBRANCH  15  17
ENDBRANCH   1  15
TORSDOF 5
ENDMDL
MODEL 9
REMARK VINA RESULT:      -7.2      6.954      9.397
REMARK  Name = 
REMARK  6 active torsions:
REMARK  status: ('A' for Active; 'I' for Inactive)
REMARK    1  A    between atoms: C_1  and  O_2
REMARK    2  A    between atoms: O_2  and  C_3
REMARK    3  A    between atoms: C_6  and  N_7
REMARK    4  A    between atoms: C_8  and  C_10
REMARK    5  A    between atoms: C_10  and  N_11
REMARK    6  A    between atoms: N_14  and  C_15
REMARK                            x       y       z     vdW  Elec       q    Type
REMARK                         _______ _______ _______ _____ _____    ______ ____
ROOT
ATOM      1  N   UNL     1       1.427   9.329  20.022  0.00  0.00    +0.000 N 
ATOM      2  C   UNL     1       1.471   8.410  21.147  0.00  0.00    +0.000 C 
ATOM      3  C   UNL     1       1.218   6.979  20.686  0.00  0.00    +0.000 C 
ATOM      4  N   UNL     1       2.216   6.589  19.701  0.00  0.00    +0.000 N 
ATOM      5  C   UNL     1       2.457   7.481  18.640  0.00  0.00    +0.000 C 
ATOM      6  O   UNL     1       3.160   7.215  17.671  0.00  0.00    +0.000 OA
ATOM      7  C   UNL     1       1.827   8.913  18.752  0.00  0.00    +0.000 C 
ATOM      8  O   UNL     1       1.739   9.630  17.762  0.00  0.00    +0.000 OA
ENDROOT
BRANCH   4   9
ATOM      9  C   UNL     1       2.856   5.254  19.704  0.00  0.00    +0.000 C 
ATOM     10  C   UNL     1       2.458   4.387  20.912  0.00  0.00    +0.000 C 
ATOM     11  C   UNL     1       1.165   3.592  20.747  0.00  0.00    +0.000 C 
ATOM     12  C   UNL     1       1.069   2.870  19.407  0.00  0.00    +0.000 C 
ATOM     13  C   UNL     1       1.417   3.742  18.206  0.00  0.00    +0.000 C 
ATOM     14  C   UNL     1       2.734   4.490  18.380  0.00  0.00    +0.000 C 
ENDBRANCH   4   9
BRANCH   1  15
ATOM     15  C   UNL     1       0.969  10.702  20.235  0.00  0.00    +0.000 C 
BRANCH  15  17
ATOM     16  N   UNL     1      -1.099  10.938  18.943  0.00  0.00    +0.000 N 
ATOM     17  C   UNL     1      -0.564  10.838  20.225  0.00  0.00    +0.000 C 
ATOM     18  O   UNL     1      -1.199  10.902  21.277  0.00  0.00    +0.000 OA
ATOM     19  H   UNL     1      -0.499  10.679  18.169  0.00  0.00    +0.000 HD
BRANCH  16  23
ATOM     20  C   UNL     1      -5.199  11.421  17.978  0.00  0.00    +0.000 A 
ATOM     21  C   UNL     1      -4.610  12.233  18.946  0.00  0.00    +0.000 A 
ATOM     22  C   UNL     1      -3.254  12.103  19.261  0.00  0.00    +0.000 A 
ATOM     23  C   UNL     1      -2.463  11.144  18.628  0.00  0.00    +0.000 A 
ATOM     24  C   UNL     1      -3.050  10.351  17.633  0.00  0.00    +0.000 A 
ATOM     25  C   UNL     1      -4.414  10.478  17.319  0.00  0.00    +0.000 A 
BRANCH  20  27
ATOM     26  C   UNL     1      -6.918  12.861  17.217  0.00  0.00    +0.000 C 
ATOM     27  O   UNL     1      -6.537  11.627  17.809  0.00  0.00    +0.000 OA
ENDBRANCH  20  27
ENDBRANCH  16  23
ENDBRANCH  15  17
ENDBRANCH   1  15
TORSDOF 5
ENDMDL
