MODEL 1
REMARK VINA RESULT:      -6.7      0.000      0.000
REMARK  Name = 
REMARK  13 active torsions:
REMARK  status: ('A' for Active; 'I' for Inactive)
REMARK    1  A    between atoms: C_1  and  N_2
REMARK    2  A    between atoms: N_2  and  C_3
REMARK    3  A    between atoms: N_2  and  C_4
REMARK    4  A    between atoms: C_4  and  C_5
REMARK    5  A    between atoms: C_5  and  C_6
REMARK    6  A    between atoms: C_6  and  C_7
REMARK    7  A    between atoms: C_7  and  C_8
REMARK    8  A    between atoms: C_7  and  C_9
REMARK    9  A    between atoms: C_7  and  C_10
REMARK   10  A    between atoms: C_13  and  C_14
REMARK   11  A    between atoms: C_14  and  C_15
REMARK   12  A    between atoms: C_14  and  C_16
REMARK   13  A    between atoms: C_14  and  C_17
REMARK                            x       y       z     vdW  Elec       q    Type
REMARK                         _______ _______ _______ _____ _____    ______ ____
ROOT
ATOM      1  C   UNL     1       5.028   4.920  17.558  0.00  0.00    +0.000 A 
ATOM      2  C   UNL     1       4.751   5.428  18.831  0.00  0.00    +0.000 A 
ATOM      3  C   UNL     1       3.693   4.940  19.604  0.00  0.00    +0.000 A 
ATOM      4  C   UNL     1       2.856   3.919  19.142  0.00  0.00    +0.000 A 
ATOM      5  C   UNL     1       3.140   3.392  17.870  0.00  0.00    +0.000 A 
ATOM      6  C   UNL     1       4.198   3.885  17.093  0.00  0.00    +0.000 A 
ENDROOT
BRANCH   4   7
ATOM      7  C   UNL     1       1.659   3.413  19.961  0.00  0.00    +0.000 C 
ATOM      8  C   UNL     1       2.073   2.601  21.211  0.00  0.00    +0.000 C 
ATOM      9  C   UNL     1       0.835   4.622  20.453  0.00  0.00    +0.000 C 
ATOM     10  C   UNL     1       0.762   2.501  19.100  0.00  0.00    +0.000 C 
ENDBRANCH   4   7
BRANCH   1  11
ATOM     11  C   UNL     1       6.197   5.441  16.710  0.00  0.00    +0.000 C 
ATOM     12  C   UNL     1       7.476   4.570  16.819  0.00  0.00    +0.000 C 
ATOM     13  C   UNL     1       6.595   6.852  17.203  0.00  0.00    +0.000 C 
BRANCH  11  14
ATOM     14  C   UNL     1       5.791   5.547  15.211  0.00  0.00    +0.000 C 
BRANCH  14  15
ATOM     15  C   UNL     1       6.707   4.788  14.237  0.00  0.00    +0.000 C 
BRANCH  15  16
ATOM     16  C   UNL     1       6.031   3.543  13.643  0.00  0.00    +0.000 C 
BRANCH  16  18
ATOM     17  C   UNL     1       6.862   2.488  11.609  0.00  0.00    +0.000 C 
ATOM     18  N   UNL     1       5.994   3.522  12.171  0.00  0.00    +0.000 NA
ATOM     19  C   UNL     1       4.620   3.333  11.707  0.00  0.00    +0.000 C 
ENDBRANCH  16  18
ENDBRANCH  15  16
ENDBRANCH  14  15
ENDBRANCH  11  14
ENDBRANCH   1  11
TORSDOF 6
ENDMDL
MODEL 2
REMARK VINA RESULT:      -6.6      0.786      1.853
REMARK  Name = 
REMARK  13 active torsions:
REMARK  status: ('A' for Active; 'I' for Inactive)
REMARK    1  A    between atoms: C_1  and  N_2
REMARK    2  A    between atoms: N_2  and  C_3
REMARK    3  A    between atoms: N_2  and  C_4
REMARK    4  A    between atoms: C_4  and  C_5
REMARK    5  A    between atoms: C_5  and  C_6
REMARK    6  A    between atoms: C_6  and  C_7
REMARK    7  A    between atoms: C_7  and  C_8
REMARK    8  A    between atoms: C_7  and  C_9
REMARK    9  A    between atoms: C_7  and  C_10
REMARK   10  A    between atoms: C_13  and  C_14
REMARK   11  A    between atoms: C_14  and  C_15
REMARK   12  A    between atoms: C_14  and  C_16
REMARK   13  A    between atoms: C_14  and  C_17
REMARK                            x       y       z     vdW  Elec       q    Type
REMARK                         _______ _______ _______ _____ _____    ______ ____
ROOT
ATOM      1  C   UNL     1       4.975   4.342  17.357  0.00  0.00    +0.000 A 
ATOM      2  C   UNL     1       4.283   3.128  17.294  0.00  0.00    +0.000 A 
ATOM      3  C   UNL     1       3.205   2.850  18.140  0.00  0.00    +0.000 A 
ATOM      4  C   UNL     1       2.765   3.774  19.095  0.00  0.00    +0.000 A 
ATOM      5  C   UNL     1       3.444   5.003  19.150  0.00  0.00    +0.000 A 
ATOM      6  C   UNL     1       4.529   5.279  18.304  0.00  0.00    +0.000 A 
ENDROOT
BRANCH   4   7
ATOM      7  C   UNL     1       1.616   3.458  20.065  0.00  0.00    +0.000 C 
ATOM      8  C   UNL     1       0.867   4.718  20.556  0.00  0.00    +0.000 C 
ATOM      9  C   UNL     1       0.584   2.560  19.351  0.00  0.00    +0.000 C 
ATOM     10  C   UNL     1       2.151   2.729  21.314  0.00  0.00    +0.000 C 
ENDBRANCH   4   7
BRANCH   1  11
ATOM     11  C   UNL     1       6.150   4.659  16.420  0.00  0.00    +0.000 C 
ATOM     12  C   UNL     1       7.531   4.615  17.124  0.00  0.00    +0.000 C 
ATOM     13  C   UNL     1       5.992   6.097  15.873  0.00  0.00    +0.000 C 
BRANCH  11  14
ATOM     14  C   UNL     1       6.173   3.679  15.210  0.00  0.00    +0.000 C 
BRANCH  14  15
ATOM     15  C   UNL     1       5.665   4.276  13.886  0.00  0.00    +0.000 C 
BRANCH  15  16
ATOM     16  C   UNL     1       6.254   3.567  12.658  0.00  0.00    +0.000 C 
BRANCH  16  18
ATOM     17  C   UNL     1       4.282   3.153  11.284  0.00  0.00    +0.000 C 
ATOM     18  N   UNL     1       5.366   2.554  12.064  0.00  0.00    +0.000 NA
ATOM     19  C   UNL     1       6.140   1.638  11.226  0.00  0.00    +0.000 C 
ENDBRANCH  16  18
ENDBRANCH  15  16
ENDBRANCH  14  15
ENDBRANCH  11  14
ENDBRANCH   1  11
TORSDOF 6
ENDMDL
MODEL 3
REMARK VINA RESULT:      -6.6      0.944      1.336
REMARK  Name = 
REMARK  13 active torsions:
REMARK  status: ('A' for Active; 'I' for Inactive)
REMARK    1  A    between atoms: C_1  and  N_2
REMARK    2  A    between atoms: N_2  and  C_3
REMARK    3  A    between atoms: N_2  and  C_4
REMARK    4  A    between atoms: C_4  and  C_5
REMARK    5  A    between atoms: C_5  and  C_6
REMARK    6  A    between atoms: C_6  and  C_7
REMARK    7  A    between atoms: C_7  and  C_8
REMARK    8  A    between atoms: C_7  and  C_9
REMARK    9  A    between atoms: C_7  and  C_10
REMARK   10  A    between atoms: C_13  and  C_14
REMARK   11  A    between atoms: C_14  and  C_15
REMARK   12  A    between atoms: C_14  and  C_16
REMARK   13  A    between atoms: C_14  and  C_17
REMARK                            x       y       z     vdW  Elec       q    Type
REMARK                         _______ _______ _______ _____ _____    ______ ____
ROOT
ATOM      1  C   UNL     1       4.812   5.028  17.196  0.00  0.00    +0.000 A 
ATOM      2  C   UNL     1       3.667   5.763  17.525  0.00  0.00    +0.000 A 
ATOM      3  C   UNL     1       2.700   5.265  18.403  0.00  0.00    +0.000 A 
ATOM      4  C   UNL     1       2.827   4.004  18.997  0.00  0.00    +0.000 A 
ATOM      5  C   UNL     1       3.984   3.269  18.685  0.00  0.00    +0.000 A 
ATOM      6  C   UNL     1       4.951   3.767  17.800  0.00  0.00    +0.000 A 
ENDROOT
BRANCH   4   7
ATOM      7  C   UNL     1       1.744   3.426  19.920  0.00  0.00    +0.000 C 
ATOM      8  C   UNL     1       2.321   2.629  21.114  0.00  0.00    +0.000 C 
ATOM      9  C   UNL     1       0.907   4.583  20.505  0.00  0.00    +0.000 C 
ATOM     10  C   UNL     1       0.820   2.472  19.137  0.00  0.00    +0.000 C 
ENDBRANCH   4   7
BRANCH   1  11
ATOM     11  C   UNL     1       5.885   5.576  16.244  0.00  0.00    +0.000 C 
ATOM     12  C   UNL     1       7.113   6.175  16.978  0.00  0.00    +0.000 C 
ATOM     13  C   UNL     1       5.282   6.727  15.404  0.00  0.00    +0.000 C 
BRANCH  11  14
ATOM     14  C   UNL     1       6.377   4.468  15.267  0.00  0.00    +0.000 C 
BRANCH  14  15
ATOM     15  C   UNL     1       5.454   4.212  14.063  0.00  0.00    +0.000 C 
BRANCH  15  16
ATOM     16  C   UNL     1       6.189   3.547  12.891  0.00  0.00    +0.000 C 
BRANCH  16  18
ATOM     17  C   UNL     1       4.314   3.248  11.362  0.00  0.00    +0.000 C 
ATOM     18  N   UNL     1       5.369   2.588  12.132  0.00  0.00    +0.000 NA
ATOM     19  C   UNL     1       6.218   1.795  11.243  0.00  0.00    +0.000 C 
ENDBRANCH  16  18
ENDBRANCH  15  16
ENDBRANCH  14  15
ENDBRANCH  11  14
ENDBRANCH   1  11
TORSDOF 6
ENDMDL
MODEL 4
REMARK VINA RESULT:      -6.6      0.495      1.675
REMARK  Name = 
REMARK  13 active torsions:
REMARK  status: ('A' for Active; 'I' for Inactive)
REMARK    1  A    between atoms: C_1  and  N_2
REMARK    2  A    between atoms: N_2  and  C_3
REMARK    3  A    between atoms: N_2  and  C_4
REMARK    4  A    between atoms: C_4  and  C_5
REMARK    5  A    between atoms: C_5  and  C_6
REMARK    6  A    between atoms: C_6  and  C_7
REMARK    7  A    between atoms: C_7  and  C_8
REMARK    8  A    between atoms: C_7  and  C_9
REMARK    9  A    between atoms: C_7  and  C_10
REMARK   10  A    between atoms: C_13  and  C_14
REMARK   11  A    between atoms: C_14  and  C_15
REMARK   12  A    between atoms: C_14  and  C_16
REMARK   13  A    between atoms: C_14  and  C_17
REMARK                            x       y       z     vdW  Elec       q    Type
REMARK                         _______ _______ _______ _____ _____    ______ ____
ROOT
ATOM      1  C   UNL     1       5.133   4.988  17.688  0.00  0.00    +0.000 A 
ATOM      2  C   UNL     1       4.068   4.333  17.060  0.00  0.00    +0.000 A 
ATOM      3  C   UNL     1       2.966   3.862  17.780  0.00  0.00    +0.000 A 
ATOM      4  C   UNL     1       2.874   4.020  19.167  0.00  0.00    +0.000 A 
ATOM      5  C   UNL     1       3.931   4.693  19.802  0.00  0.00    +0.000 A 
ATOM      6  C   UNL     1       5.039   5.162  19.080  0.00  0.00    +0.000 A 
ENDROOT
BRANCH   4   7
ATOM      7  C   UNL     1       1.693   3.458  19.974  0.00  0.00    +0.000 C 
ATOM      8  C   UNL     1       0.734   4.554  20.497  0.00  0.00    +0.000 C 
ATOM      9  C   UNL     1       0.866   2.518  19.072  0.00  0.00    +0.000 C 
ATOM     10  C   UNL     1       2.202   2.674  21.200  0.00  0.00    +0.000 C 
ENDBRANCH   4   7
BRANCH   1  11
ATOM     11  C   UNL     1       6.338   5.522  16.901  0.00  0.00    +0.000 C 
ATOM     12  C   UNL     1       7.614   4.655  17.063  0.00  0.00    +0.000 C 
ATOM     13  C   UNL     1       6.706   6.930  17.426  0.00  0.00    +0.000 C 
BRANCH  11  14
ATOM     14  C   UNL     1       6.002   5.642  15.386  0.00  0.00    +0.000 C 
BRANCH  14  15
ATOM     15  C   UNL     1       6.766   4.666  14.475  0.00  0.00    +0.000 C 
BRANCH  15  16
ATOM     16  C   UNL     1       5.865   3.556  13.915  0.00  0.00    +0.000 C 
BRANCH  16  18
ATOM     17  C   UNL     1       4.885   3.281  11.700  0.00  0.00    +0.000 C 
ATOM     18  N   UNL     1       6.110   3.239  12.498  0.00  0.00    +0.000 NA
ATOM     19  C   UNL     1       7.104   4.158  11.943  0.00  0.00    +0.000 C 
ENDBRANCH  16  18
ENDBRANCH  15  16
ENDBRANCH  14  15
ENDBRANCH  11  14
ENDBRANCH   1  11
TORSDOF 6
ENDMDL
MODEL 5
REMARK VINA RESULT:      -6.6      0.881      1.630
REMARK  Name = 
REMARK  13 active torsions:
REMARK  status: ('A' for Active; 'I' for Inactive)
REMARK    1  A    between atoms: C_1  and  N_2
REMARK    2  A    between atoms: N_2  and  C_3
REMARK    3  A    between atoms: N_2  and  C_4
REMARK    4  A    between atoms: C_4  and  C_5
REMARK    5  A    between atoms: C_5  and  C_6
REMARK    6  A    between atoms: C_6  and  C_7
REMARK    7  A    between atoms: C_7  and  C_8
REMARK    8  A    between atoms: C_7  and  C_9
REMARK    9  A    between atoms: C_7  and  C_10
REMARK   10  A    between atoms: C_13  and  C_14
REMARK   11  A    between atoms: C_14  and  C_15
REMARK   12  A    between atoms: C_14  and  C_16
REMARK   13  A    between atoms: C_14  and  C_17
REMARK                            x       y       z     vdW  Elec       q    Type
REMARK                         _______ _______ _______ _____ _____    ______ ____
ROOT
ATOM      1  C   UNL     1       5.158   5.079  17.644  0.00  0.00    +0.000 A 
ATOM      2  C   UNL     1       5.459   4.417  18.839  0.00  0.00    +0.000 A 
ATOM      3  C   UNL     1       4.469   3.794  19.605  0.00  0.00    +0.000 A 
ATOM      4  C   UNL     1       3.125   3.802  19.215  0.00  0.00    +0.000 A 
ATOM      5  C   UNL     1       2.819   4.449  18.005  0.00  0.00    +0.000 A 
ATOM      6  C   UNL     1       3.811   5.079  17.240  0.00  0.00    +0.000 A 
ENDROOT
BRANCH   4   7
ATOM      7  C   UNL     1       2.023   3.166  20.076  0.00  0.00    +0.000 C 
ATOM      8  C   UNL     1       0.898   4.157  20.458  0.00  0.00    +0.000 C 
ATOM      9  C   UNL     1       1.369   2.011  19.289  0.00  0.00    +0.000 C 
ATOM     10  C   UNL     1       2.615   2.618  21.390  0.00  0.00    +0.000 C 
ENDBRANCH   4   7
BRANCH   1  11
ATOM     11  C   UNL     1       6.242   5.752  16.790  0.00  0.00    +0.000 C 
ATOM     12  C   UNL     1       7.265   6.569  17.623  0.00  0.00    +0.000 C 
ATOM     13  C   UNL     1       5.576   6.758  15.821  0.00  0.00    +0.000 C 
BRANCH  11  14
ATOM     14  C   UNL     1       7.013   4.699  15.942  0.00  0.00    +0.000 C 
BRANCH  14  15
ATOM     15  C   UNL     1       6.782   4.797  14.425  0.00  0.00    +0.000 C 
BRANCH  15  16
ATOM     16  C   UNL     1       5.787   3.745  13.913  0.00  0.00    +0.000 C 
BRANCH  16  18
ATOM     17  C   UNL     1       4.855   3.271  11.711  0.00  0.00    +0.000 C 
ATOM     18  N   UNL     1       6.057   3.276  12.544  0.00  0.00    +0.000 NA
ATOM     19  C   UNL     1       7.094   4.103  11.926  0.00  0.00    +0.000 C 
ENDBRANCH  16  18
ENDBRANCH  15  16
ENDBRANCH  14  15
ENDBRANCH  11  14
ENDBRANCH   1  11
TORSDOF 6
ENDMDL
MODEL 6
REMARK VINA RESULT:      -6.6      0.858      1.324
REMARK  Name = 
REMARK  13 active torsions:
REMARK  status: ('A' for Active; 'I' for Inactive)
REMARK    1  A    between atoms: C_1  and  N_2
REMARK    2  A    between atoms: N_2  and  C_3
REMARK    3  A    between atoms: N_2  and  C_4
REMARK    4  A    between atoms: C_4  and  C_5
REMARK    5  A    between atoms: C_5  and  C_6
REMARK    6  A    between atoms: C_6  and  C_7
REMARK    7  A    between atoms: C_7  and  C_8
REMARK    8  A    between atoms: C_7  and  C_9
REMARK    9  A    between atoms: C_7  and  C_10
REMARK   10  A    between atoms: C_13  and  C_14
REMARK   11  A    between atoms: C_14  and  C_15
REMARK   12  A    between atoms: C_14  and  C_16
REMARK   13  A    between atoms: C_14  and  C_17
REMARK                            x       y       z     vdW  Elec       q    Type
REMARK                         _______ _______ _______ _____ _____    ______ ____
ROOT
ATOM      1  C   UNL     1       4.779   4.758  17.280  0.00  0.00    +0.000 A 
ATOM      2  C   UNL     1       4.809   3.487  17.863  0.00  0.00    +0.000 A 
ATOM      3  C   UNL     1       3.773   3.027  18.681  0.00  0.00    +0.000 A 
ATOM      4  C   UNL     1       2.652   3.818  18.960  0.00  0.00    +0.000 A 
ATOM      5  C   UNL     1       2.607   5.089  18.362  0.00  0.00    +0.000 A 
ATOM      6  C   UNL     1       3.650   5.551  17.546  0.00  0.00    +0.000 A 
ENDROOT
BRANCH   4   7
ATOM      7  C   UNL     1       1.534   3.343  19.900  0.00  0.00    +0.000 C 
ATOM      8  C   UNL     1       2.058   2.550  21.121  0.00  0.00    +0.000 C 
ATOM      9  C   UNL     1       0.774   4.571  20.444  0.00  0.00    +0.000 C 
ATOM     10  C   UNL     1       0.550   2.425  19.147  0.00  0.00    +0.000 C 
ENDBRANCH   4   7
BRANCH   1  11
ATOM     11  C   UNL     1       5.907   5.262  16.368  0.00  0.00    +0.000 C 
ATOM     12  C   UNL     1       7.284   4.621  16.677  0.00  0.00    +0.000 C 
ATOM     13  C   UNL     1       6.086   6.786  16.575  0.00  0.00    +0.000 C 
BRANCH  11  14
ATOM     14  C   UNL     1       5.562   5.013  14.871  0.00  0.00    +0.000 C 
BRANCH  14  15
ATOM     15  C   UNL     1       6.243   3.784  14.246  0.00  0.00    +0.000 C 
BRANCH  15  16
ATOM     16  C   UNL     1       6.159   3.781  12.713  0.00  0.00    +0.000 C 
BRANCH  16  18
ATOM     17  C   UNL     1       4.220   3.300  11.317  0.00  0.00    +0.000 C 
ATOM     18  N   UNL     1       5.276   2.740  12.160  0.00  0.00    +0.000 NA
ATOM     19  C   UNL     1       6.062   1.766  11.403  0.00  0.00    +0.000 C 
ENDBRANCH  16  18
ENDBRANCH  15  16
ENDBRANCH  14  15
ENDBRANCH  11  14
ENDBRANCH   1  11
TORSDOF 6
ENDMDL
MODEL 7
REMARK VINA RESULT:      -6.6      0.825      1.308
REMARK  Name = 
REMARK  13 active torsions:
REMARK  status: ('A' for Active; 'I' for Inactive)
REMARK    1  A    between atoms: C_1  and  N_2
REMARK    2  A    between atoms: N_2  and  C_3
REMARK    3  A    between atoms: N_2  and  C_4
REMARK    4  A    between atoms: C_4  and  C_5
REMARK    5  A    between atoms: C_5  and  C_6
REMARK    6  A    between atoms: C_6  and  C_7
REMARK    7  A    between atoms: C_7  and  C_8
REMARK    8  A    between atoms: C_7  and  C_9
REMARK    9  A    between atoms: C_7  and  C_10
REMARK   10  A    between atoms: C_13  and  C_14
REMARK   11  A    between atoms: C_14  and  C_15
REMARK   12  A    between atoms: C_14  and  C_16
REMARK   13  A    between atoms: C_14  and  C_17
REMARK                            x       y       z     vdW  Elec       q    Type
REMARK                         _______ _______ _______ _____ _____    ______ ____
ROOT
ATOM      1  C   UNL     1       5.134   4.891  17.675  0.00  0.00    +0.000 A 
ATOM      2  C   UNL     1       5.296   4.069  18.795  0.00  0.00    +0.000 A 
ATOM      3  C   UNL     1       4.202   3.583  19.516  0.00  0.00    +0.000 A 
ATOM      4  C   UNL     1       2.887   3.897  19.155  0.00  0.00    +0.000 A 
ATOM      5  C   UNL     1       2.716   4.708  18.020  0.00  0.00    +0.000 A 
ATOM      6  C   UNL     1       3.815   5.199  17.299  0.00  0.00    +0.000 A 
ENDROOT
BRANCH   4   7
ATOM      7  C   UNL     1       1.680   3.412  19.973  0.00  0.00    +0.000 C 
ATOM      8  C   UNL     1       0.771   4.563  20.463  0.00  0.00    +0.000 C 
ATOM      9  C   UNL     1       0.813   2.486  19.094  0.00  0.00    +0.000 C 
ATOM     10  C   UNL     1       2.150   2.638  21.221  0.00  0.00    +0.000 C 
ENDBRANCH   4   7
BRANCH   1  11
ATOM     11  C   UNL     1       6.331   5.416  16.869  0.00  0.00    +0.000 C 
ATOM     12  C   UNL     1       7.620   4.575  17.059  0.00  0.00    +0.000 C 
ATOM     13  C   UNL     1       6.677   6.847  17.344  0.00  0.00    +0.000 C 
BRANCH  11  14
ATOM     14  C   UNL     1       5.993   5.477  15.350  0.00  0.00    +0.000 C 
BRANCH  14  15
ATOM     15  C   UNL     1       6.553   4.314  14.516  0.00  0.00    +0.000 C 
BRANCH  15  16
ATOM     16  C   UNL     1       5.484   3.656  13.631  0.00  0.00    +0.000 C 
BRANCH  16  18
ATOM     17  C   UNL     1       7.215   4.004  11.950  0.00  0.00    +0.000 C 
ATOM     18  N   UNL     1       5.825   3.622  12.199  0.00  0.00    +0.000 NA
ATOM     19  C   UNL     1       5.565   2.289  11.653  0.00  0.00    +0.000 C 
ENDBRANCH  16  18
ENDBRANCH  15  16
ENDBRANCH  14  15
ENDBRANCH  11  14
ENDBRANCH   1  11
TORSDOF 6
ENDMDL
MODEL 8
REMARK VINA RESULT:      -6.6      0.826      1.845
REMARK  Name = 
REMARK  13 active torsions:
REMARK  status: ('A' for Active; 'I' for Inactive)
REMARK    1  A    between atoms: C_1  and  N_2
REMARK    2  A    between atoms: N_2  and  C_3
REMARK    3  A    between atoms: N_2  and  C_4
REMARK    4  A    between atoms: C_4  and  C_5
REMARK    5  A    between atoms: C_5  and  C_6
REMARK    6  A    between atoms: C_6  and  C_7
REMARK    7  A    between atoms: C_7  and  C_8
REMARK    8  A    between atoms: C_7  and  C_9
REMARK    9  A    between atoms: C_7  and  C_10
REMARK   10  A    between atoms: C_13  and  C_14
REMARK   11  A    between atoms: C_14  and  C_15
REMARK   12  A    between atoms: C_14  and  C_16
REMARK   13  A    between atoms: C_14  and  C_17
REMARK                            x       y       z     vdW  Elec       q    Type
REMARK                         _______ _______ _______ _____ _____    ______ ____
ROOT
ATOM      1  C   UNL     1       4.682   4.744  16.990  0.00  0.00    +0.000 A 
ATOM      2  C   UNL     1       4.120   3.463  16.980  0.00  0.00    +0.000 A 
ATOM      3  C   UNL     1       3.177   3.066  17.932  0.00  0.00    +0.000 A 
ATOM      4  C   UNL     1       2.749   3.930  18.947  0.00  0.00    +0.000 A 
ATOM      5  C   UNL     1       3.297   5.224  18.951  0.00  0.00    +0.000 A 
ATOM      6  C   UNL     1       4.247   5.621  17.998  0.00  0.00    +0.000 A 
ENDROOT
BRANCH   4   7
ATOM      7  C   UNL     1       1.754   3.485  20.029  0.00  0.00    +0.000 C 
ATOM      8  C   UNL     1       0.674   2.511  19.503  0.00  0.00    +0.000 C 
ATOM      9  C   UNL     1       2.521   2.756  21.152  0.00  0.00    +0.000 C 
ATOM     10  C   UNL     1       1.020   4.705  20.621  0.00  0.00    +0.000 C 
ENDBRANCH   4   7
BRANCH   1  11
ATOM     11  C   UNL     1       5.707   5.192  15.937  0.00  0.00    +0.000 C 
ATOM     12  C   UNL     1       7.169   4.826  16.304  0.00  0.00    +0.000 C 
ATOM     13  C   UNL     1       5.668   6.733  15.811  0.00  0.00    +0.000 C 
BRANCH  11  14
ATOM     14  C   UNL     1       5.373   4.583  14.544  0.00  0.00    +0.000 C 
BRANCH  14  15
ATOM     15  C   UNL     1       6.534   3.833  13.870  0.00  0.00    +0.000 C 
BRANCH  15  16
ATOM     16  C   UNL     1       6.329   3.669  12.357  0.00  0.00    +0.000 C 
BRANCH  16  18
ATOM     17  C   UNL     1       4.227   3.211  11.210  0.00  0.00    +0.000 C 
ATOM     18  N   UNL     1       5.330   2.651  11.992  0.00  0.00    +0.000 NA
ATOM     19  C   UNL     1       5.970   1.564  11.251  0.00  0.00    +0.000 C 
ENDBRANCH  16  18
ENDBRANCH  15  16
ENDBRANCH  14  15
ENDBRANCH  11  14
ENDBRANCH   1  11
TORSDOF 6
ENDMDL
MODEL 9
REMARK VINA RESULT:      -6.4      1.006      1.236
REMARK  Name = 
REMARK  13 active torsions:
REMARK  status: ('A' for Active; 'I' for Inactive)
REMARK    1  A    between atoms: C_1  and  N_2
REMARK    2  A    between atoms: N_2  and  C_3
REMARK    3  A    between atoms: N_2  and  C_4
REMARK    4  A    between atoms: C_4  and  C_5
REMARK    5  A    between atoms: C_5  and  C_6
REMARK    6  A    between atoms: C_6  and  C_7
REMARK    7  A    between atoms: C_7  and  C_8
REMARK    8  A    between atoms: C_7  and  C_9
REMARK    9  A    between atoms: C_7  and  C_10
REMARK   10  A    between atoms: C_13  and  C_14
REMARK   11  A    between atoms: C_14  and  C_15
REMARK   12  A    between atoms: C_14  and  C_16
REMARK   13  A    between atoms: C_14  and  C_17
REMARK                            x       y       z     vdW  Elec       q    Type
REMARK                         _______ _______ _______ _____ _____    ______ ____
ROOT
ATOM      1  C   UNL     1       5.270   5.156  18.196  0.00  0.00    +0.000 A 
ATOM      2  C   UNL     1       5.312   3.973  18.942  0.00  0.00    +0.000 A 
ATOM      3  C   UNL     1       4.159   3.416  19.502  0.00  0.00    +0.000 A 
ATOM      4  C   UNL     1       2.903   4.015  19.348  0.00  0.00    +0.000 A 
ATOM      5  C   UNL     1       2.853   5.194  18.584  0.00  0.00    +0.000 A 
ATOM      6  C   UNL     1       4.010   5.755  18.025  0.00  0.00    +0.000 A 
ENDROOT
BRANCH   4   7
ATOM      7  C   UNL     1       1.640   3.440  20.005  0.00  0.00    +0.000 C 
ATOM      8  C   UNL     1       1.936   2.610  21.276  0.00  0.00    +0.000 C 
ATOM      9  C   UNL     1       0.712   4.601  20.421  0.00  0.00    +0.000 C 
ATOM     10  C   UNL     1       0.893   2.517  19.021  0.00  0.00    +0.000 C 
ENDBRANCH   4   7
BRANCH   1  11
ATOM     11  C   UNL     1       6.530   5.764  17.564  0.00  0.00    +0.000 C 
ATOM     12  C   UNL     1       7.716   5.895  18.555  0.00  0.00    +0.000 C 
ATOM     13  C   UNL     1       6.215   7.200  17.079  0.00  0.00    +0.000 C 
BRANCH  11  14
ATOM     14  C   UNL     1       6.994   4.928  16.335  0.00  0.00    +0.000 C 
BRANCH  14  15
ATOM     15  C   UNL     1       6.034   4.958  15.134  0.00  0.00    +0.000 C 
BRANCH  15  16
ATOM     16  C   UNL     1       6.252   3.776  14.178  0.00  0.00    +0.000 C 
BRANCH  16  18
ATOM     17  C   UNL     1       7.318   4.147  12.017  0.00  0.00    +0.000 C 
ATOM     18  N   UNL     1       6.057   4.108  12.756  0.00  0.00    +0.000 NA
ATOM     19  C   UNL     1       5.141   3.148  12.139  0.00  0.00    +0.000 C 
ENDBRANCH  16  18
ENDBRANCH  15  16
ENDBRANCH  14  15
ENDBRANCH  11  14
ENDBRANCH   1  11
TORSDOF 6
ENDMDL
