MODEL 1
REMARK VINA RESULT:      -8.8      0.000      0.000
REMARK  Name = 
REMARK  5 active torsions:
REMARK  status: ('A' for Active; 'I' for Inactive)
REMARK    1  A    between atoms: C_2  and  C_3
REMARK    2  A    between atoms: C_3  and  C_4
REMARK    3  A    between atoms: C_12  and  C_13
REMARK    4  A    between atoms: C_20  and  O_21
REMARK    5  A    between atoms: C_20  and  C_22
REMARK                            x       y       z     vdW  Elec       q    Type
REMARK                         _______ _______ _______ _____ _____    ______ ____
ROOT
ATOM      1  O   UNL     1       4.758   2.570  19.642  0.00  0.00    +0.000 OA
ATOM      2  C   UNL     1       4.789   3.779  19.374  0.00  0.00    +0.000 C 
ATOM      3  N   UNL     1       3.715   4.588  19.690  0.00  0.00    +0.000 N 
ATOM      4  N   UNL     1       3.649   5.906  19.310  0.00  0.00    +0.000 NA
ATOM      5  C   UNL     1       2.488   6.340  19.701  0.00  0.00    +0.000 C 
ATOM      6  C   UNL     1       1.677   5.368  20.507  0.00  0.00    +0.000 C 
ATOM      7  C   UNL     1       2.430   4.078  20.212  0.00  0.00    +0.000 C 
ENDROOT
BRANCH   5   8
ATOM      8  C   UNL     1       1.964   7.697  19.461  0.00  0.00    +0.000 A 
ATOM      9  C   UNL     1       2.067   8.282  18.208  0.00  0.00    +0.000 A 
ATOM     10  C   UNL     1       1.549   9.567  18.048  0.00  0.00    +0.000 A 
ATOM     11  C   UNL     1       0.950  10.200  19.130  0.00  0.00    +0.000 A 
ATOM     12  C   UNL     1       0.888   9.530  20.340  0.00  0.00    +0.000 A 
ATOM     13  N   UNL     1       1.380   8.289  20.530  0.00  0.00    +0.000 NA
ENDBRANCH   5   8
BRANCH   7  14
ATOM     14  C   UNL     1       1.669   3.169  19.185  0.00  0.00    +0.000 C 
ATOM     15  F   UNL     1       1.880   3.539  17.898  0.00  0.00    +0.000 F 
ATOM     16  F   UNL     1       2.028   1.866  19.286  0.00  0.00    +0.000 F 
ATOM     17  F   UNL     1       0.323   3.209  19.365  0.00  0.00    +0.000 F 
ENDBRANCH   7  14
BRANCH   7  18
ATOM     18  O   UNL     1       2.671   3.466  21.488  0.00  0.00    +0.000 OA
ATOM     19  H   UNL     1       2.570   2.509  21.343  0.00  0.00    +0.000 HD
ENDBRANCH   7  18
BRANCH   2  20
ATOM     20  C   UNL     1       6.022   4.434  18.791  0.00  0.00    +0.000 C 
BRANCH  20  21
ATOM     21  C   UNL     1       6.067   4.431  17.284  0.00  0.00    +0.000 A 
ATOM     22  C   UNL     1       4.932   4.080  16.540  0.00  0.00    +0.000 A 
ATOM     23  C   UNL     1       4.960   4.102  15.145  0.00  0.00    +0.000 A 
ATOM     24  C   UNL     1       6.125   4.475  14.477  0.00  0.00    +0.000 A 
ATOM     25  C   UNL     1       7.258   4.838  15.203  0.00  0.00    +0.000 A 
ATOM     26  C   UNL     1       7.230   4.814  16.600  0.00  0.00    +0.000 A 
ENDBRANCH  20  21
ENDBRANCH   2  20
TORSDOF 5
ENDMDL
MODEL 2
REMARK VINA RESULT:      -8.7      0.063      1.227
REMARK  Name = 
REMARK  5 active torsions:
REMARK  status: ('A' for Active; 'I' for Inactive)
REMARK    1  A    between atoms: C_2  and  C_3
REMARK    2  A    between atoms: C_3  and  C_4
REMARK    3  A    between atoms: C_12  and  C_13
REMARK    4  A    between atoms: C_20  and  O_21
REMARK    5  A    between atoms: C_20  and  C_22
REMARK                            x       y       z     vdW  Elec       q    Type
REMARK                         _______ _______ _______ _____ _____    ______ ____
ROOT
ATOM      1  O   UNL     1       4.775   2.528  19.639  0.00  0.00    +0.000 OA
ATOM      2  C   UNL     1       4.803   3.740  19.387  0.00  0.00    +0.000 C 
ATOM      3  N   UNL     1       3.726   4.542  19.711  0.00  0.00    +0.000 N 
ATOM      4  N   UNL     1       3.656   5.865  19.348  0.00  0.00    +0.000 NA
ATOM      5  C   UNL     1       2.493   6.290  19.743  0.00  0.00    +0.000 C 
ATOM      6  C   UNL     1       1.684   5.305  20.536  0.00  0.00    +0.000 C 
ATOM      7  C   UNL     1       2.441   4.022  20.226  0.00  0.00    +0.000 C 
ENDROOT
BRANCH   5   8
ATOM      8  C   UNL     1       1.965   7.649  19.520  0.00  0.00    +0.000 A 
ATOM      9  C   UNL     1       2.065   8.248  18.273  0.00  0.00    +0.000 A 
ATOM     10  C   UNL     1       1.543   9.534  18.129  0.00  0.00    +0.000 A 
ATOM     11  C   UNL     1       0.945  10.153  19.219  0.00  0.00    +0.000 A 
ATOM     12  C   UNL     1       0.887   9.469  20.421  0.00  0.00    +0.000 A 
ATOM     13  N   UNL     1       1.382   8.227  20.597  0.00  0.00    +0.000 NA
ENDBRANCH   5   8
BRANCH   7  14
ATOM     14  C   UNL     1       1.685   3.123  19.186  0.00  0.00    +0.000 C 
ATOM     15  F   UNL     1       0.341   3.131  19.364  0.00  0.00    +0.000 F 
ATOM     16  F   UNL     1       1.918   3.507  17.907  0.00  0.00    +0.000 F 
ATOM     17  F   UNL     1       2.062   1.821  19.267  0.00  0.00    +0.000 F 
ENDBRANCH   7  14
BRANCH   7  18
ATOM     18  O   UNL     1       2.683   3.395  21.494  0.00  0.00    +0.000 OA
ATOM     19  H   UNL     1       3.613   3.108  21.472  0.00  0.00    +0.000 HD
ENDBRANCH   7  18
BRANCH   2  20
ATOM     20  C   UNL     1       6.034   4.407  18.814  0.00  0.00    +0.000 C 
BRANCH  20  21
ATOM     21  C   UNL     1       6.070   4.443  17.307  0.00  0.00    +0.000 A 
ATOM     22  C   UNL     1       7.239   4.821  16.633  0.00  0.00    +0.000 A 
ATOM     23  C   UNL     1       7.285   4.829  15.238  0.00  0.00    +0.000 A 
ATOM     24  C   UNL     1       6.162   4.460  14.500  0.00  0.00    +0.000 A 
ATOM     25  C   UNL     1       4.996   4.071  15.157  0.00  0.00    +0.000 A 
ATOM     26  C   UNL     1       4.949   4.063  16.553  0.00  0.00    +0.000 A 
ENDBRANCH  20  21
ENDBRANCH   2  20
TORSDOF 5
ENDMDL
MODEL 3
REMARK VINA RESULT:      -8.7      0.620      1.423
REMARK  Name = 
REMARK  5 active torsions:
REMARK  status: ('A' for Active; 'I' for Inactive)
REMARK    1  A    between atoms: C_2  and  C_3
REMARK    2  A    between atoms: C_3  and  C_4
REMARK    3  A    between atoms: C_12  and  C_13
REMARK    4  A    between atoms: C_20  and  O_21
REMARK    5  A    between atoms: C_20  and  C_22
REMARK                            x       y       z     vdW  Elec       q    Type
REMARK                         _______ _______ _______ _____ _____    ______ ____
ROOT
ATOM      1  O   UNL     1       4.765   2.480  19.390  0.00  0.00    +0.000 OA
ATOM      2  C   UNL     1       4.741   3.715  19.288  0.00  0.00    +0.000 C 
ATOM      3  N   UNL     1       3.656   4.429  19.758  0.00  0.00    +0.000 N 
ATOM      4  N   UNL     1       3.525   5.783  19.564  0.00  0.00    +0.000 NA
ATOM      5  C   UNL     1       2.371   6.112  20.061  0.00  0.00    +0.000 C 
ATOM      6  C   UNL     1       1.635   5.008  20.763  0.00  0.00    +0.000 C 
ATOM      7  C   UNL     1       2.416   3.802  20.262  0.00  0.00    +0.000 C 
ENDROOT
BRANCH   5   8
ATOM      8  C   UNL     1       1.789   7.467  20.032  0.00  0.00    +0.000 A 
ATOM      9  C   UNL     1       1.139   7.979  21.144  0.00  0.00    +0.000 A 
ATOM     10  C   UNL     1       0.613   9.268  21.050  0.00  0.00    +0.000 A 
ATOM     11  C   UNL     1       0.766   9.982  19.867  0.00  0.00    +0.000 A 
ATOM     12  C   UNL     1       1.438   9.386  18.814  0.00  0.00    +0.000 A 
ATOM     13  N   UNL     1       1.957   8.143  18.870  0.00  0.00    +0.000 NA
ENDBRANCH   5   8
BRANCH   7  14
ATOM     14  C   UNL     1       1.638   3.008  19.155  0.00  0.00    +0.000 C 
ATOM     15  F   UNL     1       1.779   3.552  17.922  0.00  0.00    +0.000 F 
ATOM     16  F   UNL     1       2.041   1.717  19.067  0.00  0.00    +0.000 F 
ATOM     17  F   UNL     1       0.302   2.975  19.394  0.00  0.00    +0.000 F 
ENDBRANCH   7  14
BRANCH   7  18
ATOM     18  O   UNL     1       2.741   3.034  21.431  0.00  0.00    +0.000 OA
ATOM     19  H   UNL     1       3.380   2.362  21.134  0.00  0.00    +0.000 HD
ENDBRANCH   7  18
BRANCH   2  20
ATOM     20  C   UNL     1       5.920   4.492  18.746  0.00  0.00    +0.000 C 
BRANCH  20  21
ATOM     21  C   UNL     1       5.993   4.530  17.241  0.00  0.00    +0.000 A 
ATOM     22  C   UNL     1       7.222   4.717  16.594  0.00  0.00    +0.000 A 
ATOM     23  C   UNL     1       7.299   4.726  15.200  0.00  0.00    +0.000 A 
ATOM     24  C   UNL     1       6.146   4.548  14.437  0.00  0.00    +0.000 A 
ATOM     25  C   UNL     1       4.919   4.349  15.066  0.00  0.00    +0.000 A 
ATOM     26  C   UNL     1       4.842   4.342  16.461  0.00  0.00    +0.000 A 
ENDBRANCH  20  21
ENDBRANCH   2  20
TORSDOF 5
ENDMDL
MODEL 4
REMARK VINA RESULT:      -8.6      3.659      6.999
REMARK  Name = 
REMARK  5 active torsions:
REMARK  status: ('A' for Active; 'I' for Inactive)
REMARK    1  A    between atoms: C_2  and  C_3
REMARK    2  A    between atoms: C_3  and  C_4
REMARK    3  A    between atoms: C_12  and  C_13
REMARK    4  A    between atoms: C_20  and  O_21
REMARK    5  A    between atoms: C_20  and  C_22
REMARK                            x       y       z     vdW  Elec       q    Type
REMARK                         _______ _______ _______ _____ _____    ______ ____
ROOT
ATOM      1  O   UNL     1       4.746   6.117  19.477  0.00  0.00    +0.000 OA
ATOM      2  C   UNL     1       4.437   5.770  18.329  0.00  0.00    +0.000 C 
ATOM      3  N   UNL     1       5.410   5.351  17.444  0.00  0.00    +0.000 N 
ATOM      4  N   UNL     1       5.137   5.070  16.127  0.00  0.00    +0.000 NA
ATOM      5  C   UNL     1       6.276   4.782  15.572  0.00  0.00    +0.000 C 
ATOM      6  C   UNL     1       7.450   4.726  16.506  0.00  0.00    +0.000 C 
ATOM      7  C   UNL     1       6.860   5.423  17.724  0.00  0.00    +0.000 C 
ENDROOT
BRANCH   5   8
ATOM      8  C   UNL     1       6.469   4.462  14.146  0.00  0.00    +0.000 A 
ATOM      9  C   UNL     1       5.670   3.517  13.521  0.00  0.00    +0.000 A 
ATOM     10  C   UNL     1       5.903   3.262  12.169  0.00  0.00    +0.000 A 
ATOM     11  C   UNL     1       6.906   3.961  11.508  0.00  0.00    +0.000 A 
ATOM     12  C   UNL     1       7.645   4.891  12.217  0.00  0.00    +0.000 A 
ATOM     13  N   UNL     1       7.449   5.160  13.523  0.00  0.00    +0.000 NA
ENDBRANCH   5   8
BRANCH   7  14
ATOM     14  C   UNL     1       7.381   6.894  17.876  0.00  0.00    +0.000 C 
ATOM     15  F   UNL     1       6.379   7.806  17.908  0.00  0.00    +0.000 F 
ATOM     16  F   UNL     1       8.111   7.068  19.005  0.00  0.00    +0.000 F 
ATOM     17  F   UNL     1       8.184   7.262  16.844  0.00  0.00    +0.000 F 
ENDBRANCH   7  14
BRANCH   7  18
ATOM     18  O   UNL     1       7.147   4.568  18.840  0.00  0.00    +0.000 OA
ATOM     19  H   UNL     1       6.319   4.090  19.025  0.00  0.00    +0.000 HD
ENDBRANCH   7  18
BRANCH   2  20
ATOM     20  C   UNL     1       2.993   5.693  17.883  0.00  0.00    +0.000 C 
BRANCH  20  21
ATOM     21  C   UNL     1       2.194   4.613  18.567  0.00  0.00    +0.000 A 
ATOM     22  C   UNL     1       1.938   3.397  17.917  0.00  0.00    +0.000 A 
ATOM     23  C   UNL     1       1.223   2.385  18.557  0.00  0.00    +0.000 A 
ATOM     24  C   UNL     1       0.753   2.575  19.856  0.00  0.00    +0.000 A 
ATOM     25  C   UNL     1       1.010   3.773  20.519  0.00  0.00    +0.000 A 
ATOM     26  C   UNL     1       1.725   4.788  19.878  0.00  0.00    +0.000 A 
ENDBRANCH  20  21
ENDBRANCH   2  20
TORSDOF 5
ENDMDL
MODEL 5
REMARK VINA RESULT:      -8.6      1.457      2.281
REMARK  Name = 
REMARK  5 active torsions:
REMARK  status: ('A' for Active; 'I' for Inactive)
REMARK    1  A    between atoms: C_2  and  C_3
REMARK    2  A    between atoms: C_3  and  C_4
REMARK    3  A    between atoms: C_12  and  C_13
REMARK    4  A    between atoms: C_20  and  O_21
REMARK    5  A    between atoms: C_20  and  C_22
REMARK                            x       y       z     vdW  Elec       q    Type
REMARK                         _______ _______ _______ _____ _____    ______ ____
ROOT
ATOM      1  O   UNL     1       4.195   2.873  17.823  0.00  0.00    +0.000 OA
ATOM      2  C   UNL     1       4.102   4.108  17.791  0.00  0.00    +0.000 C 
ATOM      3  N   UNL     1       3.342   4.772  18.734  0.00  0.00    +0.000 N 
ATOM      4  N   UNL     1       3.109   6.125  18.673  0.00  0.00    +0.000 NA
ATOM      5  C   UNL     1       2.306   6.400  19.657  0.00  0.00    +0.000 C 
ATOM      6  C   UNL     1       1.998   5.253  20.576  0.00  0.00    +0.000 C 
ATOM      7  C   UNL     1       2.486   4.089  19.726  0.00  0.00    +0.000 C 
ENDROOT
BRANCH   5   8
ATOM      8  C   UNL     1       1.749   7.733  19.950  0.00  0.00    +0.000 A 
ATOM      9  C   UNL     1       1.295   8.044  21.223  0.00  0.00    +0.000 A 
ATOM     10  C   UNL     1       0.781   9.324  21.433  0.00  0.00    +0.000 A 
ATOM     11  C   UNL     1       0.753  10.229  20.378  0.00  0.00    +0.000 A 
ATOM     12  C   UNL     1       1.238   9.826  19.146  0.00  0.00    +0.000 A 
ATOM     13  N   UNL     1       1.738   8.598  18.907  0.00  0.00    +0.000 NA
ENDBRANCH   5   8
BRANCH   7  14
ATOM     14  C   UNL     1       1.302   3.296  19.071  0.00  0.00    +0.000 C 
ATOM     15  F   UNL     1       0.936   3.798  17.866  0.00  0.00    +0.000 F 
ATOM     16  F   UNL     1       1.600   1.988  18.881  0.00  0.00    +0.000 F 
ATOM     17  F   UNL     1       0.181   3.323  19.838  0.00  0.00    +0.000 F 
ENDBRANCH   7  14
BRANCH   7  18
ATOM     18  O   UNL     1       3.327   3.305  20.585  0.00  0.00    +0.000 OA
ATOM     19  H   UNL     1       4.228   3.650  20.456  0.00  0.00    +0.000 HD
ENDBRANCH   7  18
BRANCH   2  20
ATOM     20  C   UNL     1       4.884   4.940  16.799  0.00  0.00    +0.000 C 
BRANCH  20  21
ATOM     21  C   UNL     1       6.046   5.688  17.402  0.00  0.00    +0.000 A 
ATOM     22  C   UNL     1       6.378   6.971  16.947  0.00  0.00    +0.000 A 
ATOM     23  C   UNL     1       7.436   7.678  17.521  0.00  0.00    +0.000 A 
ATOM     24  C   UNL     1       8.174   7.110  18.558  0.00  0.00    +0.000 A 
ATOM     25  C   UNL     1       7.847   5.840  19.029  0.00  0.00    +0.000 A 
ATOM     26  C   UNL     1       6.790   5.131  18.453  0.00  0.00    +0.000 A 
ENDBRANCH  20  21
ENDBRANCH   2  20
TORSDOF 5
ENDMDL
MODEL 6
REMARK VINA RESULT:      -8.5      1.325      2.010
REMARK  Name = 
REMARK  5 active torsions:
REMARK  status: ('A' for Active; 'I' for Inactive)
REMARK    1  A    between atoms: C_2  and  C_3
REMARK    2  A    between atoms: C_3  and  C_4
REMARK    3  A    between atoms: C_12  and  C_13
REMARK    4  A    between atoms: C_20  and  O_21
REMARK    5  A    between atoms: C_20  and  C_22
REMARK                            x       y       z     vdW  Elec       q    Type
REMARK                         _______ _______ _______ _____ _____    ______ ____
ROOT
ATOM      1  O   UNL     1       4.265   2.695  17.958  0.00  0.00    +0.000 OA
ATOM      2  C   UNL     1       4.191   3.927  17.851  0.00  0.00    +0.000 C 
ATOM      3  N   UNL     1       3.412   4.655  18.728  0.00  0.00    +0.000 N 
ATOM      4  N   UNL     1       3.201   6.005  18.581  0.00  0.00    +0.000 NA
ATOM      5  C   UNL     1       2.373   6.348  19.522  0.00  0.00    +0.000 C 
ATOM      6  C   UNL     1       2.020   5.262  20.496  0.00  0.00    +0.000 C 
ATOM      7  C   UNL     1       2.516   4.043  19.732  0.00  0.00    +0.000 C 
ENDROOT
BRANCH   5   8
ATOM      8  C   UNL     1       1.826   7.703  19.718  0.00  0.00    +0.000 A 
ATOM      9  C   UNL     1       1.789   8.608  18.667  0.00  0.00    +0.000 A 
ATOM     10  C   UNL     1       1.257   9.873  18.920  0.00  0.00    +0.000 A 
ATOM     11  C   UNL     1       0.783  10.171  20.191  0.00  0.00    +0.000 A 
ATOM     12  C   UNL     1       0.856   9.198  21.172  0.00  0.00    +0.000 A 
ATOM     13  N   UNL     1       1.366   7.967  20.964  0.00  0.00    +0.000 NA
ENDBRANCH   5   8
BRANCH   7  14
ATOM     14  C   UNL     1       1.341   3.227  19.088  0.00  0.00    +0.000 C 
ATOM     15  F   UNL     1       1.026   3.656  17.841  0.00  0.00    +0.000 F 
ATOM     16  F   UNL     1       1.623   1.905  18.993  0.00  0.00    +0.000 F 
ATOM     17  F   UNL     1       0.196   3.321  19.813  0.00  0.00    +0.000 F 
ENDBRANCH   7  14
BRANCH   7  18
ATOM     18  O   UNL     1       3.319   3.301  20.661  0.00  0.00    +0.000 OA
ATOM     19  H   UNL     1       2.988   3.540  21.545  0.00  0.00    +0.000 HD
ENDBRANCH   7  18
BRANCH   2  20
ATOM     20  C   UNL     1       5.014   4.688  16.836  0.00  0.00    +0.000 C 
BRANCH  20  21
ATOM     21  C   UNL     1       6.093   5.551  17.441  0.00  0.00    +0.000 A 
ATOM     22  C   UNL     1       6.835   5.096  18.539  0.00  0.00    +0.000 A 
ATOM     23  C   UNL     1       7.852   5.880  19.085  0.00  0.00    +0.000 A 
ATOM     24  C   UNL     1       8.140   7.130  18.539  0.00  0.00    +0.000 A 
ATOM     25  C   UNL     1       7.418   7.591  17.440  0.00  0.00    +0.000 A 
ATOM     26  C   UNL     1       6.398   6.807  16.894  0.00  0.00    +0.000 A 
ENDBRANCH  20  21
ENDBRANCH   2  20
TORSDOF 5
ENDMDL
MODEL 7
REMARK VINA RESULT:      -8.4      2.709      4.722
REMARK  Name = 
REMARK  5 active torsions:
REMARK  status: ('A' for Active; 'I' for Inactive)
REMARK    1  A    between atoms: C_2  and  C_3
REMARK    2  A    between atoms: C_3  and  C_4
REMARK    3  A    between atoms: C_12  and  C_13
REMARK    4  A    between atoms: C_20  and  O_21
REMARK    5  A    between atoms: C_20  and  C_22
REMARK                            x       y       z     vdW  Elec       q    Type
REMARK                         _______ _______ _______ _____ _____    ______ ____
ROOT
ATOM      1  O   UNL     1       4.883   3.213  16.619  0.00  0.00    +0.000 OA
ATOM      2  C   UNL     1       3.877   3.749  17.104  0.00  0.00    +0.000 C 
ATOM      3  N   UNL     1       3.828   5.119  17.264  0.00  0.00    +0.000 N 
ATOM      4  N   UNL     1       2.789   5.751  17.904  0.00  0.00    +0.000 NA
ATOM      5  C   UNL     1       3.098   7.012  17.942  0.00  0.00    +0.000 C 
ATOM      6  C   UNL     1       4.354   7.389  17.212  0.00  0.00    +0.000 C 
ATOM      7  C   UNL     1       4.980   6.015  17.025  0.00  0.00    +0.000 C 
ENDROOT
BRANCH   5   8
ATOM      8  C   UNL     1       2.288   8.065  18.583  0.00  0.00    +0.000 A 
ATOM      9  C   UNL     1       1.903   9.190  17.871  0.00  0.00    +0.000 A 
ATOM     10  C   UNL     1       1.136  10.147  18.537  0.00  0.00    +0.000 A 
ATOM     11  C   UNL     1       0.785   9.936  19.864  0.00  0.00    +0.000 A 
ATOM     12  C   UNL     1       1.212   8.776  20.487  0.00  0.00    +0.000 A 
ATOM     13  N   UNL     1       1.955   7.832  19.875  0.00  0.00    +0.000 NA
ENDBRANCH   5   8
BRANCH   7  14
ATOM     14  C   UNL     1       6.168   5.763  18.018  0.00  0.00    +0.000 C 
ATOM     15  F   UNL     1       5.750   5.385  19.251  0.00  0.00    +0.000 F 
ATOM     16  F   UNL     1       7.015   4.803  17.575  0.00  0.00    +0.000 F 
ATOM     17  F   UNL     1       6.920   6.878  18.208  0.00  0.00    +0.000 F 
ENDBRANCH   7  14
BRANCH   7  18
ATOM     18  O   UNL     1       5.335   5.933  15.637  0.00  0.00    +0.000 OA
ATOM     19  H   UNL     1       6.308   5.924  15.614  0.00  0.00    +0.000 HD
ENDBRANCH   7  18
BRANCH   2  20
ATOM     20  C   UNL     1       2.637   2.952  17.444  0.00  0.00    +0.000 C 
BRANCH  20  21
ATOM     21  C   UNL     1       2.357   2.849  18.922  0.00  0.00    +0.000 A 
ATOM     22  C   UNL     1       3.397   2.589  19.826  0.00  0.00    +0.000 A 
ATOM     23  C   UNL     1       3.148   2.520  21.197  0.00  0.00    +0.000 A 
ATOM     24  C   UNL     1       1.854   2.710  21.682  0.00  0.00    +0.000 A 
ATOM     25  C   UNL     1       0.813   2.980  20.797  0.00  0.00    +0.000 A 
ATOM     26  C   UNL     1       1.062   3.048  19.424  0.00  0.00    +0.000 A 
ENDBRANCH  20  21
ENDBRANCH   2  20
TORSDOF 5
ENDMDL
MODEL 8
REMARK VINA RESULT:      -8.4      0.869      1.475
REMARK  Name = 
REMARK  5 active torsions:
REMARK  status: ('A' for Active; 'I' for Inactive)
REMARK    1  A    between atoms: C_2  and  C_3
REMARK    2  A    between atoms: C_3  and  C_4
REMARK    3  A    between atoms: C_12  and  C_13
REMARK    4  A    between atoms: C_20  and  O_21
REMARK    5  A    between atoms: C_20  and  C_22
REMARK                            x       y       z     vdW  Elec       q    Type
REMARK                         _______ _______ _______ _____ _____    ______ ____
ROOT
ATOM      1  O   UNL     1       4.720   2.581  19.467  0.00  0.00    +0.000 OA
ATOM      2  C   UNL     1       4.693   3.812  19.330  0.00  0.00    +0.000 C 
ATOM      3  N   UNL     1       3.618   4.539  19.801  0.00  0.00    +0.000 N 
ATOM      4  N   UNL     1       3.482   5.887  19.570  0.00  0.00    +0.000 NA
ATOM      5  C   UNL     1       2.337   6.230  20.080  0.00  0.00    +0.000 C 
ATOM      6  C   UNL     1       1.616   5.147  20.828  0.00  0.00    +0.000 C 
ATOM      7  C   UNL     1       2.388   3.927  20.348  0.00  0.00    +0.000 C 
ENDROOT
BRANCH   5   8
ATOM      8  C   UNL     1       1.753   7.583  20.023  0.00  0.00    +0.000 A 
ATOM      9  C   UNL     1       1.103   8.118  21.124  0.00  0.00    +0.000 A 
ATOM     10  C   UNL     1       0.576   9.405  21.004  0.00  0.00    +0.000 A 
ATOM     11  C   UNL     1       0.727  10.094  19.807  0.00  0.00    +0.000 A 
ATOM     12  C   UNL     1       1.400   9.477  18.766  0.00  0.00    +0.000 A 
ATOM     13  N   UNL     1       1.920   8.236  18.847  0.00  0.00    +0.000 NA
ENDBRANCH   5   8
BRANCH   7  14
ATOM     14  C   UNL     1       1.589   3.101  19.279  0.00  0.00    +0.000 C 
ATOM     15  F   UNL     1       1.969   1.801  19.229  0.00  0.00    +0.000 F 
ATOM     16  F   UNL     1       0.254   3.116  19.511  0.00  0.00    +0.000 F 
ATOM     17  F   UNL     1       1.763   3.587  18.023  0.00  0.00    +0.000 F 
ENDBRANCH   7  14
BRANCH   7  18
ATOM     18  O   UNL     1       2.737   3.194  21.531  0.00  0.00    +0.000 OA
ATOM     19  H   UNL     1       1.903   3.071  22.019  0.00  0.00    +0.000 HD
ENDBRANCH   7  18
BRANCH   2  20
ATOM     20  C   UNL     1       5.860   4.574  18.743  0.00  0.00    +0.000 C 
BRANCH  20  21
ATOM     21  C   UNL     1       5.780   4.769  17.250  0.00  0.00    +0.000 A 
ATOM     22  C   UNL     1       5.404   6.009  16.714  0.00  0.00    +0.000 A 
ATOM     23  C   UNL     1       5.355   6.202  15.333  0.00  0.00    +0.000 A 
ATOM     24  C   UNL     1       5.680   5.156  14.470  0.00  0.00    +0.000 A 
ATOM     25  C   UNL     1       6.066   3.922  14.988  0.00  0.00    +0.000 A 
ATOM     26  C   UNL     1       6.114   3.728  16.371  0.00  0.00    +0.000 A 
ENDBRANCH  20  21
ENDBRANCH   2  20
TORSDOF 5
ENDMDL
MODEL 9
REMARK VINA RESULT:      -8.3      2.713      4.635
REMARK  Name = 
REMARK  5 active torsions:
REMARK  status: ('A' for Active; 'I' for Inactive)
REMARK    1  A    between atoms: C_2  and  C_3
REMARK    2  A    between atoms: C_3  and  C_4
REMARK    3  A    between atoms: C_12  and  C_13
REMARK    4  A    between atoms: C_20  and  O_21
REMARK    5  A    between atoms: C_20  and  C_22
REMARK                            x       y       z     vdW  Elec       q    Type
REMARK                         _______ _______ _______ _____ _____    ______ ____
ROOT
ATOM      1  O   UNL     1       4.981   3.228  16.601  0.00  0.00    +0.000 OA
ATOM      2  C   UNL     1       3.964   3.739  17.091  0.00  0.00    +0.000 C 
ATOM      3  N   UNL     1       3.885   5.108  17.255  0.00  0.00    +0.000 N 
ATOM      4  N   UNL     1       2.834   5.714  17.899  0.00  0.00    +0.000 NA
ATOM      5  C   UNL     1       3.114   6.982  17.939  0.00  0.00    +0.000 C 
ATOM      6  C   UNL     1       4.359   7.389  17.207  0.00  0.00    +0.000 C 
ATOM      7  C   UNL     1       5.015   6.030  17.014  0.00  0.00    +0.000 C 
ENDROOT
BRANCH   5   8
ATOM      8  C   UNL     1       2.283   8.014  18.586  0.00  0.00    +0.000 A 
ATOM      9  C   UNL     1       1.849   9.120  17.871  0.00  0.00    +0.000 A 
ATOM     10  C   UNL     1       1.064  10.058  18.542  0.00  0.00    +0.000 A 
ATOM     11  C   UNL     1       0.744   9.849  19.878  0.00  0.00    +0.000 A 
ATOM     12  C   UNL     1       1.219   8.709  20.503  0.00  0.00    +0.000 A 
ATOM     13  N   UNL     1       1.981   7.783  19.886  0.00  0.00    +0.000 NA
ENDBRANCH   5   8
BRANCH   7  14
ATOM     14  C   UNL     1       6.212   5.802  18.003  0.00  0.00    +0.000 C 
ATOM     15  F   UNL     1       6.944   6.924  18.208  0.00  0.00    +0.000 F 
ATOM     16  F   UNL     1       5.800   5.369  19.219  0.00  0.00    +0.000 F 
ATOM     17  F   UNL     1       7.085   4.869  17.542  0.00  0.00    +0.000 F 
ENDBRANCH   7  14
BRANCH   7  18
ATOM     18  O   UNL     1       5.367   5.959  15.624  0.00  0.00    +0.000 OA
ATOM     19  H   UNL     1       5.071   5.082  15.322  0.00  0.00    +0.000 HD
ENDBRANCH   7  18
BRANCH   2  20
ATOM     20  C   UNL     1       2.743   2.913  17.433  0.00  0.00    +0.000 C 
BRANCH  20  21
ATOM     21  C   UNL     1       2.410   2.887  18.903  0.00  0.00    +0.000 A 
ATOM     22  C   UNL     1       1.093   3.093  19.337  0.00  0.00    +0.000 A 
ATOM     23  C   UNL     1       0.776   3.042  20.695  0.00  0.00    +0.000 A 
ATOM     24  C   UNL     1       1.771   2.785  21.636  0.00  0.00    +0.000 A 
ATOM     25  C   UNL     1       3.083   2.566  21.218  0.00  0.00    +0.000 A 
ATOM     26  C   UNL     1       3.402   2.618  19.859  0.00  0.00    +0.000 A 
ENDBRANCH  20  21
ENDBRANCH   2  20
TORSDOF 5
ENDMDL
