MODEL 1
REMARK VINA RESULT:      -7.4      0.000      0.000
REMARK  Name = 
REMARK  7 active torsions:
REMARK  status: ('A' for Active; 'I' for Inactive)
REMARK    1  A    between atoms: C_5  and  C_6
REMARK    2  A    between atoms: C_9  and  N_10
REMARK    3  A    between atoms: N_10  and  S_11
REMARK    4  A    between atoms: S_11  and  C_14
REMARK    5  A    between atoms: C_14  and  C_15
REMARK    6  A    between atoms: CA_23  and  C_24
REMARK    7  A    between atoms: C_24  and  O_25
REMARK                            x       y       z     vdW  Elec       q    Type
REMARK                         _______ _______ _______ _____ _____    ______ ____
ROOT
ATOM      1  C   UNL     1       1.130   9.728  18.952  0.00  0.00    +0.000 A 
ATOM      2  C   UNL     1       1.814   9.192  17.848  0.00  0.00    +0.000 A 
ATOM      3  C   UNL     1       2.499   7.973  17.950  0.00  0.00    +0.000 A 
ATOM      4  C   UNL     1       2.500   7.274  19.155  0.00  0.00    +0.000 A 
ATOM      5  C   UNL     1       1.814   7.783  20.254  0.00  0.00    +0.000 A 
ATOM      6  C   UNL     1       1.128   8.996  20.151  0.00  0.00    +0.000 A 
ENDROOT
BRANCH   1  11
ATOM      7  O   UNL     1      -1.883  14.199  20.191  0.00  0.00    +0.000 OA
ATOM      8  C   UNL     1      -1.189  13.266  19.806  0.00  0.00    +0.000 C 
ATOM      9  C   UNL     1      -1.761  11.955  19.265  0.00  0.00    +0.000 C 
ATOM     10  O   UNL     1      -0.920  10.818  19.418  0.00  0.00    +0.000 OA
ATOM     11  C   UNL     1       0.378  11.046  18.840  0.00  0.00    +0.000 C 
ATOM     12  CA  UNL     1       1.074  12.239  19.562  0.00  0.00    +0.000 C 
ATOM     13  N   UNL     1       0.175  13.389  19.742  0.00  0.00    +0.000 N 
ATOM     14  H   UNL     1       0.529  14.195  20.245  0.00  0.00    +0.000 HD
BRANCH  12  15
ATOM     15  C   UNL     1       2.324  12.704  18.800  0.00  0.00    +0.000 C 
BRANCH  15  16
ATOM     16  O   UNL     1       2.068  12.741  17.394  0.00  0.00    +0.000 OA
ATOM     17  H   UNL     1       1.624  13.587  17.205  0.00  0.00    +0.000 HD
ENDBRANCH  15  16
ENDBRANCH  12  15
ENDBRANCH   1  11
BRANCH   4  18
ATOM     18  N   UNL     1       3.209   6.044  19.309  0.00  0.00    +0.000 N 
ATOM     19  H   UNL     1       3.647   5.927  20.227  0.00  0.00    +0.000 HD
BRANCH  18  20
ATOM     20  S   UNL     1       2.369   4.606  18.960  0.00  0.00    +0.000 S 
ATOM     21  O   UNL     1       1.625   4.324  20.169  0.00  0.00    +0.000 OA
ATOM     22  O   UNL     1       1.684   4.794  17.698  0.00  0.00    +0.000 OA
BRANCH  20  23
ATOM     23  C   UNL     1       3.706   3.402  18.784  0.00  0.00    +0.000 C 
BRANCH  23  24
ATOM     24  C   UNL     1       4.770   3.999  17.900  0.00  0.00    +0.000 A 
ATOM     25  C   UNL     1       4.594   4.038  16.508  0.00  0.00    +0.000 A 
ATOM     26  C   UNL     1       5.609   4.522  15.680  0.00  0.00    +0.000 A 
ATOM     27  C   UNL     1       6.804   4.976  16.233  0.00  0.00    +0.000 A 
ATOM     28  C   UNL     1       6.983   4.957  17.615  0.00  0.00    +0.000 A 
ATOM     29  C   UNL     1       5.971   4.474  18.446  0.00  0.00    +0.000 A 
ENDBRANCH  23  24
ENDBRANCH  20  23
ENDBRANCH  18  20
ENDBRANCH   4  18
TORSDOF 7
ENDMDL
MODEL 2
REMARK VINA RESULT:      -7.4      0.621      1.120
REMARK  Name = 
REMARK  7 active torsions:
REMARK  status: ('A' for Active; 'I' for Inactive)
REMARK    1  A    between atoms: C_5  and  C_6
REMARK    2  A    between atoms: C_9  and  N_10
REMARK    3  A    between atoms: N_10  and  S_11
REMARK    4  A    between atoms: S_11  and  C_14
REMARK    5  A    between atoms: C_14  and  C_15
REMARK    6  A    between atoms: CA_23  and  C_24
REMARK    7  A    between atoms: C_24  and  O_25
REMARK                            x       y       z     vdW  Elec       q    Type
REMARK                         _______ _______ _______ _____ _____    ______ ____
ROOT
ATOM      1  C   UNL     1       1.142   9.560  19.059  0.00  0.00    +0.000 A 
ATOM      2  C   UNL     1       1.904   9.007  18.017  0.00  0.00    +0.000 A 
ATOM      3  C   UNL     1       2.602   7.804  18.197  0.00  0.00    +0.000 A 
ATOM      4  C   UNL     1       2.537   7.138  19.419  0.00  0.00    +0.000 A 
ATOM      5  C   UNL     1       1.772   7.664  20.456  0.00  0.00    +0.000 A 
ATOM      6  C   UNL     1       1.074   8.861  20.276  0.00  0.00    +0.000 A 
ENDROOT
BRANCH   1  11
ATOM      7  O   UNL     1      -1.985  14.029  19.985  0.00  0.00    +0.000 OA
ATOM      8  C   UNL     1      -1.262  13.092  19.668  0.00  0.00    +0.000 C 
ATOM      9  C   UNL     1      -1.792  11.752  19.158  0.00  0.00    +0.000 C 
ATOM     10  O   UNL     1      -0.942  10.635  19.392  0.00  0.00    +0.000 OA
ATOM     11  C   UNL     1       0.377  10.860  18.861  0.00  0.00    +0.000 C 
ATOM     12  CA  UNL     1       1.023  12.092  19.562  0.00  0.00    +0.000 C 
ATOM     13  N   UNL     1       0.102  13.234  19.656  0.00  0.00    +0.000 N 
ATOM     14  H   UNL     1       0.422  14.065  20.141  0.00  0.00    +0.000 HD
BRANCH  12  15
ATOM     15  C   UNL     1       2.299  12.546  18.835  0.00  0.00    +0.000 C 
BRANCH  15  16
ATOM     16  O   UNL     1       2.085  12.576  17.422  0.00  0.00    +0.000 OA
ATOM     17  H   UNL     1       1.274  12.067  17.243  0.00  0.00    +0.000 HD
ENDBRANCH  15  16
ENDBRANCH  12  15
ENDBRANCH   1  11
BRANCH   4  18
ATOM     18  N   UNL     1       3.254   5.927  19.653  0.00  0.00    +0.000 N 
ATOM     19  H   UNL     1       3.530   5.787  20.629  0.00  0.00    +0.000 HD
BRANCH  18  20
ATOM     20  S   UNL     1       2.544   4.478  19.114  0.00  0.00    +0.000 S 
ATOM     21  O   UNL     1       2.051   3.850  20.321  0.00  0.00    +0.000 OA
ATOM     22  O   UNL     1       1.640   4.809  18.031  0.00  0.00    +0.000 OA
BRANCH  20  23
ATOM     23  C   UNL     1       3.965   3.549  18.493  0.00  0.00    +0.000 C 
BRANCH  23  24
ATOM     24  C   UNL     1       4.971   4.529  17.945  0.00  0.00    +0.000 A 
ATOM     25  C   UNL     1       6.113   4.862  18.688  0.00  0.00    +0.000 A 
ATOM     26  C   UNL     1       7.008   5.825  18.217  0.00  0.00    +0.000 A 
ATOM     27  C   UNL     1       6.774   6.459  16.999  0.00  0.00    +0.000 A 
ATOM     28  C   UNL     1       5.651   6.124  16.245  0.00  0.00    +0.000 A 
ATOM     29  C   UNL     1       4.754   5.163  16.713  0.00  0.00    +0.000 A 
ENDBRANCH  23  24
ENDBRANCH  20  23
ENDBRANCH  18  20
ENDBRANCH   4  18
TORSDOF 7
ENDMDL
MODEL 3
REMARK VINA RESULT:      -7.4      2.430      3.696
REMARK  Name = 
REMARK  7 active torsions:
REMARK  status: ('A' for Active; 'I' for Inactive)
REMARK    1  A    between atoms: C_5  and  C_6
REMARK    2  A    between atoms: C_9  and  N_10
REMARK    3  A    between atoms: N_10  and  S_11
REMARK    4  A    between atoms: S_11  and  C_14
REMARK    5  A    between atoms: C_14  and  C_15
REMARK    6  A    between atoms: CA_23  and  C_24
REMARK    7  A    between atoms: C_24  and  O_25
REMARK                            x       y       z     vdW  Elec       q    Type
REMARK                         _______ _______ _______ _____ _____    ______ ____
ROOT
ATOM      1  C   UNL     1       2.070   8.277  18.971  0.00  0.00    +0.000 A 
ATOM      2  C   UNL     1       2.915   8.169  17.854  0.00  0.00    +0.000 A 
ATOM      3  C   UNL     1       3.706   7.027  17.659  0.00  0.00    +0.000 A 
ATOM      4  C   UNL     1       3.655   5.981  18.577  0.00  0.00    +0.000 A 
ATOM      5  C   UNL     1       2.811   6.066  19.681  0.00  0.00    +0.000 A 
ATOM      6  C   UNL     1       2.020   7.201  19.872  0.00  0.00    +0.000 A 
ENDROOT
BRANCH   1  11
ATOM      7  O   UNL     1      -2.311  11.622  19.441  0.00  0.00    +0.000 OA
ATOM      8  C   UNL     1      -1.271  10.977  19.384  0.00  0.00    +0.000 C 
ATOM      9  C   UNL     1      -0.498  10.735  18.087  0.00  0.00    +0.000 C 
ATOM     10  O   UNL     1       0.293   9.553  18.065  0.00  0.00    +0.000 OA
ATOM     11  C   UNL     1       1.204   9.511  19.178  0.00  0.00    +0.000 C 
ATOM     12  CA  UNL     1       0.403   9.509  20.514  0.00  0.00    +0.000 C 
ATOM     13  N   UNL     1      -0.673  10.511  20.526  0.00  0.00    +0.000 N 
ATOM     14  H   UNL     1      -1.278  10.550  21.340  0.00  0.00    +0.000 HD
BRANCH  12  15
ATOM     15  C   UNL     1       1.322   9.757  21.720  0.00  0.00    +0.000 C 
BRANCH  15  16
ATOM     16  O   UNL     1       0.590   9.630  22.942  0.00  0.00    +0.000 OA
ATOM     17  H   UNL     1       0.706  10.462  23.434  0.00  0.00    +0.000 HD
ENDBRANCH  15  16
ENDBRANCH  12  15
ENDBRANCH   1  11
BRANCH   4  18
ATOM     18  N   UNL     1       4.465   4.815  18.431  0.00  0.00    +0.000 N 
ATOM     19  H   UNL     1       4.586   4.280  19.296  0.00  0.00    +0.000 HD
BRANCH  18  20
ATOM     20  S   UNL     1       4.040   3.712  17.208  0.00  0.00    +0.000 S 
ATOM     21  O   UNL     1       2.737   4.157  16.761  0.00  0.00    +0.000 OA
ATOM     22  O   UNL     1       5.152   3.635  16.281  0.00  0.00    +0.000 OA
BRANCH  20  23
ATOM     23  C   UNL     1       3.864   2.160  18.118  0.00  0.00    +0.000 C 
BRANCH  23  24
ATOM     24  C   UNL     1       2.925   2.392  19.275  0.00  0.00    +0.000 A 
ATOM     25  C   UNL     1       1.556   2.599  19.045  0.00  0.00    +0.000 A 
ATOM     26  C   UNL     1       0.697   2.889  20.107  0.00  0.00    +0.000 A 
ATOM     27  C   UNL     1       1.194   2.968  21.405  0.00  0.00    +0.000 A 
ATOM     28  C   UNL     1       2.548   2.747  21.646  0.00  0.00    +0.000 A 
ATOM     29  C   UNL     1       3.411   2.458  20.588  0.00  0.00    +0.000 A 
ENDBRANCH  23  24
ENDBRANCH  20  23
ENDBRANCH  18  20
ENDBRANCH   4  18
TORSDOF 7
ENDMDL
MODEL 4
REMARK VINA RESULT:      -7.4      1.482      1.913
REMARK  Name = 
REMARK  7 active torsions:
REMARK  status: ('A' for Active; 'I' for Inactive)
REMARK    1  A    between atoms: C_5  and  C_6
REMARK    2  A    between atoms: C_9  and  N_10
REMARK    3  A    between atoms: N_10  and  S_11
REMARK    4  A    between atoms: S_11  and  C_14
REMARK    5  A    between atoms: C_14  and  C_15
REMARK    6  A    between atoms: CA_23  and  C_24
REMARK    7  A    between atoms: C_24  and  O_25
REMARK                            x       y       z     vdW  Elec       q    Type
REMARK                         _______ _______ _______ _____ _____    ______ ____
ROOT
ATOM      1  C   UNL     1       1.040   9.487  19.058  0.00  0.00    +0.000 A 
ATOM      2  C   UNL     1       1.809   9.164  17.928  0.00  0.00    +0.000 A 
ATOM      3  C   UNL     1       2.656   8.046  17.931  0.00  0.00    +0.000 A 
ATOM      4  C   UNL     1       2.737   7.238  19.063  0.00  0.00    +0.000 A 
ATOM      5  C   UNL     1       1.969   7.535  20.185  0.00  0.00    +0.000 A 
ATOM      6  C   UNL     1       1.122   8.645  20.180  0.00  0.00    +0.000 A 
ENDROOT
BRANCH   1  11
ATOM      7  O   UNL     1      -3.256  12.837  20.021  0.00  0.00    +0.000 OA
ATOM      8  C   UNL     1      -2.245  12.197  19.759  0.00  0.00    +0.000 C 
ATOM      9  C   UNL     1      -2.130  11.254  18.561  0.00  0.00    +0.000 C 
ATOM     10  O   UNL     1      -1.194  10.194  18.712  0.00  0.00    +0.000 OA
ATOM     11  C   UNL     1       0.112  10.693  19.052  0.00  0.00    +0.000 C 
ATOM     12  CA  UNL     1       0.048  11.453  20.410  0.00  0.00    +0.000 C 
ATOM     13  N   UNL     1      -1.096  12.374  20.486  0.00  0.00    +0.000 N 
ATOM     14  H   UNL     1      -1.245  12.877  21.354  0.00  0.00    +0.000 HD
BRANCH  12  15
ATOM     15  C   UNL     1       1.338  12.246  20.672  0.00  0.00    +0.000 C 
BRANCH  15  16
ATOM     16  O   UNL     1       1.073  13.365  21.522  0.00  0.00    +0.000 OA
ATOM     17  H   UNL     1       1.934  13.719  21.807  0.00  0.00    +0.000 HD
ENDBRANCH  15  16
ENDBRANCH  12  15
ENDBRANCH   1  11
BRANCH   4  18
ATOM     18  N   UNL     1       3.609   6.108  19.118  0.00  0.00    +0.000 N 
ATOM     19  H   UNL     1       3.847   5.811  20.068  0.00  0.00    +0.000 HD
BRANCH  18  20
ATOM     20  S   UNL     1       3.148   4.719  18.252  0.00  0.00    +0.000 S 
ATOM     21  O   UNL     1       3.440   3.623  19.151  0.00  0.00    +0.000 OA
ATOM     22  O   UNL     1       1.801   4.933  17.763  0.00  0.00    +0.000 OA
BRANCH  20  23
ATOM     23  C   UNL     1       4.325   4.699  16.881  0.00  0.00    +0.000 C 
BRANCH  23  24
ATOM     24  C   UNL     1       5.579   5.411  17.321  0.00  0.00    +0.000 A 
ATOM     25  C   UNL     1       6.457   4.802  18.230  0.00  0.00    +0.000 A 
ATOM     26  C   UNL     1       7.580   5.487  18.698  0.00  0.00    +0.000 A 
ATOM     27  C   UNL     1       7.839   6.783  18.258  0.00  0.00    +0.000 A 
ATOM     28  C   UNL     1       6.983   7.391  17.342  0.00  0.00    +0.000 A 
ATOM     29  C   UNL     1       5.859   6.710  16.873  0.00  0.00    +0.000 A 
ENDBRANCH  23  24
ENDBRANCH  20  23
ENDBRANCH  18  20
ENDBRANCH   4  18
TORSDOF 7
ENDMDL
MODEL 5
REMARK VINA RESULT:      -7.4      2.829      8.584
REMARK  Name = 
REMARK  7 active torsions:
REMARK  status: ('A' for Active; 'I' for Inactive)
REMARK    1  A    between atoms: C_5  and  C_6
REMARK    2  A    between atoms: C_9  and  N_10
REMARK    3  A    between atoms: N_10  and  S_11
REMARK    4  A    between atoms: S_11  and  C_14
REMARK    5  A    between atoms: C_14  and  C_15
REMARK    6  A    between atoms: CA_23  and  C_24
REMARK    7  A    between atoms: C_24  and  O_25
REMARK                            x       y       z     vdW  Elec       q    Type
REMARK                         _______ _______ _______ _____ _____    ______ ____
ROOT
ATOM      1  C   UNL     1       2.993   6.646  19.244  0.00  0.00    +0.000 A 
ATOM      2  C   UNL     1       2.136   7.366  20.094  0.00  0.00    +0.000 A 
ATOM      3  C   UNL     1       1.534   8.557  19.665  0.00  0.00    +0.000 A 
ATOM      4  C   UNL     1       1.777   9.036  18.380  0.00  0.00    +0.000 A 
ATOM      5  C   UNL     1       2.611   8.327  17.520  0.00  0.00    +0.000 A 
ATOM      6  C   UNL     1       3.207   7.138  17.946  0.00  0.00    +0.000 A 
ENDROOT
BRANCH   1  11
ATOM      7  O   UNL     1       4.462   1.324  19.594  0.00  0.00    +0.000 OA
ATOM      8  C   UNL     1       4.228   2.527  19.602  0.00  0.00    +0.000 C 
ATOM      9  C   UNL     1       3.043   3.151  20.340  0.00  0.00    +0.000 C 
ATOM     10  O   UNL     1       2.576   4.383  19.803  0.00  0.00    +0.000 OA
ATOM     11  C   UNL     1       3.639   5.348  19.705  0.00  0.00    +0.000 C 
ATOM     12  CA  UNL     1       4.748   4.815  18.749  0.00  0.00    +0.000 C 
ATOM     13  N   UNL     1       5.097   3.412  19.020  0.00  0.00    +0.000 N 
ATOM     14  H   UNL     1       5.778   2.966  18.414  0.00  0.00    +0.000 HD
BRANCH  12  15
ATOM     15  C   UNL     1       6.023   5.667  18.838  0.00  0.00    +0.000 C 
BRANCH  15  16
ATOM     16  O   UNL     1       6.835   5.239  19.935  0.00  0.00    +0.000 OA
ATOM     17  H   UNL     1       6.596   4.315  20.125  0.00  0.00    +0.000 HD
ENDBRANCH  15  16
ENDBRANCH  12  15
ENDBRANCH   1  11
BRANCH   4  18
ATOM     18  N   UNL     1       1.207  10.260  17.914  0.00  0.00    +0.000 N 
ATOM     19  H   UNL     1       0.640  10.161  17.068  0.00  0.00    +0.000 HD
BRANCH  18  20
ATOM     20  S   UNL     1       0.304  11.177  19.026  0.00  0.00    +0.000 S 
ATOM     21  O   UNL     1       1.083  11.131  20.245  0.00  0.00    +0.000 OA
ATOM     22  O   UNL     1      -0.009  12.445  18.397  0.00  0.00    +0.000 OA
BRANCH  20  23
ATOM     23  C   UNL     1      -1.193  10.185  19.233  0.00  0.00    +0.000 C 
BRANCH  23  24
ATOM     24  C   UNL     1      -2.117  10.472  18.077  0.00  0.00    +0.000 A 
ATOM     25  C   UNL     1      -3.214  11.329  18.243  0.00  0.00    +0.000 A 
ATOM     26  C   UNL     1      -4.115  11.538  17.196  0.00  0.00    +0.000 A 
ATOM     27  C   UNL     1      -3.924  10.899  15.974  0.00  0.00    +0.000 A 
ATOM     28  C   UNL     1      -2.827  10.058  15.793  0.00  0.00    +0.000 A 
ATOM     29  C   UNL     1      -1.926   9.846  16.836  0.00  0.00    +0.000 A 
ENDBRANCH  23  24
ENDBRANCH  20  23
ENDBRANCH  18  20
ENDBRANCH   4  18
TORSDOF 7
ENDMDL
MODEL 6
REMARK VINA RESULT:      -7.3      1.176      1.729
REMARK  Name = 
REMARK  7 active torsions:
REMARK  status: ('A' for Active; 'I' for Inactive)
REMARK    1  A    between atoms: C_5  and  C_6
REMARK    2  A    between atoms: C_9  and  N_10
REMARK    3  A    between atoms: N_10  and  S_11
REMARK    4  A    between atoms: S_11  and  C_14
REMARK    5  A    between atoms: C_14  and  C_15
REMARK    6  A    between atoms: CA_23  and  C_24
REMARK    7  A    between atoms: C_24  and  O_25
REMARK                            x       y       z     vdW  Elec       q    Type
REMARK                         _______ _______ _______ _____ _____    ______ ____
ROOT
ATOM      1  C   UNL     1       1.101   9.679  19.276  0.00  0.00    +0.000 A 
ATOM      2  C   UNL     1       1.743   9.299  18.086  0.00  0.00    +0.000 A 
ATOM      3  C   UNL     1       2.442   8.086  18.003  0.00  0.00    +0.000 A 
ATOM      4  C   UNL     1       2.500   7.239  19.107  0.00  0.00    +0.000 A 
ATOM      5  C   UNL     1       1.855   7.594  20.289  0.00  0.00    +0.000 A 
ATOM      6  C   UNL     1       1.155   8.799  20.370  0.00  0.00    +0.000 A 
ENDROOT
BRANCH   1  11
ATOM      7  O   UNL     1      -0.464  14.932  18.527  0.00  0.00    +0.000 OA
ATOM      8  C   UNL     1      -0.230  13.750  18.750  0.00  0.00    +0.000 C 
ATOM      9  C   UNL     1       0.687  13.269  19.874  0.00  0.00    +0.000 C 
ATOM     10  O   UNL     1       1.307  12.008  19.653  0.00  0.00    +0.000 OA
ATOM     11  C   UNL     1       0.332  10.989  19.364  0.00  0.00    +0.000 C 
ATOM     12  CA  UNL     1      -0.446  11.359  18.066  0.00  0.00    +0.000 C 
ATOM     13  N   UNL     1      -0.876  12.765  18.049  0.00  0.00    +0.000 N 
ATOM     14  H   UNL     1      -1.350  13.108  17.220  0.00  0.00    +0.000 HD
BRANCH  12  15
ATOM     15  C   UNL     1      -1.681  10.463  17.878  0.00  0.00    +0.000 C 
BRANCH  15  16
ATOM     16  O   UNL     1      -1.889  10.184  16.491  0.00  0.00    +0.000 OA
ATOM     17  H   UNL     1      -1.595   9.269  16.334  0.00  0.00    +0.000 HD
ENDBRANCH  15  16
ENDBRANCH  12  15
ENDBRANCH   1  11
BRANCH   4  18
ATOM     18  N   UNL     1       3.226   6.010  19.073  0.00  0.00    +0.000 N 
ATOM     19  H   UNL     1       3.818   5.853  19.893  0.00  0.00    +0.000 HD
BRANCH  18  20
ATOM     20  S   UNL     1       2.339   4.583  18.806  0.00  0.00    +0.000 S 
ATOM     21  O   UNL     1       1.720   4.302  20.084  0.00  0.00    +0.000 OA
ATOM     22  O   UNL     1       1.530   4.785  17.621  0.00  0.00    +0.000 OA
BRANCH  20  23
ATOM     23  C   UNL     1       3.637   3.366  18.489  0.00  0.00    +0.000 C 
BRANCH  23  24
ATOM     24  C   UNL     1       4.737   4.036  17.705  0.00  0.00    +0.000 A 
ATOM     25  C   UNL     1       4.617   4.201  16.317  0.00  0.00    +0.000 A 
ATOM     26  C   UNL     1       5.664   4.754  15.577  0.00  0.00    +0.000 A 
ATOM     27  C   UNL     1       6.836   5.152  16.216  0.00  0.00    +0.000 A 
ATOM     28  C   UNL     1       6.959   5.008  17.596  0.00  0.00    +0.000 A 
ATOM     29  C   UNL     1       5.915   4.455  18.339  0.00  0.00    +0.000 A 
ENDBRANCH  23  24
ENDBRANCH  20  23
ENDBRANCH  18  20
ENDBRANCH   4  18
TORSDOF 7
ENDMDL
MODEL 7
REMARK VINA RESULT:      -7.3      2.261      3.801
REMARK  Name = 
REMARK  7 active torsions:
REMARK  status: ('A' for Active; 'I' for Inactive)
REMARK    1  A    between atoms: C_5  and  C_6
REMARK    2  A    between atoms: C_9  and  N_10
REMARK    3  A    between atoms: N_10  and  S_11
REMARK    4  A    between atoms: S_11  and  C_14
REMARK    5  A    between atoms: C_14  and  C_15
REMARK    6  A    between atoms: CA_23  and  C_24
REMARK    7  A    between atoms: C_24  and  O_25
REMARK                            x       y       z     vdW  Elec       q    Type
REMARK                         _______ _______ _______ _____ _____    ______ ____
ROOT
ATOM      1  C   UNL     1       1.491   9.055  20.019  0.00  0.00    +0.000 A 
ATOM      2  C   UNL     1       1.663   7.807  20.641  0.00  0.00    +0.000 A 
ATOM      3  C   UNL     1       2.062   6.685  19.901  0.00  0.00    +0.000 A 
ATOM      4  C   UNL     1       2.298   6.801  18.533  0.00  0.00    +0.000 A 
ATOM      5  C   UNL     1       2.147   8.034  17.905  0.00  0.00    +0.000 A 
ATOM      6  C   UNL     1       1.755   9.153  18.643  0.00  0.00    +0.000 A 
ENDROOT
BRANCH   1  11
ATOM      7  O   UNL     1      -1.060  13.704  21.596  0.00  0.00    +0.000 OA
ATOM      8  C   UNL     1      -0.449  12.667  21.366  0.00  0.00    +0.000 C 
ATOM      9  C   UNL     1       0.870  12.619  20.593  0.00  0.00    +0.000 C 
ATOM     10  O   UNL     1       1.133  11.394  19.920  0.00  0.00    +0.000 OA
ATOM     11  C   UNL     1       1.069  10.276  20.823  0.00  0.00    +0.000 C 
ATOM     12  CA  UNL     1      -0.361  10.173  21.433  0.00  0.00    +0.000 C 
ATOM     13  N   UNL     1      -0.872  11.474  21.890  0.00  0.00    +0.000 N 
ATOM     14  H   UNL     1      -1.817  11.511  22.259  0.00  0.00    +0.000 HD
BRANCH  12  15
ATOM     15  C   UNL     1      -0.400   9.186  22.611  0.00  0.00    +0.000 C 
BRANCH  15  16
ATOM     16  O   UNL     1       0.346   9.699  23.718  0.00  0.00    +0.000 OA
ATOM     17  H   UNL     1       1.047  10.268  23.353  0.00  0.00    +0.000 HD
ENDBRANCH  15  16
ENDBRANCH  12  15
ENDBRANCH   1  11
BRANCH   4  18
ATOM     18  N   UNL     1       2.676   5.677  17.738  0.00  0.00    +0.000 N 
ATOM     19  H   UNL     1       2.397   5.748  16.756  0.00  0.00    +0.000 HD
BRANCH  18  20
ATOM     20  S   UNL     1       4.311   5.209  17.769  0.00  0.00    +0.000 S 
ATOM     21  O   UNL     1       4.778   5.448  16.419  0.00  0.00    +0.000 OA
ATOM     22  O   UNL     1       4.936   5.874  18.895  0.00  0.00    +0.000 OA
BRANCH  20  23
ATOM     23  C   UNL     1       4.207   3.429  18.061  0.00  0.00    +0.000 C 
BRANCH  23  24
ATOM     24  C   UNL     1       3.124   3.177  19.079  0.00  0.00    +0.000 A 
ATOM     25  C   UNL     1       1.801   2.961  18.667  0.00  0.00    +0.000 A 
ATOM     26  C   UNL     1       0.783   2.802  19.609  0.00  0.00    +0.000 A 
ATOM     27  C   UNL     1       1.077   2.850  20.969  0.00  0.00    +0.000 A 
ATOM     28  C   UNL     1       2.391   3.047  21.390  0.00  0.00    +0.000 A 
ATOM     29  C   UNL     1       3.411   3.208  20.451  0.00  0.00    +0.000 A 
ENDBRANCH  23  24
ENDBRANCH  20  23
ENDBRANCH  18  20
ENDBRANCH   4  18
TORSDOF 7
ENDMDL
MODEL 8
REMARK VINA RESULT:      -7.3      2.308      3.746
REMARK  Name = 
REMARK  7 active torsions:
REMARK  status: ('A' for Active; 'I' for Inactive)
REMARK    1  A    between atoms: C_5  and  C_6
REMARK    2  A    between atoms: C_9  and  N_10
REMARK    3  A    between atoms: N_10  and  S_11
REMARK    4  A    between atoms: S_11  and  C_14
REMARK    5  A    between atoms: C_14  and  C_15
REMARK    6  A    between atoms: CA_23  and  C_24
REMARK    7  A    between atoms: C_24  and  O_25
REMARK                            x       y       z     vdW  Elec       q    Type
REMARK                         _______ _______ _______ _____ _____    ______ ____
ROOT
ATOM      1  C   UNL     1       1.760   8.703  19.314  0.00  0.00    +0.000 A 
ATOM      2  C   UNL     1       1.788   7.517  20.066  0.00  0.00    +0.000 A 
ATOM      3  C   UNL     1       2.412   6.364  19.566  0.00  0.00    +0.000 A 
ATOM      4  C   UNL     1       3.019   6.389  18.313  0.00  0.00    +0.000 A 
ATOM      5  C   UNL     1       3.014   7.562  17.562  0.00  0.00    +0.000 A 
ATOM      6  C   UNL     1       2.397   8.711  18.061  0.00  0.00    +0.000 A 
ENDROOT
BRANCH   1  11
ATOM      7  O   UNL     1      -2.002  12.582  20.501  0.00  0.00    +0.000 OA
ATOM      8  C   UNL     1      -1.093  11.780  20.323  0.00  0.00    +0.000 C 
ATOM      9  C   UNL     1      -0.160  11.816  19.113  0.00  0.00    +0.000 C 
ATOM     10  O   UNL     1       0.410  10.564  18.748  0.00  0.00    +0.000 OA
ATOM     11  C   UNL     1       1.094   9.957  19.859  0.00  0.00    +0.000 C 
ATOM     12  CA  UNL     1       0.085   9.690  21.016  0.00  0.00    +0.000 C 
ATOM     13  N   UNL     1      -0.790  10.843  21.277  0.00  0.00    +0.000 N 
ATOM     14  H   UNL     1      -1.511  10.742  21.983  0.00  0.00    +0.000 HD
BRANCH  12  15
ATOM     15  C   UNL     1       0.811   9.316  22.318  0.00  0.00    +0.000 C 
BRANCH  15  16
ATOM     16  O   UNL     1       0.234  10.009  23.428  0.00  0.00    +0.000 OA
ATOM     17  H   UNL     1       0.820   9.866  24.192  0.00  0.00    +0.000 HD
ENDBRANCH  15  16
ENDBRANCH  12  15
ENDBRANCH   1  11
BRANCH   4  18
ATOM     18  N   UNL     1       3.638   5.230  17.755  0.00  0.00    +0.000 N 
ATOM     19  H   UNL     1       3.808   5.291  16.748  0.00  0.00    +0.000 HD
BRANCH  18  20
ATOM     20  S   UNL     1       5.077   4.684  18.480  0.00  0.00    +0.000 S 
ATOM     21  O   UNL     1       6.055   4.732  17.414  0.00  0.00    +0.000 OA
ATOM     22  O   UNL     1       5.272   5.447  19.696  0.00  0.00    +0.000 OA
BRANCH  20  23
ATOM     23  C   UNL     1       4.695   2.960  18.866  0.00  0.00    +0.000 C 
BRANCH  23  24
ATOM     24  C   UNL     1       3.265   2.884  19.337  0.00  0.00    +0.000 A 
ATOM     25  C   UNL     1       2.237   2.580  18.432  0.00  0.00    +0.000 A 
ATOM     26  C   UNL     1       0.904   2.582  18.848  0.00  0.00    +0.000 A 
ATOM     27  C   UNL     1       0.586   2.882  20.171  0.00  0.00    +0.000 A 
ATOM     28  C   UNL     1       1.601   3.169  21.082  0.00  0.00    +0.000 A 
ATOM     29  C   UNL     1       2.934   3.169  20.670  0.00  0.00    +0.000 A 
ENDBRANCH  23  24
ENDBRANCH  20  23
ENDBRANCH  18  20
ENDBRANCH   4  18
TORSDOF 7
ENDMDL
MODEL 9
REMARK VINA RESULT:      -7.3      1.177      1.900
REMARK  Name = 
REMARK  7 active torsions:
REMARK  status: ('A' for Active; 'I' for Inactive)
REMARK    1  A    between atoms: C_5  and  C_6
REMARK    2  A    between atoms: C_9  and  N_10
REMARK    3  A    between atoms: N_10  and  S_11
REMARK    4  A    between atoms: S_11  and  C_14
REMARK    5  A    between atoms: C_14  and  C_15
REMARK    6  A    between atoms: CA_23  and  C_24
REMARK    7  A    between atoms: C_24  and  O_25
REMARK                            x       y       z     vdW  Elec       q    Type
REMARK                         _______ _______ _______ _____ _____    ______ ____
ROOT
ATOM      1  C   UNL     1       0.885   9.636  19.543  0.00  0.00    +0.000 A 
ATOM      2  C   UNL     1       1.093   8.759  20.620  0.00  0.00    +0.000 A 
ATOM      3  C   UNL     1       1.844   7.586  20.456  0.00  0.00    +0.000 A 
ATOM      4  C   UNL     1       2.401   7.284  19.216  0.00  0.00    +0.000 A 
ATOM      5  C   UNL     1       2.219   8.152  18.143  0.00  0.00    +0.000 A 
ATOM      6  C   UNL     1       1.474   9.322  18.307  0.00  0.00    +0.000 A 
ENDROOT
BRANCH   1  11
ATOM      7  O   UNL     1      -0.760  14.912  19.279  0.00  0.00    +0.000 OA
ATOM      8  C   UNL     1      -0.512  13.717  19.384  0.00  0.00    +0.000 C 
ATOM      9  C   UNL     1       0.337  13.127  20.510  0.00  0.00    +0.000 C 
ATOM     10  O   UNL     1       1.003  11.910  20.194  0.00  0.00    +0.000 OA
ATOM     11  C   UNL     1       0.079  10.914  19.722  0.00  0.00    +0.000 C 
ATOM     12  CA  UNL     1      -0.617  11.415  18.421  0.00  0.00    +0.000 C 
ATOM     13  N   UNL     1      -1.081  12.806  18.531  0.00  0.00    +0.000 N 
ATOM     14  H   UNL     1      -1.504  13.233  17.714  0.00  0.00    +0.000 HD
BRANCH  12  15
ATOM     15  C   UNL     1      -1.811  10.525  18.043  0.00  0.00    +0.000 C 
BRANCH  15  16
ATOM     16  O   UNL     1      -1.713  10.110  16.679  0.00  0.00    +0.000 OA
ATOM     17  H   UNL     1      -1.705  10.916  16.133  0.00  0.00    +0.000 HD
ENDBRANCH  15  16
ENDBRANCH  12  15
ENDBRANCH   1  11
BRANCH   4  18
ATOM     18  N   UNL     1       3.148   6.087  19.000  0.00  0.00    +0.000 N 
ATOM     19  H   UNL     1       3.877   5.917  19.698  0.00  0.00    +0.000 HD
BRANCH  18  20
ATOM     20  S   UNL     1       2.274   4.639  18.816  0.00  0.00    +0.000 S 
ATOM     21  O   UNL     1       1.585   4.475  20.078  0.00  0.00    +0.000 OA
ATOM     22  O   UNL     1       1.531   4.730  17.575  0.00  0.00    +0.000 OA
BRANCH  20  23
ATOM     23  C   UNL     1       3.584   3.401  18.682  0.00  0.00    +0.000 C 
BRANCH  23  24
ATOM     24  C   UNL     1       4.711   3.987  17.871  0.00  0.00    +0.000 A 
ATOM     25  C   UNL     1       4.626   4.035  16.471  0.00  0.00    +0.000 A 
ATOM     26  C   UNL     1       5.698   4.508  15.712  0.00  0.00    +0.000 A 
ATOM     27  C   UNL     1       6.861   4.943  16.343  0.00  0.00    +0.000 A 
ATOM     28  C   UNL     1       6.950   4.916  17.734  0.00  0.00    +0.000 A 
ATOM     29  C   UNL     1       5.881   4.443  18.496  0.00  0.00    +0.000 A 
ENDBRANCH  23  24
ENDBRANCH  20  23
ENDBRANCH  18  20
ENDBRANCH   4  18
TORSDOF 7
ENDMDL
