MODEL 1
REMARK VINA RESULT:      -8.2      0.000      0.000
REMARK  Name = 
REMARK  4 active torsions:
REMARK  status: ('A' for Active; 'I' for Inactive)
REMARK    1  A    between atoms: C_1  and  C_2
REMARK    2  A    between atoms: C_7  and  C_8
REMARK    3  A    between atoms: C_13  and  C_14
REMARK    4  A    between atoms: C_14  and  C_15
REMARK                            x       y       z     vdW  Elec       q    Type
REMARK                         _______ _______ _______ _____ _____    ______ ____
ROOT
ATOM      1  C   UNL     1       4.157   4.322  17.946  0.00  0.00    +0.000 C 
ATOM      2  O   UNL     1       3.637   3.882  16.919  0.00  0.00    +0.000 OA
ATOM      3  N   UNL     1       5.399   5.036  17.892  0.00  0.00    +0.000 N 
ATOM      4  C   UNL     1       5.846   5.444  16.558  0.00  0.00    +0.000 C 
ATOM      5  C   UNL     1       7.270   6.016  16.427  0.00  0.00    +0.000 C 
ATOM      6  C   UNL     1       7.810   6.821  17.614  0.00  0.00    +0.000 C 
ATOM      7  C   UNL     1       7.464   6.041  18.893  0.00  0.00    +0.000 C 
ATOM      8  C   UNL     1       5.976   5.729  19.042  0.00  0.00    +0.000 C 
ENDROOT
BRANCH   1  15
ATOM      9  C   UNL     1       2.385   6.430  19.381  0.00  0.00    +0.000 C 
ATOM     10  C   UNL     1       2.593   5.027  19.871  0.00  0.00    +0.000 A 
ATOM     11  C   UNL     1       1.931   4.653  21.057  0.00  0.00    +0.000 A 
ATOM     12  C   UNL     1       2.135   3.397  21.613  0.00  0.00    +0.000 A 
ATOM     13  C   UNL     1       3.038   2.559  20.994  0.00  0.00    +0.000 A 
ATOM     14  N   UNL     1       3.693   2.870  19.856  0.00  0.00    +0.000 NA
ATOM     15  C   UNL     1       3.441   4.076  19.272  0.00  0.00    +0.000 A 
ENDBRANCH   1  15
BRANCH   6  16
ATOM     16  C   UNL     1       7.350   8.298  17.696  0.00  0.00    +0.000 C 
BRANCH  16  17
ATOM     17  C   UNL     1       8.292   9.398  18.165  0.00  0.00    +0.000 A 
ATOM     18  C   UNL     1       9.034   9.363  19.351  0.00  0.00    +0.000 A 
ATOM     19  N   UNL     1       9.768  10.384  19.880  0.00  0.00    +0.000 NA
ATOM     20  C   UNL     1       9.707  11.517  19.152  0.00  0.00    +0.000 A 
ATOM     21  N   UNL     1      10.313  12.700  19.480  0.00  0.00    +0.000 N 
ATOM     22  C   UNL     1      10.019  13.652  18.537  0.00  0.00    +0.000 A 
ATOM     23  C   UNL     1       9.236  13.058  17.568  0.00  0.00    +0.000 A 
ATOM     24  C   UNL     1       9.026  11.703  17.958  0.00  0.00    +0.000 A 
ATOM     25  C   UNL     1       8.301  10.606  17.447  0.00  0.00    +0.000 A 
ATOM     26  H   UNL     1      10.864  12.836  20.316  0.00  0.00    +0.000 HD
ENDBRANCH  16  17
ENDBRANCH   6  16
TORSDOF 3
ENDMDL
MODEL 2
REMARK VINA RESULT:      -7.9      0.793      1.423
REMARK  Name = 
REMARK  4 active torsions:
REMARK  status: ('A' for Active; 'I' for Inactive)
REMARK    1  A    between atoms: C_1  and  C_2
REMARK    2  A    between atoms: C_7  and  C_8
REMARK    3  A    between atoms: C_13  and  C_14
REMARK    4  A    between atoms: C_14  and  C_15
REMARK                            x       y       z     vdW  Elec       q    Type
REMARK                         _______ _______ _______ _____ _____    ______ ____
ROOT
ATOM      1  C   UNL     1       4.015   4.119  17.806  0.00  0.00    +0.000 C 
ATOM      2  O   UNL     1       3.563   3.644  16.762  0.00  0.00    +0.000 OA
ATOM      3  N   UNL     1       5.259   4.832  17.808  0.00  0.00    +0.000 N 
ATOM      4  C   UNL     1       5.792   5.196  16.492  0.00  0.00    +0.000 C 
ATOM      5  C   UNL     1       7.221   5.765  16.434  0.00  0.00    +0.000 C 
ATOM      6  C   UNL     1       7.685   6.610  17.625  0.00  0.00    +0.000 C 
ATOM      7  C   UNL     1       7.256   5.873  18.905  0.00  0.00    +0.000 C 
ATOM      8  C   UNL     1       5.762   5.564  18.968  0.00  0.00    +0.000 C 
ENDROOT
BRANCH   1  15
ATOM      9  C   UNL     1       4.569   1.855  19.857  0.00  0.00    +0.000 C 
ATOM     10  C   UNL     1       3.527   2.920  20.035  0.00  0.00    +0.000 A 
ATOM     11  C   UNL     1       2.761   2.882  21.217  0.00  0.00    +0.000 A 
ATOM     12  C   UNL     1       1.728   3.788  21.418  0.00  0.00    +0.000 A 
ATOM     13  C   UNL     1       1.451   4.682  20.405  0.00  0.00    +0.000 A 
ATOM     14  N   UNL     1       2.158   4.760  19.258  0.00  0.00    +0.000 NA
ATOM     15  C   UNL     1       3.216   3.917  19.090  0.00  0.00    +0.000 A 
ENDBRANCH   1  15
BRANCH   6  16
ATOM     16  C   UNL     1       7.222   8.089  17.629  0.00  0.00    +0.000 C 
BRANCH  16  17
ATOM     17  C   UNL     1       8.148   9.209  18.082  0.00  0.00    +0.000 A 
ATOM     18  C   UNL     1       8.975   9.156  19.209  0.00  0.00    +0.000 A 
ATOM     19  N   UNL     1       9.700  10.185  19.733  0.00  0.00    +0.000 NA
ATOM     20  C   UNL     1       9.538  11.346  19.066  0.00  0.00    +0.000 A 
ATOM     21  N   UNL     1      10.115  12.540  19.407  0.00  0.00    +0.000 N 
ATOM     22  C   UNL     1       9.712  13.517  18.534  0.00  0.00    +0.000 A 
ATOM     23  C   UNL     1       8.887  12.932  17.595  0.00  0.00    +0.000 A 
ATOM     24  C   UNL     1       8.764  11.552  17.934  0.00  0.00    +0.000 A 
ATOM     25  C   UNL     1       8.052  10.447  17.424  0.00  0.00    +0.000 A 
ATOM     26  H   UNL     1      10.719  12.664  20.207  0.00  0.00    +0.000 HD
ENDBRANCH  16  17
ENDBRANCH   6  16
TORSDOF 3
ENDMDL
MODEL 3
REMARK VINA RESULT:      -7.8      4.510      7.480
REMARK  Name = 
REMARK  4 active torsions:
REMARK  status: ('A' for Active; 'I' for Inactive)
REMARK    1  A    between atoms: C_1  and  C_2
REMARK    2  A    between atoms: C_7  and  C_8
REMARK    3  A    between atoms: C_13  and  C_14
REMARK    4  A    between atoms: C_14  and  C_15
REMARK                            x       y       z     vdW  Elec       q    Type
REMARK                         _______ _______ _______ _____ _____    ______ ____
ROOT
ATOM      1  C   UNL     1       4.617   3.883  18.889  0.00  0.00    +0.000 C 
ATOM      2  O   UNL     1       4.901   2.883  19.552  0.00  0.00    +0.000 OA
ATOM      3  N   UNL     1       3.479   4.686  19.225  0.00  0.00    +0.000 N 
ATOM      4  C   UNL     1       2.867   4.418  20.529  0.00  0.00    +0.000 C 
ATOM      5  C   UNL     1       1.521   5.099  20.838  0.00  0.00    +0.000 C 
ATOM      6  C   UNL     1       1.287   6.489  20.238  0.00  0.00    +0.000 C 
ATOM      7  C   UNL     1       1.746   6.438  18.771  0.00  0.00    +0.000 C 
ATOM      8  C   UNL     1       3.189   5.971  18.592  0.00  0.00    +0.000 C 
ENDROOT
BRANCH   1  15
ATOM      9  C   UNL     1       7.169   5.641  19.088  0.00  0.00    +0.000 C 
ATOM     10  C   UNL     1       6.696   4.978  17.827  0.00  0.00    +0.000 A 
ATOM     11  C   UNL     1       7.472   5.169  16.668  0.00  0.00    +0.000 A 
ATOM     12  C   UNL     1       7.059   4.651  15.448  0.00  0.00    +0.000 A 
ATOM     13  C   UNL     1       5.847   3.993  15.407  0.00  0.00    +0.000 A 
ATOM     14  N   UNL     1       5.071   3.782  16.491  0.00  0.00    +0.000 NA
ATOM     15  C   UNL     1       5.510   4.230  17.700  0.00  0.00    +0.000 A 
ENDBRANCH   1  15
BRANCH   6  16
ATOM     16  C   UNL     1       1.929   7.674  21.003  0.00  0.00    +0.000 C 
BRANCH  16  17
ATOM     17  C   UNL     1       1.113   8.896  21.401  0.00  0.00    +0.000 A 
ATOM     18  C   UNL     1       0.809   9.261  22.718  0.00  0.00    +0.000 A 
ATOM     19  N   UNL     1      -0.039  10.253  23.110  0.00  0.00    +0.000 NA
ATOM     20  C   UNL     1      -0.630  10.889  22.078  0.00  0.00    +0.000 A 
ATOM     21  N   UNL     1      -1.555  11.892  22.193  0.00  0.00    +0.000 N 
ATOM     22  C   UNL     1      -1.969  12.289  20.947  0.00  0.00    +0.000 A 
ATOM     23  C   UNL     1      -1.272  11.548  20.014  0.00  0.00    +0.000 A 
ATOM     24  C   UNL     1      -0.426  10.649  20.727  0.00  0.00    +0.000 A 
ATOM     25  C   UNL     1       0.479   9.624  20.380  0.00  0.00    +0.000 A 
ATOM     26  H   UNL     1      -1.890  12.248  23.076  0.00  0.00    +0.000 HD
ENDBRANCH  16  17
ENDBRANCH   6  16
TORSDOF 3
ENDMDL
MODEL 4
REMARK VINA RESULT:      -7.8      4.421      7.491
REMARK  Name = 
REMARK  4 active torsions:
REMARK  status: ('A' for Active; 'I' for Inactive)
REMARK    1  A    between atoms: C_1  and  C_2
REMARK    2  A    between atoms: C_7  and  C_8
REMARK    3  A    between atoms: C_13  and  C_14
REMARK    4  A    between atoms: C_14  and  C_15
REMARK                            x       y       z     vdW  Elec       q    Type
REMARK                         _______ _______ _______ _____ _____    ______ ____
ROOT
ATOM      1  C   UNL     1       4.821   3.800  18.843  0.00  0.00    +0.000 C 
ATOM      2  O   UNL     1       5.232   2.868  19.537  0.00  0.00    +0.000 OA
ATOM      3  N   UNL     1       3.604   4.481  19.176  0.00  0.00    +0.000 N 
ATOM      4  C   UNL     1       3.054   4.200  20.504  0.00  0.00    +0.000 C 
ATOM      5  C   UNL     1       1.645   4.734  20.821  0.00  0.00    +0.000 C 
ATOM      6  C   UNL     1       1.240   6.062  20.172  0.00  0.00    +0.000 C 
ATOM      7  C   UNL     1       1.672   6.002  18.698  0.00  0.00    +0.000 C 
ATOM      8  C   UNL     1       3.155   5.697  18.500  0.00  0.00    +0.000 C 
ENDROOT
BRANCH   1  15
ATOM      9  C   UNL     1       7.247   5.736  18.933  0.00  0.00    +0.000 C 
ATOM     10  C   UNL     1       6.777   5.028  17.697  0.00  0.00    +0.000 A 
ATOM     11  C   UNL     1       7.494   5.261  16.507  0.00  0.00    +0.000 A 
ATOM     12  C   UNL     1       7.074   4.702  15.308  0.00  0.00    +0.000 A 
ATOM     13  C   UNL     1       5.912   3.960  15.317  0.00  0.00    +0.000 A 
ATOM     14  N   UNL     1       5.192   3.706  16.431  0.00  0.00    +0.000 NA
ATOM     15  C   UNL     1       5.642   4.197  17.619  0.00  0.00    +0.000 A 
ENDBRANCH   1  15
BRANCH   6  16
ATOM     16  C   UNL     1       1.756   7.344  20.873  0.00  0.00    +0.000 C 
BRANCH  16  17
ATOM     17  C   UNL     1       0.934   8.625  20.890  0.00  0.00    +0.000 A 
ATOM     18  C   UNL     1       0.966   9.609  19.895  0.00  0.00    +0.000 A 
ATOM     19  N   UNL     1       0.365  10.832  19.943  0.00  0.00    +0.000 NA
ATOM     20  C   UNL     1      -0.284  11.062  21.102  0.00  0.00    +0.000 A 
ATOM     21  N   UNL     1      -0.933  12.223  21.427  0.00  0.00    +0.000 N 
ATOM     22  C   UNL     1      -1.456  12.126  22.691  0.00  0.00    +0.000 A 
ATOM     23  C   UNL     1      -1.164  10.866  23.173  0.00  0.00    +0.000 A 
ATOM     24  C   UNL     1      -0.411  10.187  22.171  0.00  0.00    +0.000 A 
ATOM     25  C   UNL     1       0.213   8.928  22.057  0.00  0.00    +0.000 A 
ATOM     26  H   UNL     1      -0.978  13.030  20.821  0.00  0.00    +0.000 HD
ENDBRANCH  16  17
ENDBRANCH   6  16
TORSDOF 3
ENDMDL
MODEL 5
REMARK VINA RESULT:      -7.5      5.218      8.262
REMARK  Name = 
REMARK  4 active torsions:
REMARK  status: ('A' for Active; 'I' for Inactive)
REMARK    1  A    between atoms: C_1  and  C_2
REMARK    2  A    between atoms: C_7  and  C_8
REMARK    3  A    between atoms: C_13  and  C_14
REMARK    4  A    between atoms: C_14  and  C_15
REMARK                            x       y       z     vdW  Elec       q    Type
REMARK                         _______ _______ _______ _____ _____    ______ ____
ROOT
ATOM      1  C   UNL     1       2.607   6.094  18.705  0.00  0.00    +0.000 C 
ATOM      2  O   UNL     1       3.009   6.048  17.541  0.00  0.00    +0.000 OA
ATOM      3  N   UNL     1       2.177   7.333  19.284  0.00  0.00    +0.000 N 
ATOM      4  C   UNL     1       1.980   8.443  18.349  0.00  0.00    +0.000 C 
ATOM      5  C   UNL     1       1.733   9.842  18.944  0.00  0.00    +0.000 C 
ATOM      6  C   UNL     1       0.967   9.910  20.269  0.00  0.00    +0.000 C 
ATOM      7  C   UNL     1       1.551   8.829  21.193  0.00  0.00    +0.000 C 
ATOM      8  C   UNL     1       1.531   7.426  20.591  0.00  0.00    +0.000 C 
ENDROOT
BRANCH   1  15
ATOM      9  C   UNL     1       5.107   4.318  19.190  0.00  0.00    +0.000 C 
ATOM     10  C   UNL     1       3.750   4.041  19.766  0.00  0.00    +0.000 A 
ATOM     11  C   UNL     1       3.616   2.901  20.583  0.00  0.00    +0.000 A 
ATOM     12  C   UNL     1       2.376   2.538  21.090  0.00  0.00    +0.000 A 
ATOM     13  C   UNL     1       1.285   3.297  20.725  0.00  0.00    +0.000 A 
ATOM     14  N   UNL     1       1.363   4.399  19.949  0.00  0.00    +0.000 NA
ATOM     15  C   UNL     1       2.590   4.795  19.508  0.00  0.00    +0.000 A 
ENDBRANCH   1  15
BRANCH   6  16
ATOM     16  C   UNL     1      -0.576   9.809  20.167  0.00  0.00    +0.000 C 
BRANCH  16  17
ATOM     17  C   UNL     1      -1.336  10.429  19.002  0.00  0.00    +0.000 A 
ATOM     18  C   UNL     1      -2.100  11.599  19.078  0.00  0.00    +0.000 A 
ATOM     19  N   UNL     1      -2.913  12.102  18.106  0.00  0.00    +0.000 NA
ATOM     20  C   UNL     1      -2.960  11.333  16.999  0.00  0.00    +0.000 A 
ATOM     21  N   UNL     1      -3.730  11.584  15.895  0.00  0.00    +0.000 N 
ATOM     22  C   UNL     1      -3.559  10.585  14.971  0.00  0.00    +0.000 A 
ATOM     23  C   UNL     1      -2.636   9.693  15.480  0.00  0.00    +0.000 A 
ATOM     24  C   UNL     1      -2.259  10.158  16.773  0.00  0.00    +0.000 A 
ATOM     25  C   UNL     1      -1.416   9.696  17.806  0.00  0.00    +0.000 A 
ATOM     26  H   UNL     1      -4.349  12.377  15.811  0.00  0.00    +0.000 HD
ENDBRANCH  16  17
ENDBRANCH   6  16
TORSDOF 3
ENDMDL
MODEL 6
REMARK VINA RESULT:      -7.3      0.956      1.418
REMARK  Name = 
REMARK  4 active torsions:
REMARK  status: ('A' for Active; 'I' for Inactive)
REMARK    1  A    between atoms: C_1  and  C_2
REMARK    2  A    between atoms: C_7  and  C_8
REMARK    3  A    between atoms: C_13  and  C_14
REMARK    4  A    between atoms: C_14  and  C_15
REMARK                            x       y       z     vdW  Elec       q    Type
REMARK                         _______ _______ _______ _____ _____    ______ ____
ROOT
ATOM      1  C   UNL     1       4.720   4.193  17.803  0.00  0.00    +0.000 C 
ATOM      2  O   UNL     1       4.302   3.702  16.753  0.00  0.00    +0.000 OA
ATOM      3  N   UNL     1       5.832   5.098  17.798  0.00  0.00    +0.000 N 
ATOM      4  C   UNL     1       6.238   5.608  16.486  0.00  0.00    +0.000 C 
ATOM      5  C   UNL     1       7.554   6.404  16.407  0.00  0.00    +0.000 C 
ATOM      6  C   UNL     1       7.930   7.254  17.625  0.00  0.00    +0.000 C 
ATOM      7  C   UNL     1       7.684   6.396  18.877  0.00  0.00    +0.000 C 
ATOM      8  C   UNL     1       6.263   5.845  18.978  0.00  0.00    +0.000 C 
ENDROOT
BRANCH   1  15
ATOM      9  C   UNL     1       2.502   5.888  19.164  0.00  0.00    +0.000 C 
ATOM     10  C   UNL     1       2.976   4.556  19.667  0.00  0.00    +0.000 A 
ATOM     11  C   UNL     1       2.363   4.050  20.830  0.00  0.00    +0.000 A 
ATOM     12  C   UNL     1       2.800   2.861  21.399  0.00  0.00    +0.000 A 
ATOM     13  C   UNL     1       3.878   2.229  20.816  0.00  0.00    +0.000 A 
ATOM     14  N   UNL     1       4.495   2.671  19.701  0.00  0.00    +0.000 NA
ATOM     15  C   UNL     1       4.023   3.801  19.104  0.00  0.00    +0.000 A 
ENDBRANCH   1  15
BRANCH   6  16
ATOM     16  C   UNL     1       7.236   8.636  17.727  0.00  0.00    +0.000 C 
BRANCH  16  17
ATOM     17  C   UNL     1       8.024   9.898  18.049  0.00  0.00    +0.000 A 
ATOM     18  C   UNL     1       7.842  11.136  17.423  0.00  0.00    +0.000 A 
ATOM     19  N   UNL     1       8.623  12.244  17.572  0.00  0.00    +0.000 NA
ATOM     20  C   UNL     1       9.672  12.050  18.397  0.00  0.00    +0.000 A 
ATOM     21  N   UNL     1      10.633  12.982  18.684  0.00  0.00    +0.000 N 
ATOM     22  C   UNL     1      11.566  12.442  19.532  0.00  0.00    +0.000 A 
ATOM     23  C   UNL     1      11.178  11.148  19.818  0.00  0.00    +0.000 A 
ATOM     24  C   UNL     1       9.979  10.890  19.092  0.00  0.00    +0.000 A 
ATOM     25  C   UNL     1       9.124   9.782  18.915  0.00  0.00    +0.000 A 
ATOM     26  H   UNL     1      10.648  13.912  18.293  0.00  0.00    +0.000 HD
ENDBRANCH  16  17
ENDBRANCH   6  16
TORSDOF 3
ENDMDL
MODEL 7
REMARK VINA RESULT:      -7.3      6.247      8.999
REMARK  Name = 
REMARK  4 active torsions:
REMARK  status: ('A' for Active; 'I' for Inactive)
REMARK    1  A    between atoms: C_1  and  C_2
REMARK    2  A    between atoms: C_7  and  C_8
REMARK    3  A    between atoms: C_13  and  C_14
REMARK    4  A    between atoms: C_14  and  C_15
REMARK                            x       y       z     vdW  Elec       q    Type
REMARK                         _______ _______ _______ _____ _____    ______ ____
ROOT
ATOM      1  C   UNL     1      -0.402  12.938  20.458  0.00  0.00    +0.000 C 
ATOM      2  O   UNL     1       0.285  13.935  20.685  0.00  0.00    +0.000 OA
ATOM      3  N   UNL     1       0.085  11.889  19.610  0.00  0.00    +0.000 N 
ATOM      4  C   UNL     1       1.510  11.944  19.277  0.00  0.00    +0.000 C 
ATOM      5  C   UNL     1       2.029  10.973  18.200  0.00  0.00    +0.000 C 
ATOM      6  C   UNL     1       1.351   9.602  18.112  0.00  0.00    +0.000 C 
ATOM      7  C   UNL     1      -0.167   9.834  18.200  0.00  0.00    +0.000 C 
ATOM      8  C   UNL     1      -0.602  10.611  19.441  0.00  0.00    +0.000 C 
ENDROOT
BRANCH   1  15
ATOM      9  C   UNL     1      -1.015  11.382  23.075  0.00  0.00    +0.000 C 
ATOM     10  C   UNL     1      -2.023  12.199  22.322  0.00  0.00    +0.000 A 
ATOM     11  C   UNL     1      -3.328  12.261  22.850  0.00  0.00    +0.000 A 
ATOM     12  C   UNL     1      -4.333  12.934  22.170  0.00  0.00    +0.000 A 
ATOM     13  C   UNL     1      -4.022  13.490  20.947  0.00  0.00    +0.000 A 
ATOM     14  N   UNL     1      -2.787  13.460  20.402  0.00  0.00    +0.000 NA
ATOM     15  C   UNL     1      -1.784  12.859  21.101  0.00  0.00    +0.000 A 
ENDBRANCH   1  15
BRANCH   6  16
ATOM     16  C   UNL     1       1.832   8.541  19.135  0.00  0.00    +0.000 C 
BRANCH  16  17
ATOM     17  C   UNL     1       2.570   7.287  18.688  0.00  0.00    +0.000 A 
ATOM     18  C   UNL     1       2.608   6.084  19.402  0.00  0.00    +0.000 A 
ATOM     19  N   UNL     1       3.375   4.994  19.117  0.00  0.00    +0.000 NA
ATOM     20  C   UNL     1       4.173   5.169  18.043  0.00  0.00    +0.000 A 
ATOM     21  N   UNL     1       5.071   4.252  17.569  0.00  0.00    +0.000 N 
ATOM     22  C   UNL     1       5.735   4.768  16.485  0.00  0.00    +0.000 A 
ATOM     23  C   UNL     1       5.229   6.028  16.241  0.00  0.00    +0.000 A 
ATOM     24  C   UNL     1       4.241   6.293  17.235  0.00  0.00    +0.000 A 
ATOM     25  C   UNL     1       3.409   7.384  17.565  0.00  0.00    +0.000 A 
ATOM     26  H   UNL     1       5.227   3.348  17.991  0.00  0.00    +0.000 HD
ENDBRANCH  16  17
ENDBRANCH   6  16
TORSDOF 3
ENDMDL
MODEL 8
REMARK VINA RESULT:      -7.3      4.485      7.499
REMARK  Name = 
REMARK  4 active torsions:
REMARK  status: ('A' for Active; 'I' for Inactive)
REMARK    1  A    between atoms: C_1  and  C_2
REMARK    2  A    between atoms: C_7  and  C_8
REMARK    3  A    between atoms: C_13  and  C_14
REMARK    4  A    between atoms: C_14  and  C_15
REMARK                            x       y       z     vdW  Elec       q    Type
REMARK                         _______ _______ _______ _____ _____    ______ ____
ROOT
ATOM      1  C   UNL     1       4.570   3.824  19.306  0.00  0.00    +0.000 C 
ATOM      2  O   UNL     1       4.719   2.798  19.972  0.00  0.00    +0.000 OA
ATOM      3  N   UNL     1       3.439   4.679  19.520  0.00  0.00    +0.000 N 
ATOM      4  C   UNL     1       2.658   4.418  20.731  0.00  0.00    +0.000 C 
ATOM      5  C   UNL     1       1.319   5.161  20.891  0.00  0.00    +0.000 C 
ATOM      6  C   UNL     1       1.231   6.574  20.303  0.00  0.00    +0.000 C 
ATOM      7  C   UNL     1       1.865   6.528  18.903  0.00  0.00    +0.000 C 
ATOM      8  C   UNL     1       3.295   5.990  18.890  0.00  0.00    +0.000 C 
ENDROOT
BRANCH   1  15
ATOM      9  C   UNL     1       4.115   3.486  16.253  0.00  0.00    +0.000 C 
ATOM     10  C   UNL     1       5.366   4.046  16.863  0.00  0.00    +0.000 A 
ATOM     11  C   UNL     1       6.391   4.445  15.984  0.00  0.00    +0.000 A 
ATOM     12  C   UNL     1       7.606   4.900  16.476  0.00  0.00    +0.000 A 
ATOM     13  C   UNL     1       7.788   4.899  17.843  0.00  0.00    +0.000 A 
ATOM     14  N   UNL     1       6.836   4.530  18.726  0.00  0.00    +0.000 NA
ATOM     15  C   UNL     1       5.619   4.148  18.245  0.00  0.00    +0.000 A 
ENDBRANCH   1  15
BRANCH   6  16
ATOM     16  C   UNL     1       1.830   7.708  21.171  0.00  0.00    +0.000 C 
BRANCH  16  17
ATOM     17  C   UNL     1       1.021   8.947  21.527  0.00  0.00    +0.000 A 
ATOM     18  C   UNL     1       0.699   9.347  22.829  0.00  0.00    +0.000 A 
ATOM     19  N   UNL     1      -0.145  10.357  23.183  0.00  0.00    +0.000 NA
ATOM     20  C   UNL     1      -0.712  10.974  22.126  0.00  0.00    +0.000 A 
ATOM     21  N   UNL     1      -1.628  11.988  22.202  0.00  0.00    +0.000 N 
ATOM     22  C   UNL     1      -2.018  12.359  20.940  0.00  0.00    +0.000 A 
ATOM     23  C   UNL     1      -1.314  11.588  20.037  0.00  0.00    +0.000 A 
ATOM     24  C   UNL     1      -0.488  10.699  20.786  0.00  0.00    +0.000 A 
ATOM     25  C   UNL     1       0.411   9.656  20.477  0.00  0.00    +0.000 A 
ATOM     26  H   UNL     1      -1.974  12.369  23.071  0.00  0.00    +0.000 HD
ENDBRANCH  16  17
ENDBRANCH   6  16
TORSDOF 3
ENDMDL
MODEL 9
REMARK VINA RESULT:      -7.2      5.893      8.642
REMARK  Name = 
REMARK  4 active torsions:
REMARK  status: ('A' for Active; 'I' for Inactive)
REMARK    1  A    between atoms: C_1  and  C_2
REMARK    2  A    between atoms: C_7  and  C_8
REMARK    3  A    between atoms: C_13  and  C_14
REMARK    4  A    between atoms: C_14  and  C_15
REMARK                            x       y       z     vdW  Elec       q    Type
REMARK                         _______ _______ _______ _____ _____    ______ ____
ROOT
ATOM      1  C   UNL     1       2.908   6.104  18.720  0.00  0.00    +0.000 C 
ATOM      2  O   UNL     1       3.825   5.900  17.922  0.00  0.00    +0.000 OA
ATOM      3  N   UNL     1       2.342   7.413  18.868  0.00  0.00    +0.000 N 
ATOM      4  C   UNL     1       2.712   8.391  17.842  0.00  0.00    +0.000 C 
ATOM      5  C   UNL     1       2.308   9.858  18.076  0.00  0.00    +0.000 C 
ATOM      6  C   UNL     1       0.998  10.110  18.831  0.00  0.00    +0.000 C 
ATOM      7  C   UNL     1       0.973   9.156  20.036  0.00  0.00    +0.000 C 
ATOM      8  C   UNL     1       1.147   7.685  19.664  0.00  0.00    +0.000 C 
ENDROOT
BRANCH   1  15
ATOM      9  C   UNL     1       1.185   3.789  17.574  0.00  0.00    +0.000 C 
ATOM     10  C   UNL     1       1.676   3.855  18.991  0.00  0.00    +0.000 A 
ATOM     11  C   UNL     1       1.331   2.789  19.844  0.00  0.00    +0.000 A 
ATOM     12  C   UNL     1       1.684   2.816  21.186  0.00  0.00    +0.000 A 
ATOM     13  C   UNL     1       2.334   3.938  21.657  0.00  0.00    +0.000 A 
ATOM     14  N   UNL     1       2.689   4.982  20.879  0.00  0.00    +0.000 NA
ATOM     15  C   UNL     1       2.404   4.925  19.548  0.00  0.00    +0.000 A 
ENDBRANCH   1  15
BRANCH   6  16
ATOM     16  C   UNL     1      -0.298  10.010  17.988  0.00  0.00    +0.000 C 
BRANCH  16  17
ATOM     17  C   UNL     1      -1.506  10.889  18.283  0.00  0.00    +0.000 A 
ATOM     18  C   UNL     1      -1.679  11.645  19.448  0.00  0.00    +0.000 A 
ATOM     19  N   UNL     1      -2.804  12.321  19.817  0.00  0.00    +0.000 NA
ATOM     20  C   UNL     1      -3.821  12.183  18.942  0.00  0.00    +0.000 A 
ATOM     21  N   UNL     1      -5.071  12.719  19.094  0.00  0.00    +0.000 N 
ATOM     22  C   UNL     1      -5.865  12.356  18.035  0.00  0.00    +0.000 A 
ATOM     23  C   UNL     1      -5.098  11.599  17.173  0.00  0.00    +0.000 A 
ATOM     24  C   UNL     1      -3.800  11.477  17.749  0.00  0.00    +0.000 A 
ATOM     25  C   UNL     1      -2.602  10.814  17.407  0.00  0.00    +0.000 A 
ATOM     26  H   UNL     1      -5.353  13.270  19.891  0.00  0.00    +0.000 HD
ENDBRANCH  16  17
ENDBRANCH   6  16
TORSDOF 3
ENDMDL
