MODEL 1
REMARK VINA RESULT:      -7.7      0.000      0.000
REMARK  Name = 
REMARK  2 active torsions:
REMARK  status: ('A' for Active; 'I' for Inactive)
REMARK    1  A    between atoms: N_3  and  C_4
REMARK    2  A    between atoms: N_13  and  C_14
REMARK                            x       y       z     vdW  Elec       q    Type
REMARK                         _______ _______ _______ _____ _____    ______ ____
ROOT
ATOM      1  O   UNL     1       2.232   9.059  17.183  0.00  0.00    +0.000 OA
ATOM      2  C   UNL     1       1.900   8.628  18.278  0.00  0.00    +0.000 C 
ATOM      3  N   UNL     1       1.173   9.296  19.239  0.00  0.00    +0.000 N 
ATOM      4  N   UNL     1       2.240   7.360  18.687  0.00  0.00    +0.000 N 
ATOM      5  H   UNL     1       1.172   8.890  20.160  0.00  0.00    +0.000 HD
ATOM      6  H   UNL     1       1.976   7.033  19.603  0.00  0.00    +0.000 HD
ENDROOT
BRANCH   3   7
ATOM      7  C   UNL     1       0.628  10.597  19.127  0.00  0.00    +0.000 A 
ATOM      8  C   UNL     1       1.192  11.722  19.752  0.00  0.00    +0.000 A 
ATOM      9  C   UNL     1       0.603  12.986  19.659  0.00  0.00    +0.000 A 
ATOM     10  C   UNL     1      -0.573  13.185  18.937  0.00  0.00    +0.000 A 
ATOM     11  C   UNL     1      -1.111  12.070  18.291  0.00  0.00    +0.000 A 
ATOM     12  N   UNL     1      -2.233  11.933  17.517  0.00  0.00    +0.000 N 
ATOM     13  N   UNL     1      -2.426  10.690  17.045  0.00  0.00    +0.000 NA
ATOM     14  C   UNL     1      -1.399  10.005  17.557  0.00  0.00    +0.000 A 
ATOM     15  C   UNL     1      -0.539  10.801  18.353  0.00  0.00    +0.000 A 
ATOM     16  H   UNL     1      -2.908  12.650  17.278  0.00  0.00    +0.000 HD
ENDBRANCH   3   7
BRANCH   4  17
ATOM     17  C   UNL     1       3.033   6.488  17.846  0.00  0.00    +0.000 C 
ATOM     18  C   UNL     1       4.544   6.590  18.155  0.00  0.00    +0.000 C 
ATOM     19  C   UNL     1       5.044   5.221  18.648  0.00  0.00    +0.000 C 
ATOM     20  C   UNL     1       3.826   4.356  18.569  0.00  0.00    +0.000 A 
ATOM     21  N   UNL     1       3.816   3.054  18.907  0.00  0.00    +0.000 NA
ATOM     22  C   UNL     1       2.623   2.429  18.771  0.00  0.00    +0.000 A 
ATOM     23  C   UNL     1       1.460   3.048  18.318  0.00  0.00    +0.000 A 
ATOM     24  C   UNL     1       1.510   4.398  17.984  0.00  0.00    +0.000 A 
ATOM     25  C   UNL     1       2.719   5.057  18.121  0.00  0.00    +0.000 A 
ENDBRANCH   4  17
TORSDOF 2
ENDMDL
MODEL 2
REMARK VINA RESULT:      -7.6      2.734      8.045
REMARK  Name = 
REMARK  2 active torsions:
REMARK  status: ('A' for Active; 'I' for Inactive)
REMARK    1  A    between atoms: N_3  and  C_4
REMARK    2  A    between atoms: N_13  and  C_14
REMARK                            x       y       z     vdW  Elec       q    Type
REMARK                         _______ _______ _______ _____ _____    ______ ____
ROOT
ATOM      1  O   UNL     1       2.749   5.914  18.179  0.00  0.00    +0.000 OA
ATOM      2  C   UNL     1       3.279   7.008  18.041  0.00  0.00    +0.000 C 
ATOM      3  N   UNL     1       4.472   7.270  17.405  0.00  0.00    +0.000 N 
ATOM      4  N   UNL     1       2.703   8.153  18.538  0.00  0.00    +0.000 N 
ATOM      5  H   UNL     1       4.873   8.180  17.567  0.00  0.00    +0.000 HD
ATOM      6  H   UNL     1       3.167   9.043  18.434  0.00  0.00    +0.000 HD
ENDROOT
BRANCH   3   7
ATOM      7  C   UNL     1       5.298   6.330  16.745  0.00  0.00    +0.000 A 
ATOM      8  C   UNL     1       5.143   5.987  15.392  0.00  0.00    +0.000 A 
ATOM      9  C   UNL     1       5.946   5.020  14.782  0.00  0.00    +0.000 A 
ATOM     10  C   UNL     1       6.942   4.352  15.495  0.00  0.00    +0.000 A 
ATOM     11  C   UNL     1       7.113   4.721  16.831  0.00  0.00    +0.000 A 
ATOM     12  N   UNL     1       7.986   4.266  17.785  0.00  0.00    +0.000 N 
ATOM     13  N   UNL     1       7.865   4.878  18.975  0.00  0.00    +0.000 NA
ATOM     14  C   UNL     1       6.862   5.739  18.778  0.00  0.00    +0.000 A 
ATOM     15  C   UNL     1       6.337   5.691  17.462  0.00  0.00    +0.000 A 
ATOM     16  H   UNL     1       8.684   3.539  17.685  0.00  0.00    +0.000 HD
ENDBRANCH   3   7
BRANCH   4  17
ATOM     17  C   UNL     1       1.456   8.110  19.273  0.00  0.00    +0.000 C 
ATOM     18  C   UNL     1       1.653   7.649  20.735  0.00  0.00    +0.000 C 
ATOM     19  C   UNL     1       1.225   8.787  21.677  0.00  0.00    +0.000 C 
ATOM     20  C   UNL     1       0.752   9.854  20.742  0.00  0.00    +0.000 A 
ATOM     21  N   UNL     1       0.275  11.043  21.150  0.00  0.00    +0.000 NA
ATOM     22  C   UNL     1      -0.108  11.886  20.163  0.00  0.00    +0.000 A 
ATOM     23  C   UNL     1      -0.030  11.588  18.804  0.00  0.00    +0.000 A 
ATOM     24  C   UNL     1       0.474  10.349  18.420  0.00  0.00    +0.000 A 
ATOM     25  C   UNL     1       0.876   9.476  19.416  0.00  0.00    +0.000 A 
ENDBRANCH   4  17
TORSDOF 2
ENDMDL
MODEL 3
REMARK VINA RESULT:      -7.5      2.417      3.400
REMARK  Name = 
REMARK  2 active torsions:
REMARK  status: ('A' for Active; 'I' for Inactive)
REMARK    1  A    between atoms: N_3  and  C_4
REMARK    2  A    between atoms: N_13  and  C_14
REMARK                            x       y       z     vdW  Elec       q    Type
REMARK                         _______ _______ _______ _____ _____    ______ ____
ROOT
ATOM      1  O   UNL     1       1.738   6.121  20.764  0.00  0.00    +0.000 OA
ATOM      2  C   UNL     1       2.206   6.907  19.951  0.00  0.00    +0.000 C 
ATOM      3  N   UNL     1       1.930   8.254  19.857  0.00  0.00    +0.000 N 
ATOM      4  N   UNL     1       3.104   6.502  18.993  0.00  0.00    +0.000 N 
ATOM      5  H   UNL     1       2.222   8.710  19.009  0.00  0.00    +0.000 HD
ATOM      6  H   UNL     1       3.460   7.162  18.318  0.00  0.00    +0.000 HD
ENDROOT
BRANCH   3   7
ATOM      7  C   UNL     1       1.086   9.001  20.712  0.00  0.00    +0.000 A 
ATOM      8  C   UNL     1       1.078   8.848  22.109  0.00  0.00    +0.000 A 
ATOM      9  C   UNL     1       0.199   9.569  22.922  0.00  0.00    +0.000 A 
ATOM     10  C   UNL     1      -0.710  10.476  22.378  0.00  0.00    +0.000 A 
ATOM     11  C   UNL     1      -0.675  10.648  20.992  0.00  0.00    +0.000 A 
ATOM     12  N   UNL     1      -1.420  11.448  20.165  0.00  0.00    +0.000 N 
ATOM     13  N   UNL     1      -1.086  11.356  18.867  0.00  0.00    +0.000 NA
ATOM     14  C   UNL     1      -0.107  10.447  18.865  0.00  0.00    +0.000 A 
ATOM     15  C   UNL     1       0.200   9.954  20.158  0.00  0.00    +0.000 A 
ATOM     16  H   UNL     1      -2.171  12.074  20.428  0.00  0.00    +0.000 HD
ENDBRANCH   3   7
BRANCH   4  17
ATOM     17  C   UNL     1       3.515   5.118  18.886  0.00  0.00    +0.000 C 
ATOM     18  C   UNL     1       2.792   4.379  17.737  0.00  0.00    +0.000 C 
ATOM     19  C   UNL     1       3.836   3.920  16.705  0.00  0.00    +0.000 C 
ATOM     20  C   UNL     1       5.134   4.363  17.302  0.00  0.00    +0.000 A 
ATOM     21  N   UNL     1       6.330   4.154  16.722  0.00  0.00    +0.000 NA
ATOM     22  C   UNL     1       7.397   4.625  17.407  0.00  0.00    +0.000 A 
ATOM     23  C   UNL     1       7.315   5.287  18.631  0.00  0.00    +0.000 A 
ATOM     24  C   UNL     1       6.059   5.489  19.196  0.00  0.00    +0.000 A 
ATOM     25  C   UNL     1       4.954   5.020  18.508  0.00  0.00    +0.000 A 
ENDBRANCH   4  17
TORSDOF 2
ENDMDL
MODEL 4
REMARK VINA RESULT:      -7.5      2.013      2.595
REMARK  Name = 
REMARK  2 active torsions:
REMARK  status: ('A' for Active; 'I' for Inactive)
REMARK    1  A    between atoms: N_3  and  C_4
REMARK    2  A    between atoms: N_13  and  C_14
REMARK                            x       y       z     vdW  Elec       q    Type
REMARK                         _______ _______ _______ _____ _____    ______ ____
ROOT
ATOM      1  O   UNL     1       1.846   7.946  17.844  0.00  0.00    +0.000 OA
ATOM      2  C   UNL     1       2.117   7.722  19.016  0.00  0.00    +0.000 C 
ATOM      3  N   UNL     1       1.700   8.446  20.110  0.00  0.00    +0.000 N 
ATOM      4  N   UNL     1       2.915   6.663  19.379  0.00  0.00    +0.000 N 
ATOM      5  H   UNL     1       2.183   8.266  20.975  0.00  0.00    +0.000 HD
ATOM      6  H   UNL     1       3.145   6.508  20.348  0.00  0.00    +0.000 HD
ENDROOT
BRANCH   3   7
ATOM      7  C   UNL     1       0.837   9.567  20.097  0.00  0.00    +0.000 A 
ATOM      8  C   UNL     1       0.524  10.282  18.929  0.00  0.00    +0.000 A 
ATOM      9  C   UNL     1      -0.296  11.413  18.957  0.00  0.00    +0.000 A 
ATOM     10  C   UNL     1      -0.843  11.880  20.152  0.00  0.00    +0.000 A 
ATOM     11  C   UNL     1      -0.556  11.146  21.305  0.00  0.00    +0.000 A 
ATOM     12  N   UNL     1      -0.933  11.335  22.609  0.00  0.00    +0.000 N 
ATOM     13  N   UNL     1      -0.468  10.400  23.454  0.00  0.00    +0.000 NA
ATOM     14  C   UNL     1       0.249   9.598  22.662  0.00  0.00    +0.000 A 
ATOM     15  C   UNL     1       0.246  10.007  21.305  0.00  0.00    +0.000 A 
ATOM     16  H   UNL     1      -1.502  12.085  22.983  0.00  0.00    +0.000 HD
ENDBRANCH   3   7
BRANCH   4  17
ATOM     17  C   UNL     1       3.492   5.781  18.386  0.00  0.00    +0.000 C 
ATOM     18  C   UNL     1       4.996   5.524  18.634  0.00  0.00    +0.000 C 
ATOM     19  C   UNL     1       5.206   4.024  18.903  0.00  0.00    +0.000 C 
ATOM     20  C   UNL     1       3.833   3.448  18.760  0.00  0.00    +0.000 A 
ATOM     21  N   UNL     1       3.555   2.141  18.909  0.00  0.00    +0.000 NA
ATOM     22  C   UNL     1       2.255   1.801  18.743  0.00  0.00    +0.000 A 
ATOM     23  C   UNL     1       1.241   2.706  18.439  0.00  0.00    +0.000 A 
ATOM     24  C   UNL     1       1.567   4.052  18.297  0.00  0.00    +0.000 A 
ATOM     25  C   UNL     1       2.890   4.420  18.470  0.00  0.00    +0.000 A 
ENDBRANCH   4  17
TORSDOF 2
ENDMDL
MODEL 5
REMARK VINA RESULT:      -7.2      1.464      2.429
REMARK  Name = 
REMARK  2 active torsions:
REMARK  status: ('A' for Active; 'I' for Inactive)
REMARK    1  A    between atoms: N_3  and  C_4
REMARK    2  A    between atoms: N_13  and  C_14
REMARK                            x       y       z     vdW  Elec       q    Type
REMARK                         _______ _______ _______ _____ _____    ______ ____
ROOT
ATOM      1  O   UNL     1       1.764   8.187  19.929  0.00  0.00    +0.000 OA
ATOM      2  C   UNL     1       1.890   8.387  18.729  0.00  0.00    +0.000 C 
ATOM      3  N   UNL     1       1.370   9.442  18.011  0.00  0.00    +0.000 N 
ATOM      4  N   UNL     1       2.603   7.527  17.928  0.00  0.00    +0.000 N 
ATOM      5  H   UNL     1       1.377   9.345  17.009  0.00  0.00    +0.000 HD
ATOM      6  H   UNL     1       2.676   7.698  16.937  0.00  0.00    +0.000 HD
ENDROOT
BRANCH   3   7
ATOM      7  C   UNL     1       0.625  10.526  18.532  0.00  0.00    +0.000 A 
ATOM      8  C   UNL     1       1.190  11.531  19.335  0.00  0.00    +0.000 A 
ATOM      9  C   UNL     1       0.418  12.565  19.871  0.00  0.00    +0.000 A 
ATOM     10  C   UNL     1      -0.953  12.644  19.627  0.00  0.00    +0.000 A 
ATOM     11  C   UNL     1      -1.503  11.662  18.801  0.00  0.00    +0.000 A 
ATOM     12  N   UNL     1      -2.790  11.461  18.375  0.00  0.00    +0.000 N 
ATOM     13  N   UNL     1      -2.940  10.402  17.563  0.00  0.00    +0.000 NA
ATOM     14  C   UNL     1      -1.706   9.896  17.486  0.00  0.00    +0.000 A 
ATOM     15  C   UNL     1      -0.756  10.627  18.241  0.00  0.00    +0.000 A 
ATOM     16  H   UNL     1      -3.609  12.011  18.609  0.00  0.00    +0.000 HD
ENDBRANCH   3   7
BRANCH   4  17
ATOM     17  C   UNL     1       3.214   6.330  18.467  0.00  0.00    +0.000 C 
ATOM     18  C   UNL     1       2.259   5.115  18.425  0.00  0.00    +0.000 C 
ATOM     19  C   UNL     1       2.869   4.035  17.516  0.00  0.00    +0.000 C 
ATOM     20  C   UNL     1       4.174   4.630  17.093  0.00  0.00    +0.000 A 
ATOM     21  N   UNL     1       5.049   4.007  16.284  0.00  0.00    +0.000 NA
ATOM     22  C   UNL     1       6.179   4.699  16.008  0.00  0.00    +0.000 A 
ATOM     23  C   UNL     1       6.461   5.970  16.504  0.00  0.00    +0.000 A 
ATOM     24  C   UNL     1       5.529   6.584  17.335  0.00  0.00    +0.000 A 
ATOM     25  C   UNL     1       4.364   5.895  17.624  0.00  0.00    +0.000 A 
ENDBRANCH   4  17
TORSDOF 2
ENDMDL
MODEL 6
REMARK VINA RESULT:      -7.2      2.626      7.827
REMARK  Name = 
REMARK  2 active torsions:
REMARK  status: ('A' for Active; 'I' for Inactive)
REMARK    1  A    between atoms: N_3  and  C_4
REMARK    2  A    between atoms: N_13  and  C_14
REMARK                            x       y       z     vdW  Elec       q    Type
REMARK                         _______ _______ _______ _____ _____    ______ ____
ROOT
ATOM      1  O   UNL     1       1.823   6.859  17.920  0.00  0.00    +0.000 OA
ATOM      2  C   UNL     1       2.607   6.896  18.859  0.00  0.00    +0.000 C 
ATOM      3  N   UNL     1       3.847   6.299  18.920  0.00  0.00    +0.000 N 
ATOM      4  N   UNL     1       2.310   7.576  20.017  0.00  0.00    +0.000 N 
ATOM      5  H   UNL     1       4.268   6.240  19.833  0.00  0.00    +0.000 HD
ATOM      6  H   UNL     1       2.960   7.575  20.788  0.00  0.00    +0.000 HD
ENDROOT
BRANCH   3   7
ATOM      7  C   UNL     1       4.477   5.562  17.890  0.00  0.00    +0.000 A 
ATOM      8  C   UNL     1       3.966   4.354  17.387  0.00  0.00    +0.000 A 
ATOM      9  C   UNL     1       4.638   3.628  16.399  0.00  0.00    +0.000 A 
ATOM     10  C   UNL     1       5.847   4.075  15.869  0.00  0.00    +0.000 A 
ATOM     11  C   UNL     1       6.333   5.292  16.350  0.00  0.00    +0.000 A 
ATOM     12  N   UNL     1       7.469   5.994  16.039  0.00  0.00    +0.000 N 
ATOM     13  N   UNL     1       7.597   7.153  16.706  0.00  0.00    +0.000 NA
ATOM     14  C   UNL     1       6.512   7.181  17.485  0.00  0.00    +0.000 A 
ATOM     15  C   UNL     1       5.679   6.046  17.322  0.00  0.00    +0.000 A 
ATOM     16  H   UNL     1       8.196   5.730  15.385  0.00  0.00    +0.000 HD
ENDBRANCH   3   7
BRANCH   4  17
ATOM     17  C   UNL     1       1.043   8.255  20.185  0.00  0.00    +0.000 C 
ATOM     18  C   UNL     1       0.543   8.209  21.647  0.00  0.00    +0.000 C 
ATOM     19  C   UNL     1       0.457   9.646  22.189  0.00  0.00    +0.000 C 
ATOM     20  C   UNL     1       0.865  10.485  21.020  0.00  0.00    +0.000 A 
ATOM     21  N   UNL     1       0.924  11.828  21.053  0.00  0.00    +0.000 NA
ATOM     22  C   UNL     1       1.314  12.420  19.900  0.00  0.00    +0.000 A 
ATOM     23  C   UNL     1       1.642  11.729  18.735  0.00  0.00    +0.000 A 
ATOM     24  C   UNL     1       1.574  10.339  18.742  0.00  0.00    +0.000 A 
ATOM     25  C   UNL     1       1.183   9.715  19.914  0.00  0.00    +0.000 A 
ENDBRANCH   4  17
TORSDOF 2
ENDMDL
MODEL 7
REMARK VINA RESULT:      -7.2      2.164      3.293
REMARK  Name = 
REMARK  2 active torsions:
REMARK  status: ('A' for Active; 'I' for Inactive)
REMARK    1  A    between atoms: N_3  and  C_4
REMARK    2  A    between atoms: N_13  and  C_14
REMARK                            x       y       z     vdW  Elec       q    Type
REMARK                         _______ _______ _______ _____ _____    ______ ____
ROOT
ATOM      1  O   UNL     1       1.976   7.828  19.791  0.00  0.00    +0.000 OA
ATOM      2  C   UNL     1       2.202   8.116  18.624  0.00  0.00    +0.000 C 
ATOM      3  N   UNL     1       1.734   9.218  17.942  0.00  0.00    +0.000 N 
ATOM      4  N   UNL     1       2.992   7.322  17.826  0.00  0.00    +0.000 N 
ATOM      5  H   UNL     1       1.829   9.196  16.940  0.00  0.00    +0.000 HD
ATOM      6  H   UNL     1       3.148   7.565  16.861  0.00  0.00    +0.000 HD
ENDROOT
BRANCH   3   7
ATOM      7  C   UNL     1       0.935  10.258  18.473  0.00  0.00    +0.000 A 
ATOM      8  C   UNL     1      -0.346  10.045  19.009  0.00  0.00    +0.000 A 
ATOM      9  C   UNL     1      -1.128  11.101  19.485  0.00  0.00    +0.000 A 
ATOM     10  C   UNL     1      -0.666  12.417  19.449  0.00  0.00    +0.000 A 
ATOM     11  C   UNL     1       0.620  12.618  18.946  0.00  0.00    +0.000 A 
ATOM     12  N   UNL     1       1.353  13.765  18.780  0.00  0.00    +0.000 N 
ATOM     13  N   UNL     1       2.580  13.563  18.271  0.00  0.00    +0.000 NA
ATOM     14  C   UNL     1       2.622  12.241  18.086  0.00  0.00    +0.000 A 
ATOM     15  C   UNL     1       1.429  11.584  18.478  0.00  0.00    +0.000 A 
ATOM     16  H   UNL     1       1.067  14.714  18.991  0.00  0.00    +0.000 HD
ENDBRANCH   3   7
BRANCH   4  17
ATOM     17  C   UNL     1       3.568   6.091  18.328  0.00  0.00    +0.000 C 
ATOM     18  C   UNL     1       2.644   4.874  18.096  0.00  0.00    +0.000 C 
ATOM     19  C   UNL     1       3.359   3.876  17.170  0.00  0.00    +0.000 C 
ATOM     20  C   UNL     1       4.689   4.516  16.928  0.00  0.00    +0.000 A 
ATOM     21  N   UNL     1       5.650   3.969  16.163  0.00  0.00    +0.000 NA
ATOM     22  C   UNL     1       6.789   4.691  16.056  0.00  0.00    +0.000 A 
ATOM     23  C   UNL     1       6.999   5.922  16.677  0.00  0.00    +0.000 A 
ATOM     24  C   UNL     1       5.978   6.458  17.456  0.00  0.00    +0.000 A 
ATOM     25  C   UNL     1       4.803   5.737  17.572  0.00  0.00    +0.000 A 
ENDBRANCH   4  17
TORSDOF 2
ENDMDL
MODEL 8
REMARK VINA RESULT:      -7.1      1.838      7.905
REMARK  Name = 
REMARK  2 active torsions:
REMARK  status: ('A' for Active; 'I' for Inactive)
REMARK    1  A    between atoms: N_3  and  C_4
REMARK    2  A    between atoms: N_13  and  C_14
REMARK                            x       y       z     vdW  Elec       q    Type
REMARK                         _______ _______ _______ _____ _____    ______ ____
ROOT
ATOM      1  O   UNL     1       0.713   7.535  21.247  0.00  0.00    +0.000 OA
ATOM      2  C   UNL     1       1.453   7.813  20.313  0.00  0.00    +0.000 C 
ATOM      3  N   UNL     1       2.326   6.962  19.673  0.00  0.00    +0.000 N 
ATOM      4  N   UNL     1       1.492   9.080  19.780  0.00  0.00    +0.000 N 
ATOM      5  H   UNL     1       3.014   7.394  19.078  0.00  0.00    +0.000 HD
ATOM      6  H   UNL     1       2.125   9.295  19.026  0.00  0.00    +0.000 HD
ENDROOT
BRANCH   3   7
ATOM      7  C   UNL     1       2.504   5.584  19.940  0.00  0.00    +0.000 A 
ATOM      8  C   UNL     1       1.526   4.789  20.560  0.00  0.00    +0.000 A 
ATOM      9  C   UNL     1       1.752   3.440  20.851  0.00  0.00    +0.000 A 
ATOM     10  C   UNL     1       2.963   2.825  20.534  0.00  0.00    +0.000 A 
ATOM     11  C   UNL     1       3.918   3.612  19.889  0.00  0.00    +0.000 A 
ATOM     12  N   UNL     1       5.183   3.314  19.451  0.00  0.00    +0.000 N 
ATOM     13  N   UNL     1       5.811   4.339  18.851  0.00  0.00    +0.000 NA
ATOM     14  C   UNL     1       4.922   5.332  18.930  0.00  0.00    +0.000 A 
ATOM     15  C   UNL     1       3.717   4.954  19.572  0.00  0.00    +0.000 A 
ATOM     16  H   UNL     1       5.672   2.431  19.536  0.00  0.00    +0.000 HD
ENDBRANCH   3   7
BRANCH   4  17
ATOM     17  C   UNL     1       0.676  10.148  20.319  0.00  0.00    +0.000 C 
ATOM     18  C   UNL     1       1.488  11.441  20.559  0.00  0.00    +0.000 C 
ATOM     19  C   UNL     1       0.919  12.558  19.668  0.00  0.00    +0.000 C 
ATOM     20  C   UNL     1      -0.229  11.898  18.972  0.00  0.00    +0.000 A 
ATOM     21  N   UNL     1      -1.024  12.527  18.089  0.00  0.00    +0.000 NA
ATOM     22  C   UNL     1      -2.014  11.772  17.558  0.00  0.00    +0.000 A 
ATOM     23  C   UNL     1      -2.233  10.432  17.873  0.00  0.00    +0.000 A 
ATOM     24  C   UNL     1      -1.385   9.815  18.789  0.00  0.00    +0.000 A 
ATOM     25  C   UNL     1      -0.363  10.569  19.338  0.00  0.00    +0.000 A 
ENDBRANCH   4  17
TORSDOF 2
ENDMDL
MODEL 9
REMARK VINA RESULT:      -7.1      1.765      8.033
REMARK  Name = 
REMARK  2 active torsions:
REMARK  status: ('A' for Active; 'I' for Inactive)
REMARK    1  A    between atoms: N_3  and  C_4
REMARK    2  A    between atoms: N_13  and  C_14
REMARK                            x       y       z     vdW  Elec       q    Type
REMARK                         _______ _______ _______ _____ _____    ______ ____
ROOT
ATOM      1  O   UNL     1       2.201   7.213  18.172  0.00  0.00    +0.000 OA
ATOM      2  C   UNL     1       2.017   7.244  19.381  0.00  0.00    +0.000 C 
ATOM      3  N   UNL     1       2.141   6.190  20.260  0.00  0.00    +0.000 N 
ATOM      4  N   UNL     1       1.644   8.401  20.023  0.00  0.00    +0.000 N 
ATOM      5  H   UNL     1       1.746   6.325  21.176  0.00  0.00    +0.000 HD
ATOM      6  H   UNL     1       1.475   8.401  21.017  0.00  0.00    +0.000 HD
ENDROOT
BRANCH   3   7
ATOM      7  C   UNL     1       2.551   4.874  19.941  0.00  0.00    +0.000 A 
ATOM      8  C   UNL     1       1.683   3.770  19.974  0.00  0.00    +0.000 A 
ATOM      9  C   UNL     1       2.130   2.475  19.698  0.00  0.00    +0.000 A 
ATOM     10  C   UNL     1       3.464   2.224  19.374  0.00  0.00    +0.000 A 
ATOM     11  C   UNL     1       4.314   3.330  19.311  0.00  0.00    +0.000 A 
ATOM     12  N   UNL     1       5.652   3.421  19.025  0.00  0.00    +0.000 N 
ATOM     13  N   UNL     1       6.132   4.675  19.045  0.00  0.00    +0.000 NA
ATOM     14  C   UNL     1       5.066   5.408  19.377  0.00  0.00    +0.000 A 
ATOM     15  C   UNL     1       3.894   4.634  19.567  0.00  0.00    +0.000 A 
ATOM     16  H   UNL     1       6.289   2.662  18.813  0.00  0.00    +0.000 HD
ENDBRANCH   3   7
BRANCH   4  17
ATOM     17  C   UNL     1       1.425   9.630  19.289  0.00  0.00    +0.000 C 
ATOM     18  C   UNL     1       0.687   9.390  17.952  0.00  0.00    +0.000 C 
ATOM     19  C   UNL     1      -0.661  10.129  17.988  0.00  0.00    +0.000 C 
ATOM     20  C   UNL     1      -0.650  10.810  19.320  0.00  0.00    +0.000 A 
ATOM     21  N   UNL     1      -1.654  11.585  19.768  0.00  0.00    +0.000 NA
ATOM     22  C   UNL     1      -1.470  12.120  20.997  0.00  0.00    +0.000 A 
ATOM     23  C   UNL     1      -0.338  11.911  21.782  0.00  0.00    +0.000 A 
ATOM     24  C   UNL     1       0.677  11.098  21.287  0.00  0.00    +0.000 A 
ATOM     25  C   UNL     1       0.505  10.537  20.033  0.00  0.00    +0.000 A 
ENDBRANCH   4  17
TORSDOF 2
ENDMDL
