MODEL 1
REMARK VINA RESULT:      -7.2      0.000      0.000
REMARK  Name = 
REMARK  6 active torsions:
REMARK  status: ('A' for Active; 'I' for Inactive)
REMARK    1  A    between atoms: C_1  and  C_2
REMARK    2  A    between atoms: C_2  and  O_3
REMARK    3  A    between atoms: O_3  and  C_4
REMARK    4  A    between atoms: C_4  and  C_6
REMARK    5  A    between atoms: C_16  and  O_17
REMARK    6  A    between atoms: C_23  and  O_24
REMARK                            x       y       z     vdW  Elec       q    Type
REMARK                         _______ _______ _______ _____ _____    ______ ____
ROOT
ATOM      1  C   UNL     1       6.383   4.798  14.934  0.00  0.00    +0.000 C 
ATOM      2  C   UNL     1       5.686   6.142  15.189  0.00  0.00    +0.000 C 
ATOM      3  C   UNL     1       5.839   6.422  16.684  0.00  0.00    +0.000 C 
ATOM      4  C   UNL     1       7.185   5.773  17.017  0.00  0.00    +0.000 C 
ATOM      5  C   UNL     1       7.414   5.628  18.513  0.00  0.00    +0.000 C 
ATOM      6  C   UNL     1       6.241   5.029  19.284  0.00  0.00    +0.000 C 
ATOM      7  C   UNL     1       4.883   5.689  18.971  0.00  0.00    +0.000 C 
ATOM      8  C   UNL     1       3.677   4.950  19.555  0.00  0.00    +0.000 A 
ATOM      9  C   UNL     1       3.791   4.150  20.705  0.00  0.00    +0.000 A 
ATOM     10  C   UNL     1       2.708   3.414  21.182  0.00  0.00    +0.000 A 
ATOM     11  C   UNL     1       1.486   3.489  20.528  0.00  0.00    +0.000 A 
ATOM     12  C   UNL     1       1.326   4.304  19.419  0.00  0.00    +0.000 A 
ATOM     13  C   UNL     1       2.409   5.047  18.928  0.00  0.00    +0.000 A 
ATOM     14  C   UNL     1       2.178   5.861  17.674  0.00  0.00    +0.000 C 
ATOM     15  C   UNL     1       3.386   6.689  17.261  0.00  0.00    +0.000 C 
ATOM     16  C   UNL     1       4.654   5.840  17.454  0.00  0.00    +0.000 C 
ATOM     17  C   UNL     1       7.250   4.494  16.161  0.00  0.00    +0.000 C 
ENDROOT
BRANCH   1  18
ATOM     18  C   UNL     1       7.211   4.987  13.697  0.00  0.00    +0.000 C 
ATOM     19  O   UNL     1       8.093   5.831  13.569  0.00  0.00    +0.000 OA
BRANCH  18  20
ATOM     20  O   UNL     1       6.722   4.198  12.703  0.00  0.00    +0.000 OA
BRANCH  20  22
ATOM     21  C   UNL     1       4.700   3.282  11.757  0.00  0.00    +0.000 C 
ATOM     22  C   UNL     1       5.503   3.524  13.019  0.00  0.00    +0.000 C 
ENDBRANCH  20  22
ENDBRANCH  18  20
ENDBRANCH   1  18
BRANCH  11  23
ATOM     23  O   UNL     1       0.410   2.761  20.942  0.00  0.00    +0.000 OA
ATOM     24  H   UNL     1       0.724   1.889  21.234  0.00  0.00    +0.000 HD
ENDBRANCH  11  23
BRANCH  17  25
ATOM     25  O   UNL     1       6.784   3.325  16.824  0.00  0.00    +0.000 OA
ATOM     26  H   UNL     1       6.488   3.546  17.723  0.00  0.00    +0.000 HD
ENDBRANCH  17  25
TORSDOF 5
ENDMDL
MODEL 2
REMARK VINA RESULT:      -6.6      9.574     12.619
REMARK  Name = 
REMARK  6 active torsions:
REMARK  status: ('A' for Active; 'I' for Inactive)
REMARK    1  A    between atoms: C_1  and  C_2
REMARK    2  A    between atoms: C_2  and  O_3
REMARK    3  A    between atoms: O_3  and  C_4
REMARK    4  A    between atoms: C_4  and  C_6
REMARK    5  A    between atoms: C_16  and  O_17
REMARK    6  A    between atoms: C_23  and  O_24
REMARK                            x       y       z     vdW  Elec       q    Type
REMARK                         _______ _______ _______ _____ _____    ______ ____
ROOT
ATOM      1  C   UNL     1       6.498  13.700  22.429  0.00  0.00    +0.000 C 
ATOM      2  C   UNL     1       7.442  12.537  22.767  0.00  0.00    +0.000 C 
ATOM      3  C   UNL     1       8.859  13.108  22.704  0.00  0.00    +0.000 C 
ATOM      4  C   UNL     1       8.661  14.560  23.146  0.00  0.00    +0.000 C 
ATOM      5  C   UNL     1       9.871  15.433  22.855  0.00  0.00    +0.000 C 
ATOM      6  C   UNL     1      10.432  15.298  21.442  0.00  0.00    +0.000 C 
ATOM      7  C   UNL     1      10.653  13.840  20.993  0.00  0.00    +0.000 C 
ATOM      8  C   UNL     1      10.989  13.684  19.508  0.00  0.00    +0.000 A 
ATOM      9  C   UNL     1      11.609  14.717  18.783  0.00  0.00    +0.000 A 
ATOM     10  C   UNL     1      11.836  14.600  17.412  0.00  0.00    +0.000 A 
ATOM     11  C   UNL     1      11.469  13.435  16.753  0.00  0.00    +0.000 A 
ATOM     12  C   UNL     1      10.899  12.380  17.446  0.00  0.00    +0.000 A 
ATOM     13  C   UNL     1      10.663  12.486  18.824  0.00  0.00    +0.000 A 
ATOM     14  C   UNL     1       9.975  11.321  19.500  0.00  0.00    +0.000 C 
ATOM     15  C   UNL     1       9.829  11.497  21.006  0.00  0.00    +0.000 C 
ATOM     16  C   UNL     1       9.427  12.954  21.293  0.00  0.00    +0.000 C 
ATOM     17  C   UNL     1       7.310  14.994  22.548  0.00  0.00    +0.000 C 
ENDROOT
BRANCH   1  18
ATOM     18  C   UNL     1       5.388  13.641  23.437  0.00  0.00    +0.000 C 
ATOM     19  O   UNL     1       4.438  14.417  23.477  0.00  0.00    +0.000 OA
BRANCH  18  20
ATOM     20  O   UNL     1       5.687  12.708  24.380  0.00  0.00    +0.000 OA
BRANCH  20  22
ATOM     21  C   UNL     1       6.697  13.950  26.185  0.00  0.00    +0.000 C 
ATOM     22  C   UNL     1       5.502  13.139  25.729  0.00  0.00    +0.000 C 
ENDBRANCH  20  22
ENDBRANCH  18  20
ENDBRANCH   1  18
BRANCH  11  23
ATOM     23  O   UNL     1      11.644  13.292  15.409  0.00  0.00    +0.000 OA
ATOM     24  H   UNL     1      11.398  12.385  15.162  0.00  0.00    +0.000 HD
ENDBRANCH  11  23
BRANCH  17  25
ATOM     25  O   UNL     1       7.414  15.637  21.283  0.00  0.00    +0.000 OA
ATOM     26  H   UNL     1       7.800  16.523  21.389  0.00  0.00    +0.000 HD
ENDBRANCH  17  25
TORSDOF 5
ENDMDL
MODEL 3
REMARK VINA RESULT:      -6.5      1.523      2.112
REMARK  Name = 
REMARK  6 active torsions:
REMARK  status: ('A' for Active; 'I' for Inactive)
REMARK    1  A    between atoms: C_1  and  C_2
REMARK    2  A    between atoms: C_2  and  O_3
REMARK    3  A    between atoms: O_3  and  C_4
REMARK    4  A    between atoms: C_4  and  C_6
REMARK    5  A    between atoms: C_16  and  O_17
REMARK    6  A    between atoms: C_23  and  O_24
REMARK                            x       y       z     vdW  Elec       q    Type
REMARK                         _______ _______ _______ _____ _____    ______ ____
ROOT
ATOM      1  C   UNL     1       6.339   4.499  15.813  0.00  0.00    +0.000 C 
ATOM      2  C   UNL     1       4.941   4.332  15.199  0.00  0.00    +0.000 C 
ATOM      3  C   UNL     1       4.010   5.229  16.014  0.00  0.00    +0.000 C 
ATOM      4  C   UNL     1       4.925   6.384  16.428  0.00  0.00    +0.000 C 
ATOM      5  C   UNL     1       4.321   7.250  17.522  0.00  0.00    +0.000 C 
ATOM      6  C   UNL     1       3.745   6.476  18.705  0.00  0.00    +0.000 C 
ATOM      7  C   UNL     1       2.806   5.322  18.300  0.00  0.00    +0.000 C 
ATOM      8  C   UNL     1       2.412   4.398  19.456  0.00  0.00    +0.000 A 
ATOM      9  C   UNL     1       2.391   4.854  20.786  0.00  0.00    +0.000 A 
ATOM     10  C   UNL     1       2.112   3.987  21.841  0.00  0.00    +0.000 A 
ATOM     11  C   UNL     1       1.825   2.655  21.576  0.00  0.00    +0.000 A 
ATOM     12  C   UNL     1       1.792   2.183  20.274  0.00  0.00    +0.000 A 
ATOM     13  C   UNL     1       2.073   3.046  19.204  0.00  0.00    +0.000 A 
ATOM     14  C   UNL     1       2.085   2.445  17.816  0.00  0.00    +0.000 C 
ATOM     15  C   UNL     1       2.326   3.470  16.717  0.00  0.00    +0.000 C 
ATOM     16  C   UNL     1       3.417   4.447  17.187  0.00  0.00    +0.000 C 
ATOM     17  C   UNL     1       6.299   5.745  16.703  0.00  0.00    +0.000 C 
ENDROOT
BRANCH   1  18
ATOM     18  C   UNL     1       7.282   4.667  14.657  0.00  0.00    +0.000 C 
ATOM     19  O   UNL     1       7.986   5.653  14.469  0.00  0.00    +0.000 OA
BRANCH  18  20
ATOM     20  O   UNL     1       7.110   3.639  13.784  0.00  0.00    +0.000 OA
BRANCH  20  22
ATOM     21  C   UNL     1       5.694   3.190  11.882  0.00  0.00    +0.000 C 
ATOM     22  C   UNL     1       6.819   4.036  12.443  0.00  0.00    +0.000 C 
ENDBRANCH  20  22
ENDBRANCH  18  20
ENDBRANCH   1  18
BRANCH  11  23
ATOM     23  O   UNL     1       1.579   1.766  22.580  0.00  0.00    +0.000 OA
ATOM     24  H   UNL     1       0.817   2.085  23.092  0.00  0.00    +0.000 HD
ENDBRANCH  11  23
BRANCH  17  25
ATOM     25  O   UNL     1       6.514   5.393  18.065  0.00  0.00    +0.000 OA
ATOM     26  H   UNL     1       5.666   5.206  18.500  0.00  0.00    +0.000 HD
ENDBRANCH  17  25
TORSDOF 5
ENDMDL
MODEL 4
REMARK VINA RESULT:      -6.3      5.124      7.936
REMARK  Name = 
REMARK  6 active torsions:
REMARK  status: ('A' for Active; 'I' for Inactive)
REMARK    1  A    between atoms: C_1  and  C_2
REMARK    2  A    between atoms: C_2  and  O_3
REMARK    3  A    between atoms: O_3  and  C_4
REMARK    4  A    between atoms: C_4  and  C_6
REMARK    5  A    between atoms: C_16  and  O_17
REMARK    6  A    between atoms: C_23  and  O_24
REMARK                            x       y       z     vdW  Elec       q    Type
REMARK                         _______ _______ _______ _____ _____    ______ ____
ROOT
ATOM      1  C   UNL     1      -1.098  10.262  19.301  0.00  0.00    +0.000 C 
ATOM      2  C   UNL     1      -0.189  10.075  20.525  0.00  0.00    +0.000 C 
ATOM      3  C   UNL     1       1.187   9.695  19.979  0.00  0.00    +0.000 C 
ATOM      4  C   UNL     1       1.241  10.440  18.643  0.00  0.00    +0.000 C 
ATOM      5  C   UNL     1       2.377   9.965  17.751  0.00  0.00    +0.000 C 
ATOM      6  C   UNL     1       2.487   8.450  17.607  0.00  0.00    +0.000 C 
ATOM      7  C   UNL     1       2.454   7.690  18.949  0.00  0.00    +0.000 C 
ATOM      8  C   UNL     1       2.327   6.171  18.808  0.00  0.00    +0.000 A 
ATOM      9  C   UNL     1       2.786   5.500  17.661  0.00  0.00    +0.000 A 
ATOM     10  C   UNL     1       2.592   4.128  17.503  0.00  0.00    +0.000 A 
ATOM     11  C   UNL     1       1.959   3.405  18.504  0.00  0.00    +0.000 A 
ATOM     12  C   UNL     1       1.537   4.027  19.668  0.00  0.00    +0.000 A 
ATOM     13  C   UNL     1       1.723   5.407  19.837  0.00  0.00    +0.000 A 
ATOM     14  C   UNL     1       1.175   6.029  21.102  0.00  0.00    +0.000 C 
ATOM     15  C   UNL     1       1.490   7.513  21.231  0.00  0.00    +0.000 C 
ATOM     16  C   UNL     1       1.304   8.176  19.855  0.00  0.00    +0.000 C 
ATOM     17  C   UNL     1      -0.188  10.370  18.072  0.00  0.00    +0.000 C 
ENDROOT
BRANCH   1  18
ATOM     18  C   UNL     1      -1.865  11.528  19.543  0.00  0.00    +0.000 C 
ATOM     19  O   UNL     1      -2.010  12.058  20.640  0.00  0.00    +0.000 OA
BRANCH  18  20
ATOM     20  O   UNL     1      -2.499  11.896  18.397  0.00  0.00    +0.000 OA
BRANCH  20  22
ATOM     21  C   UNL     1      -4.019  11.093  16.703  0.00  0.00    +0.000 C 
ATOM     22  C   UNL     1      -3.765  11.269  18.187  0.00  0.00    +0.000 C 
ENDBRANCH  20  22
ENDBRANCH  18  20
ENDBRANCH   1  18
BRANCH  11  23
ATOM     23  O   UNL     1       1.721   2.069  18.376  0.00  0.00    +0.000 OA
ATOM     24  H   UNL     1       1.072   1.807  19.050  0.00  0.00    +0.000 HD
ENDBRANCH  11  23
BRANCH  17  25
ATOM     25  O   UNL     1      -0.410   9.277  17.189  0.00  0.00    +0.000 OA
ATOM     26  H   UNL     1      -0.308   9.565  16.267  0.00  0.00    +0.000 HD
ENDBRANCH  17  25
TORSDOF 5
ENDMDL
MODEL 5
REMARK VINA RESULT:      -6.2      5.225      8.275
REMARK  Name = 
REMARK  6 active torsions:
REMARK  status: ('A' for Active; 'I' for Inactive)
REMARK    1  A    between atoms: C_1  and  C_2
REMARK    2  A    between atoms: C_2  and  O_3
REMARK    3  A    between atoms: O_3  and  C_4
REMARK    4  A    between atoms: C_4  and  C_6
REMARK    5  A    between atoms: C_16  and  O_17
REMARK    6  A    between atoms: C_23  and  O_24
REMARK                            x       y       z     vdW  Elec       q    Type
REMARK                         _______ _______ _______ _____ _____    ______ ____
ROOT
ATOM      1  C   UNL     1      -0.980  10.251  19.451  0.00  0.00    +0.000 C 
ATOM      2  C   UNL     1      -0.014  10.037  20.627  0.00  0.00    +0.000 C 
ATOM      3  C   UNL     1       1.322   9.626  20.009  0.00  0.00    +0.000 C 
ATOM      4  C   UNL     1       1.325  10.374  18.673  0.00  0.00    +0.000 C 
ATOM      5  C   UNL     1       2.402   9.875  17.723  0.00  0.00    +0.000 C 
ATOM      6  C   UNL     1       2.468   8.358  17.571  0.00  0.00    +0.000 C 
ATOM      7  C   UNL     1       2.485   7.595  18.911  0.00  0.00    +0.000 C 
ATOM      8  C   UNL     1       2.314   6.080  18.773  0.00  0.00    +0.000 A 
ATOM      9  C   UNL     1       2.696   5.401  17.602  0.00  0.00    +0.000 A 
ATOM     10  C   UNL     1       2.461   4.036  17.451  0.00  0.00    +0.000 A 
ATOM     11  C   UNL     1       1.863   3.325  18.482  0.00  0.00    +0.000 A 
ATOM     12  C   UNL     1       1.516   3.953  19.667  0.00  0.00    +0.000 A 
ATOM     13  C   UNL     1       1.745   5.327  19.830  0.00  0.00    +0.000 A 
ATOM     14  C   UNL     1       1.278   5.958  21.123  0.00  0.00    +0.000 C 
ATOM     15  C   UNL     1       1.636   7.433  21.239  0.00  0.00    +0.000 C 
ATOM     16  C   UNL     1       1.395   8.105  19.876  0.00  0.00    +0.000 C 
ATOM     17  C   UNL     1      -0.132  10.341  18.177  0.00  0.00    +0.000 C 
ENDROOT
BRANCH   1  18
ATOM     18  C   UNL     1      -1.702  11.535  19.735  0.00  0.00    +0.000 C 
ATOM     19  O   UNL     1      -2.451  12.104  18.947  0.00  0.00    +0.000 OA
BRANCH  18  20
ATOM     20  O   UNL     1      -1.271  12.041  20.921  0.00  0.00    +0.000 OA
BRANCH  20  22
ATOM     21  C   UNL     1      -2.295  11.870  23.100  0.00  0.00    +0.000 C 
ATOM     22  C   UNL     1      -2.302  12.570  21.756  0.00  0.00    +0.000 C 
ENDBRANCH  20  22
ENDBRANCH  18  20
ENDBRANCH   1  18
BRANCH  11  23
ATOM     23  O   UNL     1       1.586   1.995  18.364  0.00  0.00    +0.000 OA
ATOM     24  H   UNL     1       1.046   1.725  19.125  0.00  0.00    +0.000 HD
ENDBRANCH  11  23
BRANCH  17  25
ATOM     25  O   UNL     1      -0.426   9.257  17.305  0.00  0.00    +0.000 OA
ATOM     26  H   UNL     1      -1.306   9.373  16.911  0.00  0.00    +0.000 HD
ENDBRANCH  17  25
TORSDOF 5
ENDMDL
MODEL 6
REMARK VINA RESULT:      -6.2      5.568      8.475
REMARK  Name = 
REMARK  6 active torsions:
REMARK  status: ('A' for Active; 'I' for Inactive)
REMARK    1  A    between atoms: C_1  and  C_2
REMARK    2  A    between atoms: C_2  and  O_3
REMARK    3  A    between atoms: O_3  and  C_4
REMARK    4  A    between atoms: C_4  and  C_6
REMARK    5  A    between atoms: C_16  and  O_17
REMARK    6  A    between atoms: C_23  and  O_24
REMARK                            x       y       z     vdW  Elec       q    Type
REMARK                         _______ _______ _______ _____ _____    ______ ____
ROOT
ATOM      1  C   UNL     1      -1.310  10.732  19.551  0.00  0.00    +0.000 C 
ATOM      2  C   UNL     1      -0.329  10.612  20.727  0.00  0.00    +0.000 C 
ATOM      3  C   UNL     1       1.025  10.255  20.114  0.00  0.00    +0.000 C 
ATOM      4  C   UNL     1       0.980  10.957  18.754  0.00  0.00    +0.000 C 
ATOM      5  C   UNL     1       2.079  10.487  17.814  0.00  0.00    +0.000 C 
ATOM      6  C   UNL     1       2.228   8.972  17.712  0.00  0.00    +0.000 C 
ATOM      7  C   UNL     1       2.294   8.256  19.077  0.00  0.00    +0.000 C 
ATOM      8  C   UNL     1       2.208   6.730  18.990  0.00  0.00    +0.000 A 
ATOM      9  C   UNL     1       2.622   6.035  17.841  0.00  0.00    +0.000 A 
ATOM     10  C   UNL     1       2.463   4.654  17.737  0.00  0.00    +0.000 A 
ATOM     11  C   UNL     1       1.910   3.946  18.795  0.00  0.00    +0.000 A 
ATOM     12  C   UNL     1       1.535   4.593  19.961  0.00  0.00    +0.000 A 
ATOM     13  C   UNL     1       1.687   5.983  20.076  0.00  0.00    +0.000 A 
ATOM     14  C   UNL     1       1.192   6.630  21.351  0.00  0.00    +0.000 C 
ATOM     15  C   UNL     1       1.467   8.126  21.415  0.00  0.00    +0.000 C 
ATOM     16  C   UNL     1       1.183   8.737  20.032  0.00  0.00    +0.000 C 
ATOM     17  C   UNL     1      -0.475  10.826  18.270  0.00  0.00    +0.000 C 
ENDROOT
BRANCH   1  18
ATOM     18  C   UNL     1      -2.102  11.983  19.797  0.00  0.00    +0.000 C 
ATOM     19  O   UNL     1      -3.174  12.247  19.262  0.00  0.00    +0.000 OA
BRANCH  18  20
ATOM     20  O   UNL     1      -1.372  12.833  20.568  0.00  0.00    +0.000 OA
BRANCH  20  22
ATOM     21  C   UNL     1      -0.142  14.452  19.268  0.00  0.00    +0.000 C 
ATOM     22  C   UNL     1      -1.366  14.190  20.121  0.00  0.00    +0.000 C 
ENDBRANCH  20  22
ENDBRANCH  18  20
ENDBRANCH   1  18
BRANCH  11  23
ATOM     23  O   UNL     1       1.707   2.600  18.723  0.00  0.00    +0.000 OA
ATOM     24  H   UNL     1       1.334   2.392  17.850  0.00  0.00    +0.000 HD
ENDBRANCH  11  23
BRANCH  17  25
ATOM     25  O   UNL     1      -0.712   9.698  17.436  0.00  0.00    +0.000 OA
ATOM     26  H   UNL     1      -1.433   9.888  16.813  0.00  0.00    +0.000 HD
ENDBRANCH  17  25
TORSDOF 5
ENDMDL
MODEL 7
REMARK VINA RESULT:      -6.2      7.419      9.550
REMARK  Name = 
REMARK  6 active torsions:
REMARK  status: ('A' for Active; 'I' for Inactive)
REMARK    1  A    between atoms: C_1  and  C_2
REMARK    2  A    between atoms: C_2  and  O_3
REMARK    3  A    between atoms: O_3  and  C_4
REMARK    4  A    between atoms: C_4  and  C_6
REMARK    5  A    between atoms: C_16  and  O_17
REMARK    6  A    between atoms: C_23  and  O_24
REMARK                            x       y       z     vdW  Elec       q    Type
REMARK                         _______ _______ _______ _____ _____    ______ ____
ROOT
ATOM      1  C   UNL     1       0.642   9.026  19.279  0.00  0.00    +0.000 C 
ATOM      2  C   UNL     1       0.468   9.943  18.059  0.00  0.00    +0.000 C 
ATOM      3  C   UNL     1      -0.029  11.283  18.602  0.00  0.00    +0.000 C 
ATOM      4  C   UNL     1       0.634  11.359  19.980  0.00  0.00    +0.000 C 
ATOM      5  C   UNL     1       0.039  12.447  20.859  0.00  0.00    +0.000 C 
ATOM      6  C   UNL     1      -1.486  12.461  20.915  0.00  0.00    +0.000 C 
ATOM      7  C   UNL     1      -2.164  12.404  19.532  0.00  0.00    +0.000 C 
ATOM      8  C   UNL     1      -3.678  12.180  19.583  0.00  0.00    +0.000 A 
ATOM      9  C   UNL     1      -4.441  12.576  20.695  0.00  0.00    +0.000 A 
ATOM     10  C   UNL     1      -5.805  12.295  20.771  0.00  0.00    +0.000 A 
ATOM     11  C   UNL     1      -6.428  11.636  19.721  0.00  0.00    +0.000 A 
ATOM     12  C   UNL     1      -5.715  11.274  18.589  0.00  0.00    +0.000 A 
ATOM     13  C   UNL     1      -4.342  11.548  18.503  0.00  0.00    +0.000 A 
ATOM     14  C   UNL     1      -3.616  11.063  17.268  0.00  0.00    +0.000 C 
ATOM     15  C   UNL     1      -2.150  11.472  17.230  0.00  0.00    +0.000 C 
ATOM     16  C   UNL     1      -1.557  11.303  18.639  0.00  0.00    +0.000 C 
ATOM     17  C   UNL     1       0.622   9.919  20.525  0.00  0.00    +0.000 C 
ENDROOT
BRANCH   1  18
ATOM     18  C   UNL     1       1.966   8.344  19.100  0.00  0.00    +0.000 C 
ATOM     19  O   UNL     1       2.689   8.469  18.117  0.00  0.00    +0.000 OA
BRANCH  18  20
ATOM     20  O   UNL     1       2.154   7.453  20.111  0.00  0.00    +0.000 OA
BRANCH  20  22
ATOM     21  C   UNL     1       1.893   5.113  20.639  0.00  0.00    +0.000 C 
ATOM     22  C   UNL     1       2.490   6.131  19.689  0.00  0.00    +0.000 C 
ENDBRANCH  20  22
ENDBRANCH  18  20
ENDBRANCH   1  18
BRANCH  11  23
ATOM     23  O   UNL     1      -7.752  11.313  19.768  0.00  0.00    +0.000 OA
ATOM     24  H   UNL     1      -7.858  10.405  19.437  0.00  0.00    +0.000 HD
ENDBRANCH  11  23
BRANCH  17  25
ATOM     25  O   UNL     1      -0.503   9.614  21.339  0.00  0.00    +0.000 OA
ATOM     26  H   UNL     1      -1.064   8.952  20.901  0.00  0.00    +0.000 HD
ENDBRANCH  17  25
TORSDOF 5
ENDMDL
MODEL 8
REMARK VINA RESULT:      -6.2      9.361     12.683
REMARK  Name = 
REMARK  6 active torsions:
REMARK  status: ('A' for Active; 'I' for Inactive)
REMARK    1  A    between atoms: C_1  and  C_2
REMARK    2  A    between atoms: C_2  and  O_3
REMARK    3  A    between atoms: O_3  and  C_4
REMARK    4  A    between atoms: C_4  and  C_6
REMARK    5  A    between atoms: C_16  and  O_17
REMARK    6  A    between atoms: C_23  and  O_24
REMARK                            x       y       z     vdW  Elec       q    Type
REMARK                         _______ _______ _______ _____ _____    ______ ____
ROOT
ATOM      1  C   UNL     1      -4.185  12.968  22.404  0.00  0.00    +0.000 C 
ATOM      2  C   UNL     1      -3.298  12.219  23.410  0.00  0.00    +0.000 C 
ATOM      3  C   UNL     1      -1.891  12.791  23.242  0.00  0.00    +0.000 C 
ATOM      4  C   UNL     1      -2.158  14.245  22.843  0.00  0.00    +0.000 C 
ATOM      5  C   UNL     1      -0.921  14.942  22.299  0.00  0.00    +0.000 C 
ATOM      6  C   UNL     1      -0.154  14.152  21.243  0.00  0.00    +0.000 C 
ATOM      7  C   UNL     1       0.138  12.692  21.643  0.00  0.00    +0.000 C 
ATOM      8  C   UNL     1       0.695  11.829  20.508  0.00  0.00    +0.000 A 
ATOM      9  C   UNL     1       1.412  12.394  19.439  0.00  0.00    +0.000 A 
ATOM     10  C   UNL     1       1.844  11.614  18.367  0.00  0.00    +0.000 A 
ATOM     11  C   UNL     1       1.584  10.251  18.363  0.00  0.00    +0.000 A 
ATOM     12  C   UNL     1       0.921   9.653  19.423  0.00  0.00    +0.000 A 
ATOM     13  C   UNL     1       0.479  10.428  20.505  0.00  0.00    +0.000 A 
ATOM     14  C   UNL     1      -0.298   9.718  21.592  0.00  0.00    +0.000 C 
ATOM     15  C   UNL     1      -0.669  10.625  22.758  0.00  0.00    +0.000 C 
ATOM     16  C   UNL     1      -1.116  11.987  22.199  0.00  0.00    +0.000 C 
ATOM     17  C   UNL     1      -3.405  14.203  21.940  0.00  0.00    +0.000 C 
ENDROOT
BRANCH   1  18
ATOM     18  C   UNL     1      -5.434  13.341  23.148  0.00  0.00    +0.000 C 
ATOM     19  O   UNL     1      -5.625  14.424  23.692  0.00  0.00    +0.000 OA
BRANCH  18  20
ATOM     20  O   UNL     1      -6.234  12.247  23.259  0.00  0.00    +0.000 OA
BRANCH  20  22
ATOM     21  C   UNL     1      -7.543  11.837  21.273  0.00  0.00    +0.000 C 
ATOM     22  C   UNL     1      -7.533  12.395  22.682  0.00  0.00    +0.000 C 
ENDBRANCH  20  22
ENDBRANCH  18  20
ENDBRANCH   1  18
BRANCH  11  23
ATOM     23  O   UNL     1       1.960   9.458  17.320  0.00  0.00    +0.000 OA
ATOM     24  H   UNL     1       1.160   9.172  16.848  0.00  0.00    +0.000 HD
ENDBRANCH  11  23
BRANCH  17  25
ATOM     25  O   UNL     1      -3.115  14.117  20.550  0.00  0.00    +0.000 OA
ATOM     26  H   UNL     1      -2.705  13.260  20.346  0.00  0.00    +0.000 HD
ENDBRANCH  17  25
TORSDOF 5
ENDMDL
MODEL 9
REMARK VINA RESULT:      -6.1      9.552     12.900
REMARK  Name = 
REMARK  6 active torsions:
REMARK  status: ('A' for Active; 'I' for Inactive)
REMARK    1  A    between atoms: C_1  and  C_2
REMARK    2  A    between atoms: C_2  and  O_3
REMARK    3  A    between atoms: O_3  and  C_4
REMARK    4  A    between atoms: C_4  and  C_6
REMARK    5  A    between atoms: C_16  and  O_17
REMARK    6  A    between atoms: C_23  and  O_24
REMARK                            x       y       z     vdW  Elec       q    Type
REMARK                         _______ _______ _______ _____ _____    ______ ____
ROOT
ATOM      1  C   UNL     1      -4.089  12.874  22.448  0.00  0.00    +0.000 C 
ATOM      2  C   UNL     1      -3.186  12.124  23.439  0.00  0.00    +0.000 C 
ATOM      3  C   UNL     1      -1.781  12.696  23.251  0.00  0.00    +0.000 C 
ATOM      4  C   UNL     1      -2.056  14.150  22.858  0.00  0.00    +0.000 C 
ATOM      5  C   UNL     1      -0.827  14.849  22.297  0.00  0.00    +0.000 C 
ATOM      6  C   UNL     1      -0.076  14.062  21.228  0.00  0.00    +0.000 C 
ATOM      7  C   UNL     1       0.223  12.601  21.620  0.00  0.00    +0.000 C 
ATOM      8  C   UNL     1       0.761  11.740  20.475  0.00  0.00    +0.000 A 
ATOM      9  C   UNL     1       1.462  12.308  19.396  0.00  0.00    +0.000 A 
ATOM     10  C   UNL     1       1.877  11.531  18.316  0.00  0.00    +0.000 A 
ATOM     11  C   UNL     1       1.619  10.167  18.313  0.00  0.00    +0.000 A 
ATOM     12  C   UNL     1       0.972   9.567  19.382  0.00  0.00    +0.000 A 
ATOM     13  C   UNL     1       0.546  10.339  20.473  0.00  0.00    +0.000 A 
ATOM     14  C   UNL     1      -0.213   9.627  21.569  0.00  0.00    +0.000 C 
ATOM     15  C   UNL     1      -0.567  10.531  22.743  0.00  0.00    +0.000 C 
ATOM     16  C   UNL     1      -1.022  11.894  22.194  0.00  0.00    +0.000 C 
ATOM     17  C   UNL     1      -3.316  14.110  21.975  0.00  0.00    +0.000 C 
ENDROOT
BRANCH   1  18
ATOM     18  C   UNL     1      -5.326  13.245  23.212  0.00  0.00    +0.000 C 
ATOM     19  O   UNL     1      -5.914  12.502  23.992  0.00  0.00    +0.000 OA
BRANCH  18  20
ATOM     20  O   UNL     1      -5.774  14.454  22.782  0.00  0.00    +0.000 OA
BRANCH  20  22
ATOM     21  C   UNL     1      -5.556  16.379  24.222  0.00  0.00    +0.000 C 
ATOM     22  C   UNL     1      -6.442  15.233  23.776  0.00  0.00    +0.000 C 
ENDBRANCH  20  22
ENDBRANCH  18  20
ENDBRANCH   1  18
BRANCH  11  23
ATOM     23  O   UNL     1       1.978   9.376  17.263  0.00  0.00    +0.000 OA
ATOM     24  H   UNL     1       1.239   9.349  16.632  0.00  0.00    +0.000 HD
ENDBRANCH  11  23
BRANCH  17  25
ATOM     25  O   UNL     1      -3.048  14.027  20.581  0.00  0.00    +0.000 OA
ATOM     26  H   UNL     1      -2.601  13.189  20.375  0.00  0.00    +0.000 HD
ENDBRANCH  17  25
TORSDOF 5
ENDMDL
