MODEL 1
REMARK VINA RESULT:      -6.2      0.000      0.000
REMARK  Name = 
REMARK  4 active torsions:
REMARK  status: ('A' for Active; 'I' for Inactive)
REMARK    1  A    between atoms: C_1  and  O_2
REMARK    2  A    between atoms: O_2  and  C_3
REMARK    3  A    between atoms: C_6  and  C_7
REMARK    4  A    between atoms: C_18  and  C_19
REMARK                            x       y       z     vdW  Elec       q    Type
REMARK                         _______ _______ _______ _____ _____    ______ ____
ROOT
ATOM      1  C   UNL     1       1.768   6.770  20.581  0.00  0.00    +0.000 C 
ATOM      2  C   UNL     1       1.485   8.080  20.580  0.00  0.00    +0.000 A 
ATOM      3  S   UNL     1       0.758   9.011  21.865  0.00  0.00    +0.000 S 
ATOM      4  C   UNL     1       0.296  10.287  20.752  0.00  0.00    +0.000 A 
ATOM      5  N   UNL     1       0.616   9.892  19.476  0.00  0.00    +0.000 N 
ATOM      6  C   UNL     1       1.582   8.934  19.358  0.00  0.00    +0.000 A 
ATOM      7  O   UNL     1       2.417   8.835  18.468  0.00  0.00    +0.000 OA
ATOM      8  N   UNL     1       0.137  10.575  18.354  0.00  0.00    +0.000 N 
ATOM      9  C   UNL     1      -1.079  11.328  18.700  0.00  0.00    +0.000 C 
ATOM     10  C   UNL     1      -2.326  10.507  19.122  0.00  0.00    +0.000 C 
ATOM     11  C   UNL     1      -2.907   9.569  18.078  0.00  0.00    +0.000 C 
ATOM     12  C   UNL     1      -2.948  10.095  16.641  0.00  0.00    +0.000 C 
ATOM     13  C   UNL     1      -4.367  10.526  16.252  0.00  0.00    +0.000 C 
ATOM     14  C   UNL     1      -1.874  11.147  16.297  0.00  0.00    +0.000 C 
ATOM     15  C   UNL     1      -1.471  12.110  17.433  0.00  0.00    +0.000 C 
ATOM     16  N   UNL     1      -0.675  12.129  19.880  0.00  0.00    +0.000 N 
ATOM     17  N   UNL     1      -0.332  11.395  21.033  0.00  0.00    +0.000 NA
ATOM     18  H   UNL     1       0.865  11.254  18.119  0.00  0.00    +0.000 HD
ATOM     19  H   UNL     1      -1.397  12.812  20.110  0.00  0.00    +0.000 HD
ENDROOT
BRANCH   1  23
ATOM     20  C   UNL     1       3.628   4.519  17.452  0.00  0.00    +0.000 A 
ATOM     21  C   UNL     1       2.245   4.513  17.638  0.00  0.00    +0.000 A 
ATOM     22  C   UNL     1       1.651   5.313  18.614  0.00  0.00    +0.000 A 
ATOM     23  C   UNL     1       2.435   6.124  19.439  0.00  0.00    +0.000 A 
ATOM     24  C   UNL     1       3.826   6.141  19.248  0.00  0.00    +0.000 A 
ATOM     25  C   UNL     1       4.423   5.338  18.256  0.00  0.00    +0.000 A 
BRANCH  20  27
ATOM     26  C   UNL     1       5.341   3.917  15.918  0.00  0.00    +0.000 C 
ATOM     27  O   UNL     1       4.068   3.653  16.491  0.00  0.00    +0.000 OA
ENDBRANCH  20  27
ENDBRANCH   1  23
TORSDOF 2
ENDMDL
MODEL 2
REMARK VINA RESULT:      -6.0      8.008      8.982
REMARK  Name = 
REMARK  4 active torsions:
REMARK  status: ('A' for Active; 'I' for Inactive)
REMARK    1  A    between atoms: C_1  and  O_2
REMARK    2  A    between atoms: O_2  and  C_3
REMARK    3  A    between atoms: C_6  and  C_7
REMARK    4  A    between atoms: C_18  and  C_19
REMARK                            x       y       z     vdW  Elec       q    Type
REMARK                         _______ _______ _______ _____ _____    ______ ____
ROOT
ATOM      1  C   UNL     1       8.702  11.427  21.508  0.00  0.00    +0.000 C 
ATOM      2  C   UNL     1       7.973  12.311  22.203  0.00  0.00    +0.000 A 
ATOM      3  S   UNL     1       6.816  11.976  23.465  0.00  0.00    +0.000 S 
ATOM      4  C   UNL     1       6.065  13.550  23.269  0.00  0.00    +0.000 A 
ATOM      5  N   UNL     1       6.653  14.186  22.203  0.00  0.00    +0.000 N 
ATOM      6  C   UNL     1       7.903  13.763  21.854  0.00  0.00    +0.000 A 
ATOM      7  O   UNL     1       8.817  14.448  21.415  0.00  0.00    +0.000 OA
ATOM      8  N   UNL     1       6.098  15.339  21.639  0.00  0.00    +0.000 N 
ATOM      9  C   UNL     1       4.662  15.415  21.950  0.00  0.00    +0.000 C 
ATOM     10  C   UNL     1       3.749  14.307  21.361  0.00  0.00    +0.000 C 
ATOM     11  C   UNL     1       3.668  14.228  19.846  0.00  0.00    +0.000 C 
ATOM     12  C   UNL     1       3.612  15.563  19.100  0.00  0.00    +0.000 C 
ATOM     13  C   UNL     1       2.189  15.864  18.614  0.00  0.00    +0.000 C 
ATOM     14  C   UNL     1       4.273  16.750  19.828  0.00  0.00    +0.000 C 
ATOM     15  C   UNL     1       4.170  16.752  21.367  0.00  0.00    +0.000 C 
ATOM     16  N   UNL     1       4.612  15.270  23.425  0.00  0.00    +0.000 N 
ATOM     17  N   UNL     1       5.056  14.035  23.937  0.00  0.00    +0.000 NA
ATOM     18  H   UNL     1       6.559  16.120  22.111  0.00  0.00    +0.000 HD
ATOM     19  H   UNL     1       3.672  15.468  23.769  0.00  0.00    +0.000 HD
ENDROOT
BRANCH   1  23
ATOM     20  C   UNL     1      11.541  12.288  18.423  0.00  0.00    +0.000 A 
ATOM     21  C   UNL     1      10.188  12.096  18.142  0.00  0.00    +0.000 A 
ATOM     22  C   UNL     1       9.266  11.893  19.169  0.00  0.00    +0.000 A 
ATOM     23  C   UNL     1       9.686  11.858  20.501  0.00  0.00    +0.000 A 
ATOM     24  C   UNL     1      11.044  12.062  20.789  0.00  0.00    +0.000 A 
ATOM     25  C   UNL     1      11.972  12.275  19.751  0.00  0.00    +0.000 A 
BRANCH  20  27
ATOM     26  C   UNL     1      12.187  13.631  16.571  0.00  0.00    +0.000 C 
ATOM     27  O   UNL     1      12.329  12.430  17.315  0.00  0.00    +0.000 OA
ENDBRANCH  20  27
ENDBRANCH   1  23
TORSDOF 2
ENDMDL
MODEL 3
REMARK VINA RESULT:      -6.0      3.850      5.421
REMARK  Name = 
REMARK  4 active torsions:
REMARK  status: ('A' for Active; 'I' for Inactive)
REMARK    1  A    between atoms: C_1  and  O_2
REMARK    2  A    between atoms: O_2  and  C_3
REMARK    3  A    between atoms: C_6  and  C_7
REMARK    4  A    between atoms: C_18  and  C_19
REMARK                            x       y       z     vdW  Elec       q    Type
REMARK                         _______ _______ _______ _____ _____    ______ ____
ROOT
ATOM      1  C   UNL     1      -0.984  10.603  20.319  0.00  0.00    +0.000 C 
ATOM      2  C   UNL     1      -0.881  11.719  21.053  0.00  0.00    +0.000 A 
ATOM      3  S   UNL     1      -2.175  12.633  21.783  0.00  0.00    +0.000 S 
ATOM      4  C   UNL     1      -1.158  14.054  21.935  0.00  0.00    +0.000 A 
ATOM      5  N   UNL     1       0.050  13.795  21.335  0.00  0.00    +0.000 N 
ATOM      6  C   UNL     1       0.395  12.481  21.203  0.00  0.00    +0.000 A 
ATOM      7  O   UNL     1       1.521  12.004  21.273  0.00  0.00    +0.000 OA
ATOM      8  N   UNL     1       0.969  14.813  21.064  0.00  0.00    +0.000 N 
ATOM      9  C   UNL     1       0.282  16.112  20.997  0.00  0.00    +0.000 C 
ATOM     10  C   UNL     1      -0.751  16.310  19.856  0.00  0.00    +0.000 C 
ATOM     11  C   UNL     1      -0.216  16.243  18.436  0.00  0.00    +0.000 C 
ATOM     12  C   UNL     1       1.141  16.909  18.191  0.00  0.00    +0.000 C 
ATOM     13  C   UNL     1       0.973  18.258  17.480  0.00  0.00    +0.000 C 
ATOM     14  C   UNL     1       2.071  16.977  19.419  0.00  0.00    +0.000 C 
ATOM     15  C   UNL     1       1.384  17.167  20.786  0.00  0.00    +0.000 C 
ATOM     16  N   UNL     1      -0.472  16.179  22.272  0.00  0.00    +0.000 N 
ATOM     17  N   UNL     1      -1.483  15.212  22.439  0.00  0.00    +0.000 NA
ATOM     18  H   UNL     1       1.595  14.835  21.872  0.00  0.00    +0.000 HD
ATOM     19  H   UNL     1      -0.862  17.112  22.405  0.00  0.00    +0.000 HD
ENDROOT
BRANCH   1  23
ATOM     20  C   UNL     1       2.214   8.364  18.563  0.00  0.00    +0.000 A 
ATOM     21  C   UNL     1       1.564   9.384  17.867  0.00  0.00    +0.000 A 
ATOM     22  C   UNL     1       0.577  10.153  18.483  0.00  0.00    +0.000 A 
ATOM     23  C   UNL     1       0.205   9.902  19.806  0.00  0.00    +0.000 A 
ATOM     24  C   UNL     1       0.864   8.884  20.513  0.00  0.00    +0.000 A 
ATOM     25  C   UNL     1       1.867   8.114  19.892  0.00  0.00    +0.000 A 
BRANCH  20  27
ATOM     26  C   UNL     1       3.228   6.274  18.060  0.00  0.00    +0.000 C 
ATOM     27  O   UNL     1       3.125   7.669  17.818  0.00  0.00    +0.000 OA
ENDBRANCH  20  27
ENDBRANCH   1  23
TORSDOF 2
ENDMDL
MODEL 4
REMARK VINA RESULT:      -6.0      0.967      1.076
REMARK  Name = 
REMARK  4 active torsions:
REMARK  status: ('A' for Active; 'I' for Inactive)
REMARK    1  A    between atoms: C_1  and  O_2
REMARK    2  A    between atoms: O_2  and  C_3
REMARK    3  A    between atoms: C_6  and  C_7
REMARK    4  A    between atoms: C_18  and  C_19
REMARK                            x       y       z     vdW  Elec       q    Type
REMARK                         _______ _______ _______ _____ _____    ______ ____
ROOT
ATOM      1  C   UNL     1       1.581   6.846  21.034  0.00  0.00    +0.000 C 
ATOM      2  C   UNL     1       1.483   8.160  20.792  0.00  0.00    +0.000 A 
ATOM      3  S   UNL     1       1.082   9.423  21.927  0.00  0.00    +0.000 S 
ATOM      4  C   UNL     1       0.644  10.522  20.632  0.00  0.00    +0.000 A 
ATOM      5  N   UNL     1       0.720   9.846  19.439  0.00  0.00    +0.000 N 
ATOM      6  C   UNL     1       1.518   8.739  19.415  0.00  0.00    +0.000 A 
ATOM      7  O   UNL     1       2.196   8.339  18.477  0.00  0.00    +0.000 OA
ATOM      8  N   UNL     1       0.183  10.374  18.260  0.00  0.00    +0.000 N 
ATOM      9  C   UNL     1      -0.856  11.366  18.576  0.00  0.00    +0.000 C 
ATOM     10  C   UNL     1      -2.130  10.854  19.300  0.00  0.00    +0.000 C 
ATOM     11  C   UNL     1      -2.978   9.842  18.548  0.00  0.00    +0.000 C 
ATOM     12  C   UNL     1      -3.153  10.087  17.047  0.00  0.00    +0.000 C 
ATOM     13  C   UNL     1      -4.542  10.661  16.740  0.00  0.00    +0.000 C 
ATOM     14  C   UNL     1      -2.006  10.865  16.371  0.00  0.00    +0.000 C 
ATOM     15  C   UNL     1      -1.316  11.946  17.227  0.00  0.00    +0.000 C 
ATOM     16  N   UNL     1      -0.181  12.299  19.510  0.00  0.00    +0.000 N 
ATOM     17  N   UNL     1       0.221  11.751  20.744  0.00  0.00    +0.000 NA
ATOM     18  H   UNL     1       0.955  10.867  17.807  0.00  0.00    +0.000 HD
ATOM     19  H   UNL     1      -0.763  13.122  19.672  0.00  0.00    +0.000 HD
ENDROOT
BRANCH   1  23
ATOM     20  C   UNL     1       2.752   3.781  18.285  0.00  0.00    +0.000 A 
ATOM     21  C   UNL     1       1.470   3.824  18.834  0.00  0.00    +0.000 A 
ATOM     22  C   UNL     1       1.083   4.873  19.668  0.00  0.00    +0.000 A 
ATOM     23  C   UNL     1       1.983   5.894  19.985  0.00  0.00    +0.000 A 
ATOM     24  C   UNL     1       3.270   5.861  19.426  0.00  0.00    +0.000 A 
ATOM     25  C   UNL     1       3.655   4.805  18.577  0.00  0.00    +0.000 A 
BRANCH  20  27
ATOM     26  C   UNL     1       3.492   1.524  18.200  0.00  0.00    +0.000 C 
ATOM     27  O   UNL     1       3.000   2.673  17.525  0.00  0.00    +0.000 OA
ENDBRANCH  20  27
ENDBRANCH   1  23
TORSDOF 2
ENDMDL
MODEL 5
REMARK VINA RESULT:      -5.9      0.370      1.030
REMARK  Name = 
REMARK  4 active torsions:
REMARK  status: ('A' for Active; 'I' for Inactive)
REMARK    1  A    between atoms: C_1  and  O_2
REMARK    2  A    between atoms: O_2  and  C_3
REMARK    3  A    between atoms: C_6  and  C_7
REMARK    4  A    between atoms: C_18  and  C_19
REMARK                            x       y       z     vdW  Elec       q    Type
REMARK                         _______ _______ _______ _____ _____    ______ ____
ROOT
ATOM      1  C   UNL     1       1.735   6.696  20.828  0.00  0.00    +0.000 C 
ATOM      2  C   UNL     1       1.578   8.017  20.668  0.00  0.00    +0.000 A 
ATOM      3  S   UNL     1       1.084   9.181  21.869  0.00  0.00    +0.000 S 
ATOM      4  C   UNL     1       0.628  10.342  20.635  0.00  0.00    +0.000 A 
ATOM      5  N   UNL     1       0.771   9.751  19.404  0.00  0.00    +0.000 N 
ATOM      6  C   UNL     1       1.624   8.687  19.333  0.00  0.00    +0.000 A 
ATOM      7  O   UNL     1       2.346   8.382  18.393  0.00  0.00    +0.000 OA
ATOM      8  N   UNL     1       0.241  10.328  18.246  0.00  0.00    +0.000 N 
ATOM      9  C   UNL     1      -0.854  11.247  18.593  0.00  0.00    +0.000 C 
ATOM     10  C   UNL     1      -2.121  10.628  19.242  0.00  0.00    +0.000 C 
ATOM     11  C   UNL     1      -2.896   9.629  18.401  0.00  0.00    +0.000 C 
ATOM     12  C   UNL     1      -3.041   9.964  16.914  0.00  0.00    +0.000 C 
ATOM     13  C   UNL     1      -4.447  10.490  16.601  0.00  0.00    +0.000 C 
ATOM     14  C   UNL     1      -1.916  10.838  16.325  0.00  0.00    +0.000 C 
ATOM     15  C   UNL     1      -1.305  11.893  17.270  0.00  0.00    +0.000 C 
ATOM     16  N   UNL     1      -0.252  12.148  19.605  0.00  0.00    +0.000 N 
ATOM     17  N   UNL     1       0.142  11.539  20.813  0.00  0.00    +0.000 NA
ATOM     18  H   UNL     1       1.000  10.887  17.850  0.00  0.00    +0.000 HD
ATOM     19  H   UNL     1      -0.878  12.929  19.802  0.00  0.00    +0.000 HD
ENDROOT
BRANCH   1  23
ATOM     20  C   UNL     1       3.251   4.550  17.450  0.00  0.00    +0.000 A 
ATOM     21  C   UNL     1       4.101   5.158  18.374  0.00  0.00    +0.000 A 
ATOM     22  C   UNL     1       3.590   5.787  19.509  0.00  0.00    +0.000 A 
ATOM     23  C   UNL     1       2.212   5.836  19.733  0.00  0.00    +0.000 A 
ATOM     24  C   UNL     1       1.354   5.215  18.811  0.00  0.00    +0.000 A 
ATOM     25  C   UNL     1       1.873   4.573  17.669  0.00  0.00    +0.000 A 
BRANCH  20  27
ATOM     26  C   UNL     1       5.297   4.202  16.290  0.00  0.00    +0.000 C 
ATOM     27  O   UNL     1       3.892   4.013  16.368  0.00  0.00    +0.000 OA
ENDBRANCH  20  27
ENDBRANCH   1  23
TORSDOF 2
ENDMDL
MODEL 6
REMARK VINA RESULT:      -5.9      6.520      8.890
REMARK  Name = 
REMARK  4 active torsions:
REMARK  status: ('A' for Active; 'I' for Inactive)
REMARK    1  A    between atoms: C_1  and  O_2
REMARK    2  A    between atoms: O_2  and  C_3
REMARK    3  A    between atoms: C_6  and  C_7
REMARK    4  A    between atoms: C_18  and  C_19
REMARK                            x       y       z     vdW  Elec       q    Type
REMARK                         _______ _______ _______ _____ _____    ______ ____
ROOT
ATOM      1  C   UNL     1       1.725  14.291  18.478  0.00  0.00    +0.000 C 
ATOM      2  C   UNL     1       2.711  15.101  18.887  0.00  0.00    +0.000 A 
ATOM      3  S   UNL     1       3.185  16.631  18.195  0.00  0.00    +0.000 S 
ATOM      4  C   UNL     1       4.761  16.551  18.962  0.00  0.00    +0.000 A 
ATOM      5  N   UNL     1       4.877  15.339  19.599  0.00  0.00    +0.000 N 
ATOM      6  C   UNL     1       3.712  14.707  19.924  0.00  0.00    +0.000 A 
ATOM      7  O   UNL     1       3.499  14.017  20.913  0.00  0.00    +0.000 OA
ATOM      8  N   UNL     1       6.106  14.876  20.077  0.00  0.00    +0.000 N 
ATOM      9  C   UNL     1       7.210  15.536  19.362  0.00  0.00    +0.000 C 
ATOM     10  C   UNL     1       7.338  15.256  17.841  0.00  0.00    +0.000 C 
ATOM     11  C   UNL     1       7.610  13.817  17.436  0.00  0.00    +0.000 C 
ATOM     12  C   UNL     1       8.597  13.041  18.313  0.00  0.00    +0.000 C 
ATOM     13  C   UNL     1       9.964  12.917  17.628  0.00  0.00    +0.000 C 
ATOM     14  C   UNL     1       8.688  13.516  19.777  0.00  0.00    +0.000 C 
ATOM     15  C   UNL     1       8.507  15.029  20.017  0.00  0.00    +0.000 C 
ATOM     16  N   UNL     1       6.909  16.981  19.505  0.00  0.00    +0.000 N 
ATOM     17  N   UNL     1       5.724  17.426  18.888  0.00  0.00    +0.000 NA
ATOM     18  H   UNL     1       6.148  15.174  21.054  0.00  0.00    +0.000 HD
ATOM     19  H   UNL     1       7.698  17.541  19.182  0.00  0.00    +0.000 HD
ENDROOT
BRANCH   1  23
ATOM     20  C   UNL     1       0.526  10.578  20.236  0.00  0.00    +0.000 A 
ATOM     21  C   UNL     1       1.361  10.624  19.119  0.00  0.00    +0.000 A 
ATOM     22  C   UNL     1       1.802  11.844  18.608  0.00  0.00    +0.000 A 
ATOM     23  C   UNL     1       1.400  13.047  19.195  0.00  0.00    +0.000 A 
ATOM     24  C   UNL     1       0.569  13.003  20.326  0.00  0.00    +0.000 A 
ATOM     25  C   UNL     1       0.131  11.770  20.845  0.00  0.00    +0.000 A 
BRANCH  20  27
ATOM     26  C   UNL     1       0.909   8.667  21.597  0.00  0.00    +0.000 C 
ATOM     27  O   UNL     1       0.141   9.316  20.596  0.00  0.00    +0.000 OA
ENDBRANCH  20  27
ENDBRANCH   1  23
TORSDOF 2
ENDMDL
MODEL 7
REMARK VINA RESULT:      -5.8      4.541      6.185
REMARK  Name = 
REMARK  4 active torsions:
REMARK  status: ('A' for Active; 'I' for Inactive)
REMARK    1  A    between atoms: C_1  and  O_2
REMARK    2  A    between atoms: O_2  and  C_3
REMARK    3  A    between atoms: C_6  and  C_7
REMARK    4  A    between atoms: C_18  and  C_19
REMARK                            x       y       z     vdW  Elec       q    Type
REMARK                         _______ _______ _______ _____ _____    ______ ____
ROOT
ATOM      1  C   UNL     1       0.363  10.769  18.511  0.00  0.00    +0.000 C 
ATOM      2  C   UNL     1       0.445  11.981  19.078  0.00  0.00    +0.000 A 
ATOM      3  S   UNL     1      -0.368  13.443  18.583  0.00  0.00    +0.000 S 
ATOM      4  C   UNL     1       0.775  14.441  19.464  0.00  0.00    +0.000 A 
ATOM      5  N   UNL     1       1.755  13.631  19.984  0.00  0.00    +0.000 N 
ATOM      6  C   UNL     1       1.433  12.314  20.148  0.00  0.00    +0.000 A 
ATOM      7  O   UNL     1       1.814  11.569  21.042  0.00  0.00    +0.000 OA
ATOM      8  N   UNL     1       2.939  14.155  20.511  0.00  0.00    +0.000 N 
ATOM      9  C   UNL     1       3.190  15.495  19.957  0.00  0.00    +0.000 C 
ATOM     10  C   UNL     1       3.455  15.595  18.432  0.00  0.00    +0.000 C 
ATOM     11  C   UNL     1       4.688  14.878  17.908  0.00  0.00    +0.000 C 
ATOM     12  C   UNL     1       5.944  14.965  18.780  0.00  0.00    +0.000 C 
ATOM     13  C   UNL     1       6.950  15.966  18.199  0.00  0.00    +0.000 C 
ATOM     14  C   UNL     1       5.684  15.163  20.287  0.00  0.00    +0.000 C 
ATOM     15  C   UNL     1       4.456  16.017  20.662  0.00  0.00    +0.000 C 
ATOM     16  N   UNL     1       1.929  16.228  20.220  0.00  0.00    +0.000 N 
ATOM     17  N   UNL     1       0.785  15.742  19.557  0.00  0.00    +0.000 NA
ATOM     18  H   UNL     1       2.766  14.261  21.513  0.00  0.00    +0.000 HD
ATOM     19  H   UNL     1       2.047  17.221  20.020  0.00  0.00    +0.000 HD
ENDROOT
BRANCH   1  23
ATOM     20  C   UNL     1       2.208   7.148  19.851  0.00  0.00    +0.000 A 
ATOM     21  C   UNL     1       2.535   7.727  18.625  0.00  0.00    +0.000 A 
ATOM     22  C   UNL     1       1.980   8.947  18.240  0.00  0.00    +0.000 A 
ATOM     23  C   UNL     1       1.069   9.605  19.070  0.00  0.00    +0.000 A 
ATOM     24  C   UNL     1       0.746   9.031  20.310  0.00  0.00    +0.000 A 
ATOM     25  C   UNL     1       1.314   7.802  20.701  0.00  0.00    +0.000 A 
BRANCH  20  27
ATOM     26  C   UNL     1       2.028   4.962  20.769  0.00  0.00    +0.000 C 
ATOM     27  O   UNL     1       2.795   5.933  20.072  0.00  0.00    +0.000 OA
ENDBRANCH  20  27
ENDBRANCH   1  23
TORSDOF 2
ENDMDL
MODEL 8
REMARK VINA RESULT:      -5.8      3.247      7.517
REMARK  Name = 
REMARK  4 active torsions:
REMARK  status: ('A' for Active; 'I' for Inactive)
REMARK    1  A    between atoms: C_1  and  O_2
REMARK    2  A    between atoms: O_2  and  C_3
REMARK    3  A    between atoms: C_6  and  C_7
REMARK    4  A    between atoms: C_18  and  C_19
REMARK                            x       y       z     vdW  Elec       q    Type
REMARK                         _______ _______ _______ _____ _____    ______ ____
ROOT
ATOM      1  C   UNL     1       1.695   9.524  17.450  0.00  0.00    +0.000 C 
ATOM      2  C   UNL     1       2.557   8.687  18.041  0.00  0.00    +0.000 A 
ATOM      3  S   UNL     1       4.041   8.049  17.381  0.00  0.00    +0.000 S 
ATOM      4  C   UNL     1       4.058   6.735  18.544  0.00  0.00    +0.000 A 
ATOM      5  N   UNL     1       2.901   6.790  19.283  0.00  0.00    +0.000 N 
ATOM      6  C   UNL     1       2.267   7.998  19.335  0.00  0.00    +0.000 A 
ATOM      7  O   UNL     1       1.648   8.465  20.283  0.00  0.00    +0.000 OA
ATOM      8  N   UNL     1       2.505   5.732  20.106  0.00  0.00    +0.000 N 
ATOM      9  C   UNL     1       3.135   4.479  19.660  0.00  0.00    +0.000 C 
ATOM     10  C   UNL     1       2.744   3.948  18.256  0.00  0.00    +0.000 C 
ATOM     11  C   UNL     1       1.285   3.573  18.054  0.00  0.00    +0.000 C 
ATOM     12  C   UNL     1       0.602   2.855  19.220  0.00  0.00    +0.000 C 
ATOM     13  C   UNL     1       0.459   1.354  18.936  0.00  0.00    +0.000 C 
ATOM     14  C   UNL     1       1.189   3.160  20.613  0.00  0.00    +0.000 C 
ATOM     15  C   UNL     1       2.710   3.403  20.676  0.00  0.00    +0.000 C 
ATOM     16  N   UNL     1       4.579   4.812  19.604  0.00  0.00    +0.000 N 
ATOM     17  N   UNL     1       4.948   5.790  18.660  0.00  0.00    +0.000 NA
ATOM     18  H   UNL     1       2.877   5.954  21.032  0.00  0.00    +0.000 HD
ATOM     19  H   UNL     1       5.132   3.967  19.459  0.00  0.00    +0.000 HD
ENDROOT
BRANCH   1  23
ATOM     20  C   UNL     1      -1.875  11.185  19.128  0.00  0.00    +0.000 A 
ATOM     21  C   UNL     1      -1.918  10.181  18.160  0.00  0.00    +0.000 A 
ATOM     22  C   UNL     1      -0.744   9.599  17.681  0.00  0.00    +0.000 A 
ATOM     23  C   UNL     1       0.501  10.026  18.151  0.00  0.00    +0.000 A 
ATOM     24  C   UNL     1       0.548  11.027  19.133  0.00  0.00    +0.000 A 
ATOM     25  C   UNL     1      -0.639  11.608  19.621  0.00  0.00    +0.000 A 
BRANCH  20  27
ATOM     26  C   UNL     1      -4.113  11.647  18.474  0.00  0.00    +0.000 C 
ATOM     27  O   UNL     1      -3.099  11.690  19.467  0.00  0.00    +0.000 OA
ENDBRANCH  20  27
ENDBRANCH   1  23
TORSDOF 2
ENDMDL
MODEL 9
REMARK VINA RESULT:      -5.8      4.914      7.584
REMARK  Name = 
REMARK  4 active torsions:
REMARK  status: ('A' for Active; 'I' for Inactive)
REMARK    1  A    between atoms: C_1  and  O_2
REMARK    2  A    between atoms: O_2  and  C_3
REMARK    3  A    between atoms: C_6  and  C_7
REMARK    4  A    between atoms: C_18  and  C_19
REMARK                            x       y       z     vdW  Elec       q    Type
REMARK                         _______ _______ _______ _____ _____    ______ ____
ROOT
ATOM      1  C   UNL     1       1.957  15.126  20.522  0.00  0.00    +0.000 C 
ATOM      2  C   UNL     1       1.291  14.358  19.649  0.00  0.00    +0.000 A 
ATOM      3  S   UNL     1      -0.437  14.174  19.498  0.00  0.00    +0.000 S 
ATOM      4  C   UNL     1      -0.255  12.665  18.623  0.00  0.00    +0.000 A 
ATOM      5  N   UNL     1       1.078  12.335  18.590  0.00  0.00    +0.000 N 
ATOM      6  C   UNL     1       1.964  13.360  18.763  0.00  0.00    +0.000 A 
ATOM      7  O   UNL     1       3.062  13.481  18.237  0.00  0.00    +0.000 OA
ATOM      8  N   UNL     1       1.512  11.066  18.194  0.00  0.00    +0.000 N 
ATOM      9  C   UNL     1       0.428  10.085  18.361  0.00  0.00    +0.000 C 
ATOM     10  C   UNL     1      -0.065   9.811  19.806  0.00  0.00    +0.000 C 
ATOM     11  C   UNL     1       0.950   9.221  20.770  0.00  0.00    +0.000 C 
ATOM     12  C   UNL     1       1.881   8.147  20.199  0.00  0.00    +0.000 C 
ATOM     13  C   UNL     1       1.451   6.746  20.654  0.00  0.00    +0.000 C 
ATOM     14  C   UNL     1       2.144   8.244  18.684  0.00  0.00    +0.000 C 
ATOM     15  C   UNL     1       0.973   8.752  17.818  0.00  0.00    +0.000 C 
ATOM     16  N   UNL     1      -0.711  10.689  17.629  0.00  0.00    +0.000 N 
ATOM     17  N   UNL     1      -1.202  11.903  18.149  0.00  0.00    +0.000 NA
ATOM     18  H   UNL     1       1.706  11.146  17.194  0.00  0.00    +0.000 HD
ATOM     19  H   UNL     1      -1.474  10.018  17.543  0.00  0.00    +0.000 HD
ENDROOT
BRANCH   1  23
ATOM     20  C   UNL     1       6.200  15.581  20.848  0.00  0.00    +0.000 A 
ATOM     21  C   UNL     1       5.506  14.625  21.589  0.00  0.00    +0.000 A 
ATOM     22  C   UNL     1       4.135  14.440  21.413  0.00  0.00    +0.000 A 
ATOM     23  C   UNL     1       3.426  15.225  20.500  0.00  0.00    +0.000 A 
ATOM     24  C   UNL     1       4.122  16.181  19.744  0.00  0.00    +0.000 A 
ATOM     25  C   UNL     1       5.509  16.361  19.919  0.00  0.00    +0.000 A 
BRANCH  20  27
ATOM     26  C   UNL     1       8.420  15.986  20.099  0.00  0.00    +0.000 C 
ATOM     27  O   UNL     1       7.527  15.678  21.160  0.00  0.00    +0.000 OA
ENDBRANCH  20  27
ENDBRANCH   1  23
TORSDOF 2
ENDMDL
