MODEL 1
REMARK VINA RESULT:      -9.7      0.000      0.000
REMARK  Name = 
REMARK  7 active torsions:
REMARK  status: ('A' for Active; 'I' for Inactive)
REMARK    1  A    between atoms: C_1  and  C_2
REMARK    2  A    between atoms: C_3  and  C_4
REMARK    3  A    between atoms: C_4  and  C_5
REMARK    4  A    between atoms: C_5  and  O_7
REMARK    5  A    between atoms: C_16  and  C_17
REMARK    6  A    between atoms: C_20  and  S_21
REMARK    7  A    between atoms: S_21  and  N_24
REMARK                            x       y       z     vdW  Elec       q    Type
REMARK                         _______ _______ _______ _____ _____    ______ ____
ROOT
ATOM      1  C   UNL     1       4.836   7.390  16.809  0.00  0.00    +0.000 C 
ATOM      2  C   UNL     1       4.259   6.016  17.088  0.00  0.00    +0.000 A 
ATOM      3  C   UNL     1       4.764   4.893  16.401  0.00  0.00    +0.000 A 
ATOM      4  C   UNL     1       4.450   3.616  16.885  0.00  0.00    +0.000 A 
ATOM      5  C   UNL     1       3.639   3.431  18.009  0.00  0.00    +0.000 A 
ATOM      6  C   UNL     1       3.502   2.139  18.550  0.00  0.00    +0.000 A 
ATOM      7  C   UNL     1       2.736   1.910  19.690  0.00  0.00    +0.000 A 
ATOM      8  C   UNL     1       2.030   2.964  20.245  0.00  0.00    +0.000 A 
ATOM      9 CL   UNL     1       1.098   2.714  21.671  0.00  0.00    +0.000 Cl
ATOM     10  C   UNL     1       2.107   4.238  19.679  0.00  0.00    +0.000 A 
ATOM     11  C   UNL     1       2.974   4.538  18.593  0.00  0.00    +0.000 A 
ATOM     12  C   UNL     1       3.240   5.860  18.081  0.00  0.00    +0.000 A 
ENDROOT
BRANCH  12  13
ATOM     13  C   UNL     1       2.446   7.055  18.514  0.00  0.00    +0.000 A 
ATOM     14  C   UNL     1       1.956   8.023  17.619  0.00  0.00    +0.000 A 
ATOM     15  C   UNL     1       1.363   9.209  18.078  0.00  0.00    +0.000 A 
ATOM     16  C   UNL     1       1.179   9.403  19.449  0.00  0.00    +0.000 A 
ATOM     17  C   UNL     1       1.563   8.425  20.357  0.00  0.00    +0.000 A 
ATOM     18  C   UNL     1       2.212   7.279  19.890  0.00  0.00    +0.000 A 
BRANCH  16  19
ATOM     19  S   UNL     1       0.589  10.963  20.062  0.00  0.00    +0.000 S 
ATOM     20  O   UNL     1      -0.850  10.851  20.178  0.00  0.00    +0.000 OA
ATOM     21  O   UNL     1       1.398  11.323  21.210  0.00  0.00    +0.000 OA
BRANCH  19  22
ATOM     22  N   UNL     1       0.928  12.070  18.812  0.00  0.00    +0.000 NA
ATOM     23  C   UNL     1       2.219  12.823  18.889  0.00  0.00    +0.000 C 
ATOM     24  C   UNL     1       2.133  14.021  19.844  0.00  0.00    +0.000 C 
ATOM     25  O   UNL     1       1.044  14.893  19.503  0.00  0.00    +0.000 OA
ATOM     26  C   UNL     1      -0.206  14.188  19.522  0.00  0.00    +0.000 C 
ATOM     27  C   UNL     1      -0.192  13.027  18.523  0.00  0.00    +0.000 C 
ENDBRANCH  19  22
ENDBRANCH  16  19
ENDBRANCH  12  13
BRANCH   3  28
ATOM     28  C   UNL     1       5.686   4.996  15.196  0.00  0.00    +0.000 C 
BRANCH  28  29
ATOM     29  C   UNL     1       7.178   5.022  15.477  0.00  0.00    +0.000 C 
ATOM     30  O   UNL     1       7.666   4.572  16.508  0.00  0.00    +0.000 OA
BRANCH  29  31
ATOM     31  O   UNL     1       7.955   5.494  14.478  0.00  0.00    +0.000 OA
ATOM     32  H   UNL     1       7.971   4.921  13.689  0.00  0.00    +0.000 HD
ENDBRANCH  29  31
ENDBRANCH  28  29
ENDBRANCH   3  28
TORSDOF 6
ENDMDL
MODEL 2
REMARK VINA RESULT:      -9.7      0.687      1.113
REMARK  Name = 
REMARK  7 active torsions:
REMARK  status: ('A' for Active; 'I' for Inactive)
REMARK    1  A    between atoms: C_1  and  C_2
REMARK    2  A    between atoms: C_3  and  C_4
REMARK    3  A    between atoms: C_4  and  C_5
REMARK    4  A    between atoms: C_5  and  O_7
REMARK    5  A    between atoms: C_16  and  C_17
REMARK    6  A    between atoms: C_20  and  S_21
REMARK    7  A    between atoms: S_21  and  N_24
REMARK                            x       y       z     vdW  Elec       q    Type
REMARK                         _______ _______ _______ _____ _____    ______ ____
ROOT
ATOM      1  C   UNL     1       5.025   7.356  16.854  0.00  0.00    +0.000 C 
ATOM      2  C   UNL     1       4.347   6.015  17.056  0.00  0.00    +0.000 A 
ATOM      3  C   UNL     1       4.753   4.905  16.286  0.00  0.00    +0.000 A 
ATOM      4  C   UNL     1       4.349   3.626  16.692  0.00  0.00    +0.000 A 
ATOM      5  C   UNL     1       3.544   3.429  17.819  0.00  0.00    +0.000 A 
ATOM      6  C   UNL     1       3.316   2.117  18.278  0.00  0.00    +0.000 A 
ATOM      7  C   UNL     1       2.553   1.873  19.417  0.00  0.00    +0.000 A 
ATOM      8  C   UNL     1       1.940   2.938  20.053  0.00  0.00    +0.000 A 
ATOM      9 CL   UNL     1       1.015   2.665  21.479  0.00  0.00    +0.000 Cl
ATOM     10  C   UNL     1       2.106   4.237  19.569  0.00  0.00    +0.000 A 
ATOM     11  C   UNL     1       2.976   4.542  18.488  0.00  0.00    +0.000 A 
ATOM     12  C   UNL     1       3.335   5.871  18.057  0.00  0.00    +0.000 A 
ENDROOT
BRANCH  12  13
ATOM     13  C   UNL     1       2.644   7.092  18.583  0.00  0.00    +0.000 A 
ATOM     14  C   UNL     1       2.315   7.270  19.939  0.00  0.00    +0.000 A 
ATOM     15  C   UNL     1       1.522   8.347  20.363  0.00  0.00    +0.000 A 
ATOM     16  C   UNL     1       1.115   9.311  19.439  0.00  0.00    +0.000 A 
ATOM     17  C   UNL     1       1.502   9.219  18.108  0.00  0.00    +0.000 A 
ATOM     18  C   UNL     1       2.236   8.106  17.688  0.00  0.00    +0.000 A 
BRANCH  16  19
ATOM     19  S   UNL     1      -0.026  10.586  19.916  0.00  0.00    +0.000 S 
ATOM     20  O   UNL     1      -1.252  10.348  19.183  0.00  0.00    +0.000 OA
ATOM     21  O   UNL     1      -0.032  10.657  21.364  0.00  0.00    +0.000 OA
BRANCH  19  22
ATOM     22  N   UNL     1       0.667  12.025  19.322  0.00  0.00    +0.000 NA
ATOM     23  C   UNL     1       1.589  12.772  20.232  0.00  0.00    +0.000 C 
ATOM     24  C   UNL     1       0.826  13.632  21.250  0.00  0.00    +0.000 C 
ATOM     25  O   UNL     1      -0.097  14.521  20.604  0.00  0.00    +0.000 OA
ATOM     26  C   UNL     1      -1.041  13.793  19.804  0.00  0.00    +0.000 C 
ATOM     27  C   UNL     1      -0.325  12.979  18.722  0.00  0.00    +0.000 C 
ENDBRANCH  19  22
ENDBRANCH  16  19
ENDBRANCH  12  13
BRANCH   3  28
ATOM     28  C   UNL     1       5.661   5.017  15.071  0.00  0.00    +0.000 C 
BRANCH  28  29
ATOM     29  C   UNL     1       7.156   5.019  15.333  0.00  0.00    +0.000 C 
ATOM     30  O   UNL     1       7.649   4.571  16.363  0.00  0.00    +0.000 OA
BRANCH  29  31
ATOM     31  O   UNL     1       7.930   5.466  14.319  0.00  0.00    +0.000 OA
ATOM     32  H   UNL     1       8.810   5.047  14.284  0.00  0.00    +0.000 HD
ENDBRANCH  29  31
ENDBRANCH  28  29
ENDBRANCH   3  28
TORSDOF 6
ENDMDL
MODEL 3
REMARK VINA RESULT:      -9.6      1.445      2.022
REMARK  Name = 
REMARK  7 active torsions:
REMARK  status: ('A' for Active; 'I' for Inactive)
REMARK    1  A    between atoms: C_1  and  C_2
REMARK    2  A    between atoms: C_3  and  C_4
REMARK    3  A    between atoms: C_4  and  C_5
REMARK    4  A    between atoms: C_5  and  O_7
REMARK    5  A    between atoms: C_16  and  C_17
REMARK    6  A    between atoms: C_20  and  S_21
REMARK    7  A    between atoms: S_21  and  N_24
REMARK                            x       y       z     vdW  Elec       q    Type
REMARK                         _______ _______ _______ _____ _____    ______ ____
ROOT
ATOM      1  C   UNL     1       5.169   7.152  16.708  0.00  0.00    +0.000 C 
ATOM      2  C   UNL     1       4.456   5.836  16.947  0.00  0.00    +0.000 A 
ATOM      3  C   UNL     1       4.830   4.694  16.209  0.00  0.00    +0.000 A 
ATOM      4  C   UNL     1       4.393   3.438  16.650  0.00  0.00    +0.000 A 
ATOM      5  C   UNL     1       3.583   3.294  17.781  0.00  0.00    +0.000 A 
ATOM      6  C   UNL     1       3.319   2.003  18.276  0.00  0.00    +0.000 A 
ATOM      7  C   UNL     1       2.550   1.811  19.421  0.00  0.00    +0.000 A 
ATOM      8  C   UNL     1       1.967   2.909  20.027  0.00  0.00    +0.000 A 
ATOM      9 CL   UNL     1       1.035   2.702  21.460  0.00  0.00    +0.000 Cl
ATOM     10  C   UNL     1       2.167   4.190  19.508  0.00  0.00    +0.000 A 
ATOM     11  C   UNL     1       3.045   4.441  18.419  0.00  0.00    +0.000 A 
ATOM     12  C   UNL     1       3.441   5.748  17.951  0.00  0.00    +0.000 A 
ENDROOT
BRANCH  12  13
ATOM     13  C   UNL     1       2.782   7.000  18.443  0.00  0.00    +0.000 A 
ATOM     14  C   UNL     1       2.411   7.203  19.784  0.00  0.00    +0.000 A 
ATOM     15  C   UNL     1       1.649   8.316  20.171  0.00  0.00    +0.000 A 
ATOM     16  C   UNL     1       1.319   9.289  19.226  0.00  0.00    +0.000 A 
ATOM     17  C   UNL     1       1.752   9.171  17.912  0.00  0.00    +0.000 A 
ATOM     18  C   UNL     1       2.452   8.024  17.526  0.00  0.00    +0.000 A 
BRANCH  16  19
ATOM     19  S   UNL     1       0.216  10.615  19.652  0.00  0.00    +0.000 S 
ATOM     20  O   UNL     1       0.471  11.690  18.715  0.00  0.00    +0.000 OA
ATOM     21  O   UNL     1      -1.114  10.059  19.796  0.00  0.00    +0.000 OA
BRANCH  19  22
ATOM     22  N   UNL     1       0.740  11.130  21.190  0.00  0.00    +0.000 NA
ATOM     23  C   UNL     1      -0.041  10.658  22.377  0.00  0.00    +0.000 C 
ATOM     24  C   UNL     1      -1.312  11.489  22.599  0.00  0.00    +0.000 C 
ATOM     25  O   UNL     1      -1.018  12.890  22.696  0.00  0.00    +0.000 OA
ATOM     26  C   UNL     1      -0.353  13.361  21.515  0.00  0.00    +0.000 C 
ATOM     27  C   UNL     1       0.965  12.610  21.297  0.00  0.00    +0.000 C 
ENDBRANCH  19  22
ENDBRANCH  16  19
ENDBRANCH  12  13
BRANCH   3  28
ATOM     28  C   UNL     1       5.741   4.748  14.991  0.00  0.00    +0.000 C 
BRANCH  28  29
ATOM     29  C   UNL     1       7.222   4.953  15.254  0.00  0.00    +0.000 C 
ATOM     30  O   UNL     1       7.788   4.500  16.243  0.00  0.00    +0.000 OA
BRANCH  29  31
ATOM     31  O   UNL     1       7.908   5.593  14.282  0.00  0.00    +0.000 OA
ATOM     32  H   UNL     1       8.150   5.020  13.531  0.00  0.00    +0.000 HD
ENDBRANCH  29  31
ENDBRANCH  28  29
ENDBRANCH   3  28
TORSDOF 6
ENDMDL
MODEL 4
REMARK VINA RESULT:      -9.4      1.325      2.134
REMARK  Name = 
REMARK  7 active torsions:
REMARK  status: ('A' for Active; 'I' for Inactive)
REMARK    1  A    between atoms: C_1  and  C_2
REMARK    2  A    between atoms: C_3  and  C_4
REMARK    3  A    between atoms: C_4  and  C_5
REMARK    4  A    between atoms: C_5  and  O_7
REMARK    5  A    between atoms: C_16  and  C_17
REMARK    6  A    between atoms: C_20  and  S_21
REMARK    7  A    between atoms: S_21  and  N_24
REMARK                            x       y       z     vdW  Elec       q    Type
REMARK                         _______ _______ _______ _____ _____    ______ ____
ROOT
ATOM      1  C   UNL     1       5.157   7.161  16.727  0.00  0.00    +0.000 C 
ATOM      2  C   UNL     1       4.460   5.833  16.950  0.00  0.00    +0.000 A 
ATOM      3  C   UNL     1       4.834   4.710  16.183  0.00  0.00    +0.000 A 
ATOM      4  C   UNL     1       4.416   3.442  16.605  0.00  0.00    +0.000 A 
ATOM      5  C   UNL     1       3.625   3.267  17.746  0.00  0.00    +0.000 A 
ATOM      6  C   UNL     1       3.382   1.963  18.218  0.00  0.00    +0.000 A 
ATOM      7  C   UNL     1       2.632   1.740  19.370  0.00  0.00    +0.000 A 
ATOM      8  C   UNL     1       2.048   2.820  20.008  0.00  0.00    +0.000 A 
ATOM      9 CL   UNL     1       1.140   2.575  21.450  0.00  0.00    +0.000 Cl
ATOM     10  C   UNL     1       2.228   4.114  19.512  0.00  0.00    +0.000 A 
ATOM     11  C   UNL     1       3.086   4.395  18.415  0.00  0.00    +0.000 A 
ATOM     12  C   UNL     1       3.462   5.715  17.968  0.00  0.00    +0.000 A 
ENDROOT
BRANCH  12  13
ATOM     13  C   UNL     1       2.799   6.951  18.495  0.00  0.00    +0.000 A 
ATOM     14  C   UNL     1       2.417   7.109  19.839  0.00  0.00    +0.000 A 
ATOM     15  C   UNL     1       1.652   8.209  20.256  0.00  0.00    +0.000 A 
ATOM     16  C   UNL     1       1.329   9.212  19.341  0.00  0.00    +0.000 A 
ATOM     17  C   UNL     1       1.772   9.137  18.026  0.00  0.00    +0.000 A 
ATOM     18  C   UNL     1       2.476   8.004  17.610  0.00  0.00    +0.000 A 
BRANCH  16  19
ATOM     19  S   UNL     1       0.222  10.524  19.801  0.00  0.00    +0.000 S 
ATOM     20  O   UNL     1      -0.852   9.919  20.562  0.00  0.00    +0.000 OA
ATOM     21  O   UNL     1       1.015  11.597  20.366  0.00  0.00    +0.000 OA
BRANCH  19  22
ATOM     22  N   UNL     1      -0.429  11.072  18.325  0.00  0.00    +0.000 NA
ATOM     23  C   UNL     1      -1.174  12.369  18.341  0.00  0.00    +0.000 C 
ATOM     24  C   UNL     1      -2.615  12.202  18.844  0.00  0.00    +0.000 C 
ATOM     25  O   UNL     1      -3.325  11.206  18.094  0.00  0.00    +0.000 OA
ATOM     26  C   UNL     1      -2.657   9.938  18.158  0.00  0.00    +0.000 C 
ATOM     27  C   UNL     1      -1.237  10.041  17.592  0.00  0.00    +0.000 C 
ENDBRANCH  19  22
ENDBRANCH  16  19
ENDBRANCH  12  13
BRANCH   3  28
ATOM     28  C   UNL     1       5.725   4.798  14.954  0.00  0.00    +0.000 C 
BRANCH  28  29
ATOM     29  C   UNL     1       7.217   4.943  15.198  0.00  0.00    +0.000 C 
ATOM     30  O   UNL     1       7.774   4.478  16.187  0.00  0.00    +0.000 OA
BRANCH  29  31
ATOM     31  O   UNL     1       7.918   5.543  14.212  0.00  0.00    +0.000 OA
ATOM     32  H   UNL     1       7.380   6.133  13.652  0.00  0.00    +0.000 HD
ENDBRANCH  29  31
ENDBRANCH  28  29
ENDBRANCH   3  28
TORSDOF 6
ENDMDL
MODEL 5
REMARK VINA RESULT:      -9.4      1.402      1.672
REMARK  Name = 
REMARK  7 active torsions:
REMARK  status: ('A' for Active; 'I' for Inactive)
REMARK    1  A    between atoms: C_1  and  C_2
REMARK    2  A    between atoms: C_3  and  C_4
REMARK    3  A    between atoms: C_4  and  C_5
REMARK    4  A    between atoms: C_5  and  O_7
REMARK    5  A    between atoms: C_16  and  C_17
REMARK    6  A    between atoms: C_20  and  S_21
REMARK    7  A    between atoms: S_21  and  N_24
REMARK                            x       y       z     vdW  Elec       q    Type
REMARK                         _______ _______ _______ _____ _____    ______ ____
ROOT
ATOM      1  C   UNL     1       4.907   7.340  16.824  0.00  0.00    +0.000 C 
ATOM      2  C   UNL     1       4.287   5.976  17.051  0.00  0.00    +0.000 A 
ATOM      3  C   UNL     1       4.739   4.869  16.303  0.00  0.00    +0.000 A 
ATOM      4  C   UNL     1       4.390   3.582  16.733  0.00  0.00    +0.000 A 
ATOM      5  C   UNL     1       3.593   3.373  17.863  0.00  0.00    +0.000 A 
ATOM      6  C   UNL     1       3.420   2.062  18.346  0.00  0.00    +0.000 A 
ATOM      7  C   UNL     1       2.666   1.807  19.489  0.00  0.00    +0.000 A 
ATOM      8  C   UNL     1       2.009   2.857  20.106  0.00  0.00    +0.000 A 
ATOM      9 CL   UNL     1       1.094   2.572  21.536  0.00  0.00    +0.000 Cl
ATOM     10  C   UNL     1       2.120   4.153  19.598  0.00  0.00    +0.000 A 
ATOM     11  C   UNL     1       2.977   4.473  18.511  0.00  0.00    +0.000 A 
ATOM     12  C   UNL     1       3.281   5.808  18.055  0.00  0.00    +0.000 A 
ENDROOT
BRANCH  12  13
ATOM     13  C   UNL     1       2.538   7.008  18.558  0.00  0.00    +0.000 A 
ATOM     14  C   UNL     1       2.089   8.046  17.722  0.00  0.00    +0.000 A 
ATOM     15  C   UNL     1       1.546   9.227  18.251  0.00  0.00    +0.000 A 
ATOM     16  C   UNL     1       1.369   9.348  19.631  0.00  0.00    +0.000 A 
ATOM     17  C   UNL     1       1.711   8.304  20.480  0.00  0.00    +0.000 A 
ATOM     18  C   UNL     1       2.312   7.161  19.945  0.00  0.00    +0.000 A 
BRANCH  16  19
ATOM     19  S   UNL     1       0.845  10.892  20.335  0.00  0.00    +0.000 S 
ATOM     20  O   UNL     1       1.297  10.901  21.711  0.00  0.00    +0.000 OA
ATOM     21  O   UNL     1       1.230  11.951  19.423  0.00  0.00    +0.000 OA
BRANCH  19  22
ATOM     22  N   UNL     1      -0.857  10.802  20.346  0.00  0.00    +0.000 NA
ATOM     23  C   UNL     1      -1.573  11.150  19.079  0.00  0.00    +0.000 C 
ATOM     24  C   UNL     1      -1.716  12.668  18.894  0.00  0.00    +0.000 C 
ATOM     25  O   UNL     1      -2.343  13.282  20.030  0.00  0.00    +0.000 OA
ATOM     26  C   UNL     1      -1.601  13.025  21.231  0.00  0.00    +0.000 C 
ATOM     27  C   UNL     1      -1.500  11.520  21.497  0.00  0.00    +0.000 C 
ENDBRANCH  19  22
ENDBRANCH  16  19
ENDBRANCH  12  13
BRANCH   3  28
ATOM     28  C   UNL     1       5.643   4.997  15.086  0.00  0.00    +0.000 C 
BRANCH  28  29
ATOM     29  C   UNL     1       7.139   5.032  15.346  0.00  0.00    +0.000 C 
ATOM     30  O   UNL     1       7.644   4.586  16.370  0.00  0.00    +0.000 OA
BRANCH  29  31
ATOM     31  O   UNL     1       7.899   5.507  14.335  0.00  0.00    +0.000 OA
ATOM     32  H   UNL     1       8.741   5.902  14.630  0.00  0.00    +0.000 HD
ENDBRANCH  29  31
ENDBRANCH  28  29
ENDBRANCH   3  28
TORSDOF 6
ENDMDL
MODEL 6
REMARK VINA RESULT:      -9.3      2.890      3.993
REMARK  Name = 
REMARK  7 active torsions:
REMARK  status: ('A' for Active; 'I' for Inactive)
REMARK    1  A    between atoms: C_1  and  C_2
REMARK    2  A    between atoms: C_3  and  C_4
REMARK    3  A    between atoms: C_4  and  C_5
REMARK    4  A    between atoms: C_5  and  O_7
REMARK    5  A    between atoms: C_16  and  C_17
REMARK    6  A    between atoms: C_20  and  S_21
REMARK    7  A    between atoms: S_21  and  N_24
REMARK                            x       y       z     vdW  Elec       q    Type
REMARK                         _______ _______ _______ _____ _____    ______ ____
ROOT
ATOM      1  C   UNL     1       1.128   4.794  17.541  0.00  0.00    +0.000 C 
ATOM      2  C   UNL     1       2.619   4.786  17.811  0.00  0.00    +0.000 A 
ATOM      3  C   UNL     1       3.325   3.565  17.799  0.00  0.00    +0.000 A 
ATOM      4  C   UNL     1       4.724   3.601  17.737  0.00  0.00    +0.000 A 
ATOM      5  C   UNL     1       5.431   4.808  17.709  0.00  0.00    +0.000 A 
ATOM      6  C   UNL     1       6.818   4.785  17.472  0.00  0.00    +0.000 A 
ATOM      7  C   UNL     1       7.559   5.962  17.398  0.00  0.00    +0.000 A 
ATOM      8  C   UNL     1       6.926   7.167  17.650  0.00  0.00    +0.000 A 
ATOM      9 CL   UNL     1       7.813   8.639  17.537  0.00  0.00    +0.000 Cl
ATOM     10  C   UNL     1       5.563   7.198  17.951  0.00  0.00    +0.000 A 
ATOM     11  C   UNL     1       4.749   6.034  17.912  0.00  0.00    +0.000 A 
ATOM     12  C   UNL     1       3.310   6.019  18.030  0.00  0.00    +0.000 A 
ENDROOT
BRANCH  12  13
ATOM     13  C   UNL     1       2.533   7.237  18.427  0.00  0.00    +0.000 A 
ATOM     14  C   UNL     1       2.246   8.294  17.544  0.00  0.00    +0.000 A 
ATOM     15  C   UNL     1       1.663   9.487  17.998  0.00  0.00    +0.000 A 
ATOM     16  C   UNL     1       1.281   9.603  19.335  0.00  0.00    +0.000 A 
ATOM     17  C   UNL     1       1.460   8.544  20.215  0.00  0.00    +0.000 A 
ATOM     18  C   UNL     1       2.103   7.387  19.765  0.00  0.00    +0.000 A 
BRANCH  16  19
ATOM     19  S   UNL     1       0.699  11.158  19.969  0.00  0.00    +0.000 S 
ATOM     20  O   UNL     1      -0.739  11.046  20.099  0.00  0.00    +0.000 OA
ATOM     21  O   UNL     1       1.520  11.508  21.110  0.00  0.00    +0.000 OA
BRANCH  19  22
ATOM     22  N   UNL     1       1.024  12.276  18.724  0.00  0.00    +0.000 NA
ATOM     23  C   UNL     1       2.260  13.109  18.853  0.00  0.00    +0.000 C 
ATOM     24  C   UNL     1       2.054  14.307  19.792  0.00  0.00    +0.000 C 
ATOM     25  O   UNL     1       0.930  15.105  19.393  0.00  0.00    +0.000 OA
ATOM     26  C   UNL     1      -0.273  14.323  19.361  0.00  0.00    +0.000 C 
ATOM     27  C   UNL     1      -0.140  13.158  18.375  0.00  0.00    +0.000 C 
ENDBRANCH  19  22
ENDBRANCH  16  19
ENDBRANCH  12  13
BRANCH   3  28
ATOM     28  C   UNL     1       2.643   2.206  17.784  0.00  0.00    +0.000 C 
BRANCH  28  29
ATOM     29  C   UNL     1       1.608   1.948  18.865  0.00  0.00    +0.000 C 
ATOM     30  O   UNL     1       1.850   2.082  20.059  0.00  0.00    +0.000 OA
BRANCH  29  31
ATOM     31  O   UNL     1       0.366   1.645  18.428  0.00  0.00    +0.000 OA
ATOM     32  H   UNL     1      -0.072   2.376  17.955  0.00  0.00    +0.000 HD
ENDBRANCH  29  31
ENDBRANCH  28  29
ENDBRANCH   3  28
TORSDOF 6
ENDMDL
MODEL 7
REMARK VINA RESULT:      -9.3      2.927      4.127
REMARK  Name = 
REMARK  7 active torsions:
REMARK  status: ('A' for Active; 'I' for Inactive)
REMARK    1  A    between atoms: C_1  and  C_2
REMARK    2  A    between atoms: C_3  and  C_4
REMARK    3  A    between atoms: C_4  and  C_5
REMARK    4  A    between atoms: C_5  and  O_7
REMARK    5  A    between atoms: C_16  and  C_17
REMARK    6  A    between atoms: C_20  and  S_21
REMARK    7  A    between atoms: S_21  and  N_24
REMARK                            x       y       z     vdW  Elec       q    Type
REMARK                         _______ _______ _______ _____ _____    ______ ____
ROOT
ATOM      1  C   UNL     1       1.155   4.873  17.629  0.00  0.00    +0.000 C 
ATOM      2  C   UNL     1       2.652   4.803  17.855  0.00  0.00    +0.000 A 
ATOM      3  C   UNL     1       3.309   3.557  17.801  0.00  0.00    +0.000 A 
ATOM      4  C   UNL     1       4.707   3.540  17.699  0.00  0.00    +0.000 A 
ATOM      5  C   UNL     1       5.459   4.720  17.671  0.00  0.00    +0.000 A 
ATOM      6  C   UNL     1       6.837   4.647  17.392  0.00  0.00    +0.000 A 
ATOM      7  C   UNL     1       7.619   5.796  17.316  0.00  0.00    +0.000 A 
ATOM      8  C   UNL     1       7.042   7.020  17.605  0.00  0.00    +0.000 A 
ATOM      9 CL   UNL     1       7.981   8.458  17.491  0.00  0.00    +0.000 Cl
ATOM     10  C   UNL     1       5.690   7.098  17.947  0.00  0.00    +0.000 A 
ATOM     11  C   UNL     1       4.830   5.967  17.913  0.00  0.00    +0.000 A 
ATOM     12  C   UNL     1       3.397   6.005  18.073  0.00  0.00    +0.000 A 
ENDROOT
BRANCH  12  13
ATOM     13  C   UNL     1       2.679   7.245  18.513  0.00  0.00    +0.000 A 
ATOM     14  C   UNL     1       2.202   7.439  19.821  0.00  0.00    +0.000 A 
ATOM     15  C   UNL     1       1.392   8.537  20.148  0.00  0.00    +0.000 A 
ATOM     16  C   UNL     1       1.117   9.505  19.180  0.00  0.00    +0.000 A 
ATOM     17  C   UNL     1       1.652   9.396  17.903  0.00  0.00    +0.000 A 
ATOM     18  C   UNL     1       2.401   8.264  17.573  0.00  0.00    +0.000 A 
BRANCH  16  19
ATOM     19  S   UNL     1      -0.040  10.809  19.520  0.00  0.00    +0.000 S 
ATOM     20  O   UNL     1      -1.220  10.542  18.724  0.00  0.00    +0.000 OA
ATOM     21  O   UNL     1      -0.136  10.955  20.959  0.00  0.00    +0.000 OA
BRANCH  19  22
ATOM     22  N   UNL     1       0.702  12.212  18.899  0.00  0.00    +0.000 NA
ATOM     23  C   UNL     1       1.805  12.823  19.705  0.00  0.00    +0.000 C 
ATOM     24  C   UNL     1       1.269  13.689  20.854  0.00  0.00    +0.000 C 
ATOM     25  O   UNL     1       0.357  14.691  20.380  0.00  0.00    +0.000 OA
ATOM     26  C   UNL     1      -0.750  14.095  19.687  0.00  0.00    +0.000 C 
ATOM     27  C   UNL     1      -0.265  13.283  18.483  0.00  0.00    +0.000 C 
ENDBRANCH  19  22
ENDBRANCH  16  19
ENDBRANCH  12  13
BRANCH   3  28
ATOM     28  C   UNL     1       2.575   2.225  17.785  0.00  0.00    +0.000 C 
BRANCH  28  29
ATOM     29  C   UNL     1       1.622   1.955  18.935  0.00  0.00    +0.000 C 
ATOM     30  O   UNL     1       1.945   2.093  20.110  0.00  0.00    +0.000 OA
BRANCH  29  31
ATOM     31  O   UNL     1       0.356   1.635  18.587  0.00  0.00    +0.000 OA
ATOM     32  H   UNL     1       0.280   1.253  17.693  0.00  0.00    +0.000 HD
ENDBRANCH  29  31
ENDBRANCH  28  29
ENDBRANCH   3  28
TORSDOF 6
ENDMDL
MODEL 8
REMARK VINA RESULT:      -9.2      3.152      4.445
REMARK  Name = 
REMARK  7 active torsions:
REMARK  status: ('A' for Active; 'I' for Inactive)
REMARK    1  A    between atoms: C_1  and  C_2
REMARK    2  A    between atoms: C_3  and  C_4
REMARK    3  A    between atoms: C_4  and  C_5
REMARK    4  A    between atoms: C_5  and  O_7
REMARK    5  A    between atoms: C_16  and  C_17
REMARK    6  A    between atoms: C_20  and  S_21
REMARK    7  A    between atoms: S_21  and  N_24
REMARK                            x       y       z     vdW  Elec       q    Type
REMARK                         _______ _______ _______ _____ _____    ______ ____
ROOT
ATOM      1  C   UNL     1       1.138   4.910  17.563  0.00  0.00    +0.000 C 
ATOM      2  C   UNL     1       2.633   4.812  17.793  0.00  0.00    +0.000 A 
ATOM      3  C   UNL     1       3.269   3.555  17.727  0.00  0.00    +0.000 A 
ATOM      4  C   UNL     1       4.666   3.516  17.630  0.00  0.00    +0.000 A 
ATOM      5  C   UNL     1       5.438   4.682  17.619  0.00  0.00    +0.000 A 
ATOM      6  C   UNL     1       6.816   4.589  17.345  0.00  0.00    +0.000 A 
ATOM      7  C   UNL     1       7.619   5.726  17.286  0.00  0.00    +0.000 A 
ATOM      8  C   UNL     1       7.061   6.956  17.588  0.00  0.00    +0.000 A 
ATOM      9 CL   UNL     1       8.026   8.379  17.494  0.00  0.00    +0.000 Cl
ATOM     10  C   UNL     1       5.710   7.053  17.925  0.00  0.00    +0.000 A 
ATOM     11  C   UNL     1       4.831   5.937  17.874  0.00  0.00    +0.000 A 
ATOM     12  C   UNL     1       3.397   5.998  18.029  0.00  0.00    +0.000 A 
ENDROOT
BRANCH  12  13
ATOM     13  C   UNL     1       2.699   7.245  18.481  0.00  0.00    +0.000 A 
ATOM     14  C   UNL     1       2.199   7.421  19.784  0.00  0.00    +0.000 A 
ATOM     15  C   UNL     1       1.408   8.531  20.118  0.00  0.00    +0.000 A 
ATOM     16  C   UNL     1       1.177   9.526  19.167  0.00  0.00    +0.000 A 
ATOM     17  C   UNL     1       1.736   9.433  17.899  0.00  0.00    +0.000 A 
ATOM     18  C   UNL     1       2.466   8.290  17.559  0.00  0.00    +0.000 A 
BRANCH  16  19
ATOM     19  S   UNL     1       0.043  10.850  19.511  0.00  0.00    +0.000 S 
ATOM     20  O   UNL     1       0.350  11.917  18.581  0.00  0.00    +0.000 OA
ATOM     21  O   UNL     1      -1.291  10.287  19.578  0.00  0.00    +0.000 OA
BRANCH  19  22
ATOM     22  N   UNL     1       0.468  11.381  21.074  0.00  0.00    +0.000 NA
ATOM     23  C   UNL     1      -0.434  10.994  22.202  0.00  0.00    +0.000 C 
ATOM     24  C   UNL     1      -1.668  11.903  22.295  0.00  0.00    +0.000 C 
ATOM     25  O   UNL     1      -1.299  13.288  22.378  0.00  0.00    +0.000 OA
ATOM     26  C   UNL     1      -0.511  13.681  21.245  0.00  0.00    +0.000 C 
ATOM     27  C   UNL     1       0.773  12.849  21.159  0.00  0.00    +0.000 C 
ENDBRANCH  19  22
ENDBRANCH  16  19
ENDBRANCH  12  13
BRANCH   3  28
ATOM     28  C   UNL     1       2.512   2.236  17.692  0.00  0.00    +0.000 C 
BRANCH  28  29
ATOM     29  C   UNL     1       1.522   1.985  18.815  0.00  0.00    +0.000 C 
ATOM     30  O   UNL     1       1.831   2.062  19.999  0.00  0.00    +0.000 OA
BRANCH  29  31
ATOM     31  O   UNL     1       0.246   1.756  18.434  0.00  0.00    +0.000 OA
ATOM     32  H   UNL     1      -0.180   1.021  18.912  0.00  0.00    +0.000 HD
ENDBRANCH  29  31
ENDBRANCH  28  29
ENDBRANCH   3  28
TORSDOF 6
ENDMDL
MODEL 9
REMARK VINA RESULT:      -9.0      3.070      4.184
REMARK  Name = 
REMARK  7 active torsions:
REMARK  status: ('A' for Active; 'I' for Inactive)
REMARK    1  A    between atoms: C_1  and  C_2
REMARK    2  A    between atoms: C_3  and  C_4
REMARK    3  A    between atoms: C_4  and  C_5
REMARK    4  A    between atoms: C_5  and  O_7
REMARK    5  A    between atoms: C_16  and  C_17
REMARK    6  A    between atoms: C_20  and  S_21
REMARK    7  A    between atoms: S_21  and  N_24
REMARK                            x       y       z     vdW  Elec       q    Type
REMARK                         _______ _______ _______ _____ _____    ______ ____
ROOT
ATOM      1  C   UNL     1       1.054   4.893  17.568  0.00  0.00    +0.000 C 
ATOM      2  C   UNL     1       2.555   4.829  17.773  0.00  0.00    +0.000 A 
ATOM      3  C   UNL     1       3.222   3.591  17.668  0.00  0.00    +0.000 A 
ATOM      4  C   UNL     1       4.618   3.591  17.548  0.00  0.00    +0.000 A 
ATOM      5  C   UNL     1       5.360   4.777  17.552  0.00  0.00    +0.000 A 
ATOM      6  C   UNL     1       6.735   4.728  17.254  0.00  0.00    +0.000 A 
ATOM      7  C   UNL     1       7.506   5.886  17.208  0.00  0.00    +0.000 A 
ATOM      8  C   UNL     1       6.922   7.093  17.548  0.00  0.00    +0.000 A 
ATOM      9 CL   UNL     1       7.847   8.543  17.472  0.00  0.00    +0.000 Cl
ATOM     10  C   UNL     1       5.574   7.147  17.909  0.00  0.00    +0.000 A 
ATOM     11  C   UNL     1       4.724   6.009  17.846  0.00  0.00    +0.000 A 
ATOM     12  C   UNL     1       3.292   6.029  18.024  0.00  0.00    +0.000 A 
ENDROOT
BRANCH  12  13
ATOM     13  C   UNL     1       2.569   7.246  18.516  0.00  0.00    +0.000 A 
ATOM     14  C   UNL     1       2.307   8.368  17.710  0.00  0.00    +0.000 A 
ATOM     15  C   UNL     1       1.778   9.549  18.253  0.00  0.00    +0.000 A 
ATOM     16  C   UNL     1       1.425   9.592  19.603  0.00  0.00    +0.000 A 
ATOM     17  C   UNL     1       1.579   8.470  20.408  0.00  0.00    +0.000 A 
ATOM     18  C   UNL     1       2.169   7.323  19.870  0.00  0.00    +0.000 A 
BRANCH  16  19
ATOM     19  S   UNL     1       0.914  11.121  20.348  0.00  0.00    +0.000 S 
ATOM     20  O   UNL     1       0.746  10.863  21.764  0.00  0.00    +0.000 OA
ATOM     21  O   UNL     1       1.812  12.162  19.887  0.00  0.00    +0.000 OA
BRANCH  19  22
ATOM     22  N   UNL     1      -0.627  11.426  19.688  0.00  0.00    +0.000 NA
ATOM     23  C   UNL     1      -0.701  12.339  18.505  0.00  0.00    +0.000 C 
ATOM     24  C   UNL     1      -0.651  13.818  18.913  0.00  0.00    +0.000 C 
ATOM     25  O   UNL     1      -1.665  14.136  19.877  0.00  0.00    +0.000 OA
ATOM     26  C   UNL     1      -1.534  13.322  21.051  0.00  0.00    +0.000 C 
ATOM     27  C   UNL     1      -1.657  11.836  20.701  0.00  0.00    +0.000 C 
ENDBRANCH  19  22
ENDBRANCH  16  19
ENDBRANCH  12  13
BRANCH   3  28
ATOM     28  C   UNL     1       2.499   2.254  17.613  0.00  0.00    +0.000 C 
BRANCH  28  29
ATOM     29  C   UNL     1       1.547   1.944  18.754  0.00  0.00    +0.000 C 
ATOM     30  O   UNL     1       1.881   2.007  19.932  0.00  0.00    +0.000 OA
BRANCH  29  31
ATOM     31  O   UNL     1       0.271   1.679  18.398  0.00  0.00    +0.000 OA
ATOM     32  H   UNL     1       0.057   1.938  17.483  0.00  0.00    +0.000 HD
ENDBRANCH  29  31
ENDBRANCH  28  29
ENDBRANCH   3  28
TORSDOF 6
ENDMDL
