MODEL 1
REMARK VINA RESULT:      -8.1      0.000      0.000
REMARK  Name = 
REMARK  6 active torsions:
REMARK  status: ('A' for Active; 'I' for Inactive)
REMARK    1  A    between atoms: C_1  and  O_2
REMARK    2  A    between atoms: O_2  and  C_3
REMARK    3  A    between atoms: C_7  and  C_8
REMARK    4  A    between atoms: C_11  and  C_12
REMARK    5  A    between atoms: N_15  and  C_16
REMARK    6  A    between atoms: C_16  and  C_17
REMARK                            x       y       z     vdW  Elec       q    Type
REMARK                         _______ _______ _______ _____ _____    ______ ____
ROOT
ATOM      1  C   UNL     1       8.497   8.959  18.202  0.00  0.00    +0.000 A 
ATOM      2  N   UNL     1       7.787   8.851  17.066  0.00  0.00    +0.000 NA
ATOM      3  O   UNL     1       7.348   7.520  17.074  0.00  0.00    +0.000 OA
ATOM      4  C   UNL     1       7.855   6.956  18.207  0.00  0.00    +0.000 A 
ATOM      5  N   UNL     1       8.583   7.786  18.914  0.00  0.00    +0.000 NA
ENDROOT
BRANCH   1  10
ATOM      6  C   UNL     1      10.045  12.382  18.302  0.00  0.00    +0.000 A 
ATOM      7  C   UNL     1      10.304  12.517  19.666  0.00  0.00    +0.000 A 
ATOM      8  C   UNL     1       9.942  11.513  20.567  0.00  0.00    +0.000 A 
ATOM      9  C   UNL     1       9.323  10.348  20.104  0.00  0.00    +0.000 A 
ATOM     10  C   UNL     1       9.063  10.190  18.739  0.00  0.00    +0.000 A 
ATOM     11  C   UNL     1       9.414  11.223  17.847  0.00  0.00    +0.000 A 
BRANCH   6  13
ATOM     12  C   UNL     1      11.594  13.204  16.698  0.00  0.00    +0.000 C 
ATOM     13  O   UNL     1      10.457  13.426  17.522  0.00  0.00    +0.000 OA
ENDBRANCH   6  13
ENDBRANCH   1  10
BRANCH   4  14
ATOM     14  C   UNL     1       7.449   5.568  18.552  0.00  0.00    +0.000 C 
ATOM     15  C   UNL     1       7.050   4.791  17.297  0.00  0.00    +0.000 C 
ATOM     16  C   UNL     1       5.555   5.042  17.215  0.00  0.00    +0.000 C 
ATOM     17  N   UNL     1       5.090   4.940  18.609  0.00  0.00    +0.000 NA
ATOM     18  C   UNL     1       6.191   5.513  19.424  0.00  0.00    +0.000 C 
BRANCH  17  19
ATOM     19  C   UNL     1       4.785   3.536  18.949  0.00  0.00    +0.000 C 
BRANCH  19  20
ATOM     20  C   UNL     1       3.432   3.380  19.584  0.00  0.00    +0.000 A 
ATOM     21  C   UNL     1       3.082   2.627  20.687  0.00  0.00    +0.000 A 
ATOM     22  C   UNL     1       1.685   2.679  20.956  0.00  0.00    +0.000 A 
ATOM     23  C   UNL     1       1.018   3.490  20.065  0.00  0.00    +0.000 A 
ATOM     24  S   UNL     1       2.076   4.202  18.928  0.00  0.00    +0.000 S 
ENDBRANCH  19  20
ENDBRANCH  17  19
ENDBRANCH   4  14
TORSDOF 5
ENDMDL
MODEL 2
REMARK VINA RESULT:      -8.0      0.857      1.022
REMARK  Name = 
REMARK  6 active torsions:
REMARK  status: ('A' for Active; 'I' for Inactive)
REMARK    1  A    between atoms: C_1  and  O_2
REMARK    2  A    between atoms: O_2  and  C_3
REMARK    3  A    between atoms: C_7  and  C_8
REMARK    4  A    between atoms: C_11  and  C_12
REMARK    5  A    between atoms: N_15  and  C_16
REMARK    6  A    between atoms: C_16  and  C_17
REMARK                            x       y       z     vdW  Elec       q    Type
REMARK                         _______ _______ _______ _____ _____    ______ ____
ROOT
ATOM      1  C   UNL     1       8.423   8.951  18.227  0.00  0.00    +0.000 A 
ATOM      2  N   UNL     1       7.596   8.880  17.170  0.00  0.00    +0.000 NA
ATOM      3  O   UNL     1       7.150   7.551  17.187  0.00  0.00    +0.000 OA
ATOM      4  C   UNL     1       7.769   6.952  18.244  0.00  0.00    +0.000 A 
ATOM      5  N   UNL     1       8.574   7.758  18.892  0.00  0.00    +0.000 NA
ENDROOT
BRANCH   1  10
ATOM      6  C   UNL     1      10.136  12.296  18.249  0.00  0.00    +0.000 A 
ATOM      7  C   UNL     1      10.412  12.445  19.608  0.00  0.00    +0.000 A 
ATOM      8  C   UNL     1      10.008  11.477  20.531  0.00  0.00    +0.000 A 
ATOM      9  C   UNL     1       9.329  10.335  20.095  0.00  0.00    +0.000 A 
ATOM     10  C   UNL     1       9.052  10.163  18.735  0.00  0.00    +0.000 A 
ATOM     11  C   UNL     1       9.447  11.160  17.821  0.00  0.00    +0.000 A 
BRANCH   6  13
ATOM     12  C   UNL     1      10.464  14.630  17.942  0.00  0.00    +0.000 C 
ATOM     13  O   UNL     1      10.593  13.303  17.445  0.00  0.00    +0.000 OA
ENDBRANCH   6  13
ENDBRANCH   1  10
BRANCH   4  14
ATOM     14  C   UNL     1       7.390   5.557  18.590  0.00  0.00    +0.000 C 
ATOM     15  C   UNL     1       7.259   4.700  17.330  0.00  0.00    +0.000 C 
ATOM     16  C   UNL     1       5.788   4.848  16.983  0.00  0.00    +0.000 C 
ATOM     17  N   UNL     1       5.097   4.777  18.281  0.00  0.00    +0.000 NA
ATOM     18  C   UNL     1       6.005   5.457  19.238  0.00  0.00    +0.000 C 
BRANCH  17  19
ATOM     19  C   UNL     1       4.819   3.372  18.641  0.00  0.00    +0.000 C 
BRANCH  19  20
ATOM     20  C   UNL     1       3.362   3.126  18.911  0.00  0.00    +0.000 A 
ATOM     21  C   UNL     1       2.323   3.038  18.005  0.00  0.00    +0.000 A 
ATOM     22  C   UNL     1       1.063   2.857  18.643  0.00  0.00    +0.000 A 
ATOM     23  C   UNL     1       1.184   2.788  20.013  0.00  0.00    +0.000 A 
ATOM     24  S   UNL     1       2.810   2.915  20.522  0.00  0.00    +0.000 S 
ENDBRANCH  19  20
ENDBRANCH  17  19
ENDBRANCH   4  14
TORSDOF 5
ENDMDL
MODEL 3
REMARK VINA RESULT:      -7.7      1.477      2.279
REMARK  Name = 
REMARK  6 active torsions:
REMARK  status: ('A' for Active; 'I' for Inactive)
REMARK    1  A    between atoms: C_1  and  O_2
REMARK    2  A    between atoms: O_2  and  C_3
REMARK    3  A    between atoms: C_7  and  C_8
REMARK    4  A    between atoms: C_11  and  C_12
REMARK    5  A    between atoms: N_15  and  C_16
REMARK    6  A    between atoms: C_16  and  C_17
REMARK                            x       y       z     vdW  Elec       q    Type
REMARK                         _______ _______ _______ _____ _____    ______ ____
ROOT
ATOM      1  C   UNL     1       8.452   9.002  18.165  0.00  0.00    +0.000 A 
ATOM      2  N   UNL     1       7.580   9.075  17.145  0.00  0.00    +0.000 NA
ATOM      3  O   UNL     1       6.989   7.804  17.123  0.00  0.00    +0.000 OA
ATOM      4  C   UNL     1       7.579   7.089  18.122  0.00  0.00    +0.000 A 
ATOM      5  N   UNL     1       8.495   7.768  18.769  0.00  0.00    +0.000 NA
ENDROOT
BRANCH   1  10
ATOM      6  C   UNL     1       9.770  11.540  20.603  0.00  0.00    +0.000 A 
ATOM      7  C   UNL     1      10.567  12.323  19.768  0.00  0.00    +0.000 A 
ATOM      8  C   UNL     1      10.713  12.006  18.415  0.00  0.00    +0.000 A 
ATOM      9  C   UNL     1      10.044  10.902  17.879  0.00  0.00    +0.000 A 
ATOM     10  C   UNL     1       9.233  10.111  18.698  0.00  0.00    +0.000 A 
ATOM     11  C   UNL     1       9.116  10.431  20.066  0.00  0.00    +0.000 A 
BRANCH   6  13
ATOM     12  C   UNL     1       8.406  12.003  22.494  0.00  0.00    +0.000 C 
ATOM     13  O   UNL     1       9.699  11.958  21.903  0.00  0.00    +0.000 OA
ENDBRANCH   6  13
ENDBRANCH   1  10
BRANCH   4  14
ATOM     14  C   UNL     1       7.061   5.728  18.422  0.00  0.00    +0.000 C 
ATOM     15  C   UNL     1       7.626   4.702  17.440  0.00  0.00    +0.000 C 
ATOM     16  C   UNL     1       6.580   4.688  16.339  0.00  0.00    +0.000 C 
ATOM     17  N   UNL     1       5.295   4.741  17.056  0.00  0.00    +0.000 NA
ATOM     18  C   UNL     1       5.545   5.611  18.232  0.00  0.00    +0.000 C 
BRANCH  17  19
ATOM     19  C   UNL     1       4.854   3.380  17.423  0.00  0.00    +0.000 C 
BRANCH  19  20
ATOM     20  C   UNL     1       3.531   3.378  18.135  0.00  0.00    +0.000 A 
ATOM     21  C   UNL     1       2.297   3.773  17.658  0.00  0.00    +0.000 A 
ATOM     22  C   UNL     1       1.279   3.685  18.650  0.00  0.00    +0.000 A 
ATOM     23  C   UNL     1       1.765   3.201  19.845  0.00  0.00    +0.000 A 
ATOM     24  S   UNL     1       3.431   2.833  19.760  0.00  0.00    +0.000 S 
ENDBRANCH  19  20
ENDBRANCH  17  19
ENDBRANCH   4  14
TORSDOF 5
ENDMDL
MODEL 4
REMARK VINA RESULT:      -7.6      1.123      1.834
REMARK  Name = 
REMARK  6 active torsions:
REMARK  status: ('A' for Active; 'I' for Inactive)
REMARK    1  A    between atoms: C_1  and  O_2
REMARK    2  A    between atoms: O_2  and  C_3
REMARK    3  A    between atoms: C_7  and  C_8
REMARK    4  A    between atoms: C_11  and  C_12
REMARK    5  A    between atoms: N_15  and  C_16
REMARK    6  A    between atoms: C_16  and  C_17
REMARK                            x       y       z     vdW  Elec       q    Type
REMARK                         _______ _______ _______ _____ _____    ______ ____
ROOT
ATOM      1  C   UNL     1       8.402   8.931  18.167  0.00  0.00    +0.000 A 
ATOM      2  N   UNL     1       7.451   8.925  17.217  0.00  0.00    +0.000 NA
ATOM      3  O   UNL     1       6.931   7.625  17.278  0.00  0.00    +0.000 OA
ATOM      4  C   UNL     1       7.636   6.974  18.247  0.00  0.00    +0.000 A 
ATOM      5  N   UNL     1       8.560   7.722  18.799  0.00  0.00    +0.000 NA
ENDROOT
BRANCH   1  10
ATOM      6  C   UNL     1       9.802  11.583  20.432  0.00  0.00    +0.000 A 
ATOM      7  C   UNL     1      10.448  12.407  19.510  0.00  0.00    +0.000 A 
ATOM      8  C   UNL     1      10.467  12.084  18.151  0.00  0.00    +0.000 A 
ATOM      9  C   UNL     1       9.820  10.930  17.698  0.00  0.00    +0.000 A 
ATOM     10  C   UNL     1       9.159  10.097  18.605  0.00  0.00    +0.000 A 
ATOM     11  C   UNL     1       9.171  10.425  19.976  0.00  0.00    +0.000 A 
BRANCH   6  13
ATOM     12  C   UNL     1       9.276  13.285  22.005  0.00  0.00    +0.000 C 
ATOM     13  O   UNL     1       9.845  12.011  21.730  0.00  0.00    +0.000 OA
ENDBRANCH   6  13
ENDBRANCH   1  10
BRANCH   4  14
ATOM     14  C   UNL     1       7.219   5.598  18.625  0.00  0.00    +0.000 C 
ATOM     15  C   UNL     1       7.273   4.662  17.417  0.00  0.00    +0.000 C 
ATOM     16  C   UNL     1       5.866   4.767  16.856  0.00  0.00    +0.000 C 
ATOM     17  N   UNL     1       4.997   4.769  18.045  0.00  0.00    +0.000 NA
ATOM     18  C   UNL     1       5.757   5.520  19.075  0.00  0.00    +0.000 C 
BRANCH  17  19
ATOM     19  C   UNL     1       4.678   3.385  18.452  0.00  0.00    +0.000 C 
BRANCH  19  20
ATOM     20  C   UNL     1       3.340   3.279  19.126  0.00  0.00    +0.000 A 
ATOM     21  C   UNL     1       3.064   3.009  20.452  0.00  0.00    +0.000 A 
ATOM     22  C   UNL     1       1.666   2.928  20.709  0.00  0.00    +0.000 A 
ATOM     23  C   UNL     1       0.920   3.164  19.576  0.00  0.00    +0.000 A 
ATOM     24  S   UNL     1       1.901   3.505  18.219  0.00  0.00    +0.000 S 
ENDBRANCH  19  20
ENDBRANCH  17  19
ENDBRANCH   4  14
TORSDOF 5
ENDMDL
MODEL 5
REMARK VINA RESULT:      -7.6      1.473      2.080
REMARK  Name = 
REMARK  6 active torsions:
REMARK  status: ('A' for Active; 'I' for Inactive)
REMARK    1  A    between atoms: C_1  and  O_2
REMARK    2  A    between atoms: O_2  and  C_3
REMARK    3  A    between atoms: C_7  and  C_8
REMARK    4  A    between atoms: C_11  and  C_12
REMARK    5  A    between atoms: N_15  and  C_16
REMARK    6  A    between atoms: C_16  and  C_17
REMARK                            x       y       z     vdW  Elec       q    Type
REMARK                         _______ _______ _______ _____ _____    ______ ____
ROOT
ATOM      1  C   UNL     1       8.344   9.220  18.209  0.00  0.00    +0.000 A 
ATOM      2  N   UNL     1       8.871   8.339  19.077  0.00  0.00    +0.000 NA
ATOM      3  O   UNL     1       8.283   7.121  18.711  0.00  0.00    +0.000 OA
ATOM      4  C   UNL     1       7.446   7.396  17.671  0.00  0.00    +0.000 A 
ATOM      5  N   UNL     1       7.430   8.666  17.345  0.00  0.00    +0.000 NA
ENDROOT
BRANCH   1  10
ATOM      6  C   UNL     1      10.291  12.402  18.665  0.00  0.00    +0.000 A 
ATOM      7  C   UNL     1       9.468  13.314  18.003  0.00  0.00    +0.000 A 
ATOM      8  C   UNL     1       8.296  12.894  17.370  0.00  0.00    +0.000 A 
ATOM      9  C   UNL     1       7.927  11.546  17.407  0.00  0.00    +0.000 A 
ATOM     10  C   UNL     1       8.733  10.618  18.073  0.00  0.00    +0.000 A 
ATOM     11  C   UNL     1       9.924  11.056  18.686  0.00  0.00    +0.000 A 
BRANCH   6  13
ATOM     12  C   UNL     1      12.332  12.023  19.822  0.00  0.00    +0.000 C 
ATOM     13  O   UNL     1      11.402  12.937  19.254  0.00  0.00    +0.000 OA
ENDBRANCH   6  13
ENDBRANCH   1  10
BRANCH   4  14
ATOM     14  C   UNL     1       6.769   6.263  16.985  0.00  0.00    +0.000 C 
ATOM     15  C   UNL     1       5.346   6.645  16.579  0.00  0.00    +0.000 C 
ATOM     16  C   UNL     1       4.530   6.202  17.780  0.00  0.00    +0.000 C 
ATOM     17  N   UNL     1       5.116   4.907  18.163  0.00  0.00    +0.000 NA
ATOM     18  C   UNL     1       6.569   5.048  17.897  0.00  0.00    +0.000 C 
BRANCH  17  19
ATOM     19  C   UNL     1       4.488   3.811  17.396  0.00  0.00    +0.000 C 
BRANCH  19  20
ATOM     20  C   UNL     1       3.365   3.156  18.147  0.00  0.00    +0.000 A 
ATOM     21  C   UNL     1       2.240   2.535  17.641  0.00  0.00    +0.000 A 
ATOM     22  C   UNL     1       1.363   2.082  18.669  0.00  0.00    +0.000 A 
ATOM     23  C   UNL     1       1.860   2.350  19.925  0.00  0.00    +0.000 A 
ATOM     24  S   UNL     1       3.384   3.119  19.863  0.00  0.00    +0.000 S 
ENDBRANCH  19  20
ENDBRANCH  17  19
ENDBRANCH   4  14
TORSDOF 5
ENDMDL
MODEL 6
REMARK VINA RESULT:      -7.6      4.836      7.650
REMARK  Name = 
REMARK  6 active torsions:
REMARK  status: ('A' for Active; 'I' for Inactive)
REMARK    1  A    between atoms: C_1  and  O_2
REMARK    2  A    between atoms: O_2  and  C_3
REMARK    3  A    between atoms: C_7  and  C_8
REMARK    4  A    between atoms: C_11  and  C_12
REMARK    5  A    between atoms: N_15  and  C_16
REMARK    6  A    between atoms: C_16  and  C_17
REMARK                            x       y       z     vdW  Elec       q    Type
REMARK                         _______ _______ _______ _____ _____    ______ ____
ROOT
ATOM      1  C   UNL     1       6.491   4.762  14.216  0.00  0.00    +0.000 A 
ATOM      2  N   UNL     1       7.670   5.314  14.548  0.00  0.00    +0.000 NA
ATOM      3  O   UNL     1       7.436   5.857  15.819  0.00  0.00    +0.000 OA
ATOM      4  C   UNL     1       6.131   5.593  16.114  0.00  0.00    +0.000 A 
ATOM      5  N   UNL     1       5.507   4.950  15.157  0.00  0.00    +0.000 NA
ENDROOT
BRANCH   1  10
ATOM      6  C   UNL     1       4.611   3.034  11.459  0.00  0.00    +0.000 A 
ATOM      7  C   UNL     1       5.627   2.274  10.879  0.00  0.00    +0.000 A 
ATOM      8  C   UNL     1       6.938   2.349  11.356  0.00  0.00    +0.000 A 
ATOM      9  C   UNL     1       7.243   3.183  12.436  0.00  0.00    +0.000 A 
ATOM     10  C   UNL     1       6.236   3.945  13.036  0.00  0.00    +0.000 A 
ATOM     11  C   UNL     1       4.923   3.875  12.528  0.00  0.00    +0.000 A 
BRANCH   6  13
ATOM     12  C   UNL     1       3.029   3.705   9.816  0.00  0.00    +0.000 C 
ATOM     13  O   UNL     1       3.369   2.865  10.912  0.00  0.00    +0.000 OA
ENDBRANCH   6  13
ENDBRANCH   1  10
BRANCH   4  14
ATOM     14  C   UNL     1       5.625   5.945  17.467  0.00  0.00    +0.000 C 
ATOM     15  C   UNL     1       5.503   4.699  18.344  0.00  0.00    +0.000 C 
ATOM     16  C   UNL     1       4.072   4.258  18.094  0.00  0.00    +0.000 C 
ATOM     17  N   UNL     1       3.301   5.512  18.076  0.00  0.00    +0.000 NA
ATOM     18  C   UNL     1       4.200   6.508  17.443  0.00  0.00    +0.000 C 
BRANCH  17  19
ATOM     19  C   UNL     1       2.893   5.884  19.446  0.00  0.00    +0.000 C 
BRANCH  19  20
ATOM     20  C   UNL     1       2.333   4.722  20.214  0.00  0.00    +0.000 A 
ATOM     21  C   UNL     1       2.722   4.240  21.449  0.00  0.00    +0.000 A 
ATOM     22  C   UNL     1       1.994   3.077  21.830  0.00  0.00    +0.000 A 
ATOM     23  C   UNL     1       1.057   2.723  20.885  0.00  0.00    +0.000 A 
ATOM     24  S   UNL     1       1.040   3.802  19.561  0.00  0.00    +0.000 S 
ENDBRANCH  19  20
ENDBRANCH  17  19
ENDBRANCH   4  14
TORSDOF 5
ENDMDL
MODEL 7
REMARK VINA RESULT:      -7.6      5.624      7.925
REMARK  Name = 
REMARK  6 active torsions:
REMARK  status: ('A' for Active; 'I' for Inactive)
REMARK    1  A    between atoms: C_1  and  O_2
REMARK    2  A    between atoms: O_2  and  C_3
REMARK    3  A    between atoms: C_7  and  C_8
REMARK    4  A    between atoms: C_11  and  C_12
REMARK    5  A    between atoms: N_15  and  C_16
REMARK    6  A    between atoms: C_16  and  C_17
REMARK                            x       y       z     vdW  Elec       q    Type
REMARK                         _______ _______ _______ _____ _____    ______ ____
ROOT
ATOM      1  C   UNL     1       1.204   9.167  19.748  0.00  0.00    +0.000 A 
ATOM      2  N   UNL     1       1.400   9.762  18.558  0.00  0.00    +0.000 NA
ATOM      3  O   UNL     1       2.075   8.789  17.809  0.00  0.00    +0.000 OA
ATOM      4  C   UNL     1       2.233   7.713  18.631  0.00  0.00    +0.000 A 
ATOM      5  N   UNL     1       1.741   7.905  19.830  0.00  0.00    +0.000 NA
ENDROOT
BRANCH   1  10
ATOM      6  C   UNL     1      -1.000  11.504  21.698  0.00  0.00    +0.000 A 
ATOM      7  C   UNL     1      -0.975  10.905  22.958  0.00  0.00    +0.000 A 
ATOM      8  C   UNL     1      -0.273   9.716  23.171  0.00  0.00    +0.000 A 
ATOM      9  C   UNL     1       0.427   9.118  22.119  0.00  0.00    +0.000 A 
ATOM     10  C   UNL     1       0.421   9.709  20.851  0.00  0.00    +0.000 A 
ATOM     11  C   UNL     1      -0.311  10.896  20.648  0.00  0.00    +0.000 A 
BRANCH   6  13
ATOM     12  C   UNL     1      -2.770  12.713  20.671  0.00  0.00    +0.000 C 
ATOM     13  O   UNL     1      -1.711  12.669  21.619  0.00  0.00    +0.000 OA
ENDBRANCH   6  13
ENDBRANCH   1  10
BRANCH   4  14
ATOM     14  C   UNL     1       2.812   6.466  18.064  0.00  0.00    +0.000 C 
ATOM     15  C   UNL     1       2.273   5.235  18.793  0.00  0.00    +0.000 C 
ATOM     16  C   UNL     1       3.299   5.027  19.893  0.00  0.00    +0.000 C 
ATOM     17  N   UNL     1       4.593   5.277  19.237  0.00  0.00    +0.000 NA
ATOM     18  C   UNL     1       4.328   6.367  18.266  0.00  0.00    +0.000 C 
BRANCH  17  19
ATOM     19  C   UNL     1       5.097   4.042  18.603  0.00  0.00    +0.000 C 
BRANCH  19  20
ATOM     20  C   UNL     1       5.613   4.280  17.213  0.00  0.00    +0.000 A 
ATOM     21  C   UNL     1       4.937   4.170  16.014  0.00  0.00    +0.000 A 
ATOM     22  C   UNL     1       5.779   4.417  14.893  0.00  0.00    +0.000 A 
ATOM     23  C   UNL     1       7.064   4.732  15.273  0.00  0.00    +0.000 A 
ATOM     24  S   UNL     1       7.245   4.754  16.972  0.00  0.00    +0.000 S 
ENDBRANCH  19  20
ENDBRANCH  17  19
ENDBRANCH   4  14
TORSDOF 5
ENDMDL
MODEL 8
REMARK VINA RESULT:      -7.5      1.689      2.248
REMARK  Name = 
REMARK  6 active torsions:
REMARK  status: ('A' for Active; 'I' for Inactive)
REMARK    1  A    between atoms: C_1  and  O_2
REMARK    2  A    between atoms: O_2  and  C_3
REMARK    3  A    between atoms: C_7  and  C_8
REMARK    4  A    between atoms: C_11  and  C_12
REMARK    5  A    between atoms: N_15  and  C_16
REMARK    6  A    between atoms: C_16  and  C_17
REMARK                            x       y       z     vdW  Elec       q    Type
REMARK                         _______ _______ _______ _____ _____    ______ ____
ROOT
ATOM      1  C   UNL     1       8.478   9.345  18.163  0.00  0.00    +0.000 A 
ATOM      2  N   UNL     1       8.884   8.481  19.109  0.00  0.00    +0.000 NA
ATOM      3  O   UNL     1       8.282   7.272  18.735  0.00  0.00    +0.000 OA
ATOM      4  C   UNL     1       7.559   7.536  17.610  0.00  0.00    +0.000 A 
ATOM      5  N   UNL     1       7.626   8.791  17.237  0.00  0.00    +0.000 NA
ENDROOT
BRANCH   1  10
ATOM      6  C   UNL     1       8.366  13.060  17.610  0.00  0.00    +0.000 A 
ATOM      7  C   UNL     1       9.727  13.363  17.556  0.00  0.00    +0.000 A 
ATOM      8  C   UNL     1      10.689  12.367  17.739  0.00  0.00    +0.000 A 
ATOM      9  C   UNL     1      10.294  11.045  17.966  0.00  0.00    +0.000 A 
ATOM     10  C   UNL     1       8.934  10.721  18.013  0.00  0.00    +0.000 A 
ATOM     11  C   UNL     1       7.977  11.742  17.850  0.00  0.00    +0.000 A 
BRANCH   6  13
ATOM     12  C   UNL     1       7.785  15.302  18.146  0.00  0.00    +0.000 C 
ATOM     13  O   UNL     1       7.524  14.117  17.404  0.00  0.00    +0.000 OA
ENDBRANCH   6  13
ENDBRANCH   1  10
BRANCH   4  14
ATOM     14  C   UNL     1       6.904   6.402  16.905  0.00  0.00    +0.000 C 
ATOM     15  C   UNL     1       5.408   6.663  16.729  0.00  0.00    +0.000 C 
ATOM     16  C   UNL     1       4.813   6.029  17.975  0.00  0.00    +0.000 C 
ATOM     17  N   UNL     1       5.567   4.776  18.142  0.00  0.00    +0.000 NA
ATOM     18  C   UNL     1       6.949   5.096  17.706  0.00  0.00    +0.000 C 
BRANCH  17  19
ATOM     19  C   UNL     1       4.945   3.691  17.356  0.00  0.00    +0.000 C 
BRANCH  19  20
ATOM     20  C   UNL     1       3.670   3.194  17.973  0.00  0.00    +0.000 A 
ATOM     21  C   UNL     1       2.391   3.234  17.454  0.00  0.00    +0.000 A 
ATOM     22  C   UNL     1       1.422   2.718  18.362  0.00  0.00    +0.000 A 
ATOM     23  C   UNL     1       1.996   2.277  19.533  0.00  0.00    +0.000 A 
ATOM     24  S   UNL     1       3.694   2.462  19.525  0.00  0.00    +0.000 S 
ENDBRANCH  19  20
ENDBRANCH  17  19
ENDBRANCH   4  14
TORSDOF 5
ENDMDL
MODEL 9
REMARK VINA RESULT:      -7.4      1.510      2.221
REMARK  Name = 
REMARK  6 active torsions:
REMARK  status: ('A' for Active; 'I' for Inactive)
REMARK    1  A    between atoms: C_1  and  O_2
REMARK    2  A    between atoms: O_2  and  C_3
REMARK    3  A    between atoms: C_7  and  C_8
REMARK    4  A    between atoms: C_11  and  C_12
REMARK    5  A    between atoms: N_15  and  C_16
REMARK    6  A    between atoms: C_16  and  C_17
REMARK                            x       y       z     vdW  Elec       q    Type
REMARK                         _______ _______ _______ _____ _____    ______ ____
ROOT
ATOM      1  C   UNL     1       8.663   9.342  18.501  0.00  0.00    +0.000 A 
ATOM      2  N   UNL     1       7.758   9.614  17.546  0.00  0.00    +0.000 NA
ATOM      3  O   UNL     1       7.197   8.363  17.254  0.00  0.00    +0.000 OA
ATOM      4  C   UNL     1       7.837   7.461  18.052  0.00  0.00    +0.000 A 
ATOM      5  N   UNL     1       8.756   8.006  18.810  0.00  0.00    +0.000 NA
ENDROOT
BRANCH   1  10
ATOM      6  C   UNL     1       9.596  11.782  21.202  0.00  0.00    +0.000 A 
ATOM      7  C   UNL     1      10.763  12.333  20.672  0.00  0.00    +0.000 A 
ATOM      8  C   UNL     1      11.275  11.887  19.452  0.00  0.00    +0.000 A 
ATOM      9  C   UNL     1      10.610  10.885  18.738  0.00  0.00    +0.000 A 
ATOM     10  C   UNL     1       9.434  10.327  19.249  0.00  0.00    +0.000 A 
ATOM     11  C   UNL     1       8.944  10.773  20.493  0.00  0.00    +0.000 A 
BRANCH   6  13
ATOM     12  C   UNL     1       8.157  11.619  23.087  0.00  0.00    +0.000 C 
ATOM     13  O   UNL     1       9.190  12.310  22.396  0.00  0.00    +0.000 OA
ENDBRANCH   6  13
ENDBRANCH   1  10
BRANCH   4  14
ATOM     14  C   UNL     1       7.361   6.052  18.052  0.00  0.00    +0.000 C 
ATOM     15  C   UNL     1       6.242   5.855  17.030  0.00  0.00    +0.000 C 
ATOM     16  C   UNL     1       4.993   6.113  17.855  0.00  0.00    +0.000 C 
ATOM     17  N   UNL     1       5.261   5.448  19.141  0.00  0.00    +0.000 NA
ATOM     18  C   UNL     1       6.714   5.641  19.378  0.00  0.00    +0.000 C 
BRANCH  17  19
ATOM     19  C   UNL     1       4.866   4.026  19.078  0.00  0.00    +0.000 C 
BRANCH  19  20
ATOM     20  C   UNL     1       3.499   3.785  19.653  0.00  0.00    +0.000 A 
ATOM     21  C   UNL     1       2.879   2.580  19.918  0.00  0.00    +0.000 A 
ATOM     22  C   UNL     1       1.552   2.751  20.407  0.00  0.00    +0.000 A 
ATOM     23  C   UNL     1       1.213   4.080  20.524  0.00  0.00    +0.000 A 
ATOM     24  S   UNL     1       2.495   5.113  20.070  0.00  0.00    +0.000 S 
ENDBRANCH  19  20
ENDBRANCH  17  19
ENDBRANCH   4  14
TORSDOF 5
ENDMDL
