MODEL 1
REMARK VINA RESULT:      -6.8      0.000      0.000
REMARK  Name = 
REMARK  1 active torsions:
REMARK  status: ('A' for Active; 'I' for Inactive)
REMARK    1  A    between atoms: C_5  and  N_6
REMARK                            x       y       z     vdW  Elec       q    Type
REMARK                         _______ _______ _______ _____ _____    ______ ____
ROOT
ATOM      1 CL   UNL     1       1.380   2.493  21.374  0.00  0.00    +0.000 Cl
ATOM      2  C   UNL     1       2.635   3.359  20.589  0.00  0.00    +0.000 A 
ATOM      3  C   UNL     1       2.535   4.727  20.380  0.00  0.00    +0.000 A 
ATOM      4  C   UNL     1       3.590   5.398  19.759  0.00  0.00    +0.000 A 
ATOM      5  C   UNL     1       4.713   4.680  19.375  0.00  0.00    +0.000 A 
ATOM      6  N   UNL     1       4.806   3.344  19.528  0.00  0.00    +0.000 NA
ATOM      7  C   UNL     1       3.777   2.717  20.148  0.00  0.00    +0.000 A 
ENDROOT
BRANCH   5   8
ATOM      8  N   UNL     1       5.762   5.339  18.733  0.00  0.00    +0.000 NA
ATOM      9  C   UNL     1       5.923   5.276  17.451  0.00  0.00    +0.000 A 
ATOM     10  S   UNL     1       5.096   4.458  16.178  0.00  0.00    +0.000 S 
ATOM     11  S   UNL     1       6.635   4.428  14.864  0.00  0.00    +0.000 S 
ATOM     12  N   UNL     1       7.392   5.757  15.517  0.00  0.00    +0.000 NA
ATOM     13  C   UNL     1       6.994   6.031  16.719  0.00  0.00    +0.000 A 
ATOM     14 CL   UNL     1       7.725   7.343  17.539  0.00  0.00    +0.000 Cl
ENDBRANCH   5   8
TORSDOF 1
ENDMDL
MODEL 2
REMARK VINA RESULT:      -6.6      2.103      2.103
REMARK  Name = 
REMARK  1 active torsions:
REMARK  status: ('A' for Active; 'I' for Inactive)
REMARK    1  A    between atoms: C_5  and  N_6
REMARK                            x       y       z     vdW  Elec       q    Type
REMARK                         _______ _______ _______ _____ _____    ______ ____
ROOT
ATOM      1 CL   UNL     1       1.323   2.629  21.763  0.00  0.00    +0.000 Cl
ATOM      2  C   UNL     1       2.239   3.046  20.376  0.00  0.00    +0.000 A 
ATOM      3  C   UNL     1       1.734   3.922  19.425  0.00  0.00    +0.000 A 
ATOM      4  C   UNL     1       2.523   4.255  18.322  0.00  0.00    +0.000 A 
ATOM      5  C   UNL     1       3.793   3.708  18.211  0.00  0.00    +0.000 A 
ATOM      6  N   UNL     1       4.279   2.821  19.101  0.00  0.00    +0.000 NA
ATOM      7  C   UNL     1       3.503   2.525  20.171  0.00  0.00    +0.000 A 
ENDROOT
BRANCH   5   8
ATOM      8  N   UNL     1       4.578   4.017  17.100  0.00  0.00    +0.000 NA
ATOM      9  C   UNL     1       5.633   4.760  17.197  0.00  0.00    +0.000 A 
ATOM     10  S   UNL     1       6.392   5.601  18.497  0.00  0.00    +0.000 S 
ATOM     11  S   UNL     1       7.362   6.972  17.370  0.00  0.00    +0.000 S 
ATOM     12  N   UNL     1       7.400   6.022  16.007  0.00  0.00    +0.000 NA
ATOM     13  C   UNL     1       6.542   5.051  16.039  0.00  0.00    +0.000 A 
ATOM     14 CL   UNL     1       6.430   4.019  14.678  0.00  0.00    +0.000 Cl
ENDBRANCH   5   8
TORSDOF 1
ENDMDL
MODEL 3
REMARK VINA RESULT:      -6.5      0.742      1.282
REMARK  Name = 
REMARK  1 active torsions:
REMARK  status: ('A' for Active; 'I' for Inactive)
REMARK    1  A    between atoms: C_5  and  N_6
REMARK                            x       y       z     vdW  Elec       q    Type
REMARK                         _______ _______ _______ _____ _____    ______ ____
ROOT
ATOM      1 CL   UNL     1       1.127   2.727  21.281  0.00  0.00    +0.000 Cl
ATOM      2  C   UNL     1       2.487   3.468  20.547  0.00  0.00    +0.000 A 
ATOM      3  C   UNL     1       3.590   2.716  20.165  0.00  0.00    +0.000 A 
ATOM      4  C   UNL     1       4.666   3.354  19.548  0.00  0.00    +0.000 A 
ATOM      5  C   UNL     1       4.602   4.722  19.325  0.00  0.00    +0.000 A 
ATOM      6  N   UNL     1       3.560   5.474  19.732  0.00  0.00    +0.000 NA
ATOM      7  C   UNL     1       2.520   4.830  20.314  0.00  0.00    +0.000 A 
ENDROOT
BRANCH   5   8
ATOM      8  N   UNL     1       5.684   5.372  18.730  0.00  0.00    +0.000 NA
ATOM      9  C   UNL     1       5.890   5.325  17.454  0.00  0.00    +0.000 A 
ATOM     10  S   UNL     1       5.097   4.537  16.141  0.00  0.00    +0.000 S 
ATOM     11  S   UNL     1       6.680   4.501  14.882  0.00  0.00    +0.000 S 
ATOM     12  N   UNL     1       7.435   5.808  15.581  0.00  0.00    +0.000 NA
ATOM     13  C   UNL     1       6.998   6.072  16.771  0.00  0.00    +0.000 A 
ATOM     14 CL   UNL     1       7.719   7.361  17.636  0.00  0.00    +0.000 Cl
ENDBRANCH   5   8
TORSDOF 1
ENDMDL
MODEL 4
REMARK VINA RESULT:      -6.2      2.185      2.467
REMARK  Name = 
REMARK  1 active torsions:
REMARK  status: ('A' for Active; 'I' for Inactive)
REMARK    1  A    between atoms: C_5  and  N_6
REMARK                            x       y       z     vdW  Elec       q    Type
REMARK                         _______ _______ _______ _____ _____    ______ ____
ROOT
ATOM      1 CL   UNL     1       1.126   2.649  21.486  0.00  0.00    +0.000 Cl
ATOM      2  C   UNL     1       2.133   3.043  20.155  0.00  0.00    +0.000 A 
ATOM      3  C   UNL     1       2.915   2.074  19.541  0.00  0.00    +0.000 A 
ATOM      4  C   UNL     1       3.702   2.431  18.446  0.00  0.00    +0.000 A 
ATOM      5  C   UNL     1       3.677   3.742  17.995  0.00  0.00    +0.000 A 
ATOM      6  N   UNL     1       2.960   4.705  18.609  0.00  0.00    +0.000 NA
ATOM      7  C   UNL     1       2.191   4.332  19.660  0.00  0.00    +0.000 A 
ENDROOT
BRANCH   5   8
ATOM      8  N   UNL     1       4.478   4.113  16.915  0.00  0.00    +0.000 NA
ATOM      9  C   UNL     1       5.567   4.791  17.076  0.00  0.00    +0.000 A 
ATOM     10  S   UNL     1       6.364   5.473  18.445  0.00  0.00    +0.000 S 
ATOM     11  S   UNL     1       7.401   6.893  17.445  0.00  0.00    +0.000 S 
ATOM     12  N   UNL     1       7.395   6.070  16.001  0.00  0.00    +0.000 NA
ATOM     13  C   UNL     1       6.492   5.143  15.947  0.00  0.00    +0.000 A 
ATOM     14 CL   UNL     1       6.332   4.245  14.498  0.00  0.00    +0.000 Cl
ENDBRANCH   5   8
TORSDOF 1
ENDMDL
MODEL 5
REMARK VINA RESULT:      -6.0      2.724      5.761
REMARK  Name = 
REMARK  1 active torsions:
REMARK  status: ('A' for Active; 'I' for Inactive)
REMARK    1  A    between atoms: C_5  and  N_6
REMARK                            x       y       z     vdW  Elec       q    Type
REMARK                         _______ _______ _______ _____ _____    ______ ____
ROOT
ATOM      1 CL   UNL     1       8.306   8.576  17.607  0.00  0.00    +0.000 Cl
ATOM      2  C   UNL     1       7.369   7.168  17.887  0.00  0.00    +0.000 A 
ATOM      3  C   UNL     1       6.231   6.908  17.137  0.00  0.00    +0.000 A 
ATOM      4  C   UNL     1       5.511   5.737  17.380  0.00  0.00    +0.000 A 
ATOM      5  C   UNL     1       5.956   4.862  18.359  0.00  0.00    +0.000 A 
ATOM      6  N   UNL     1       7.033   5.122  19.128  0.00  0.00    +0.000 NA
ATOM      7  C   UNL     1       7.725   6.256  18.863  0.00  0.00    +0.000 A 
ENDROOT
BRANCH   5   8
ATOM      8  N   UNL     1       5.229   3.701  18.624  0.00  0.00    +0.000 NA
ATOM      9  C   UNL     1       4.089   3.735  19.233  0.00  0.00    +0.000 A 
ATOM     10  S   UNL     1       3.134   4.996  19.920  0.00  0.00    +0.000 S 
ATOM     11  S   UNL     1       2.098   3.842  21.219  0.00  0.00    +0.000 S 
ATOM     12  N   UNL     1       2.283   2.446  20.333  0.00  0.00    +0.000 NA
ATOM     13  C   UNL     1       3.246   2.516  19.469  0.00  0.00    +0.000 A 
ATOM     14 CL   UNL     1       3.588   1.133  18.520  0.00  0.00    +0.000 Cl
ENDBRANCH   5   8
TORSDOF 1
ENDMDL
MODEL 6
REMARK VINA RESULT:      -6.0      1.404      1.404
REMARK  Name = 
REMARK  1 active torsions:
REMARK  status: ('A' for Active; 'I' for Inactive)
REMARK    1  A    between atoms: C_5  and  N_6
REMARK                            x       y       z     vdW  Elec       q    Type
REMARK                         _______ _______ _______ _____ _____    ______ ____
ROOT
ATOM      1 CL   UNL     1       0.324   2.125  19.073  0.00  0.00    +0.000 Cl
ATOM      2  C   UNL     1       1.769   2.984  18.736  0.00  0.00    +0.000 A 
ATOM      3  C   UNL     1       1.768   4.368  18.626  0.00  0.00    +0.000 A 
ATOM      4  C   UNL     1       2.970   5.030  18.375  0.00  0.00    +0.000 A 
ATOM      5  C   UNL     1       4.136   4.289  18.250  0.00  0.00    +0.000 A 
ATOM      6  N   UNL     1       4.147   2.942  18.307  0.00  0.00    +0.000 NA
ATOM      7  C   UNL     1       2.971   2.322  18.567  0.00  0.00    +0.000 A 
ENDROOT
BRANCH   5   8
ATOM      8  N   UNL     1       5.338   4.941  17.976  0.00  0.00    +0.000 NA
ATOM      9  C   UNL     1       5.776   5.085  16.767  0.00  0.00    +0.000 A 
ATOM     10  S   UNL     1       5.205   4.586  15.219  0.00  0.00    +0.000 S 
ATOM     11  S   UNL     1       6.992   4.631  14.271  0.00  0.00    +0.000 S 
ATOM     12  N   UNL     1       7.663   5.744  15.307  0.00  0.00    +0.000 NA
ATOM     13  C   UNL     1       7.025   5.845  16.430  0.00  0.00    +0.000 A 
ATOM     14 CL   UNL     1       7.633   6.916  17.619  0.00  0.00    +0.000 Cl
ENDBRANCH   5   8
TORSDOF 1
ENDMDL
MODEL 7
REMARK VINA RESULT:      -5.9      2.678      5.828
REMARK  Name = 
REMARK  1 active torsions:
REMARK  status: ('A' for Active; 'I' for Inactive)
REMARK    1  A    between atoms: C_5  and  N_6
REMARK                            x       y       z     vdW  Elec       q    Type
REMARK                         _______ _______ _______ _____ _____    ______ ____
ROOT
ATOM      1 CL   UNL     1       8.234   8.668  17.622  0.00  0.00    +0.000 Cl
ATOM      2  C   UNL     1       7.355   7.223  17.905  0.00  0.00    +0.000 A 
ATOM      3  C   UNL     1       7.769   6.314  18.869  0.00  0.00    +0.000 A 
ATOM      4  C   UNL     1       7.011   5.162  19.085  0.00  0.00    +0.000 A 
ATOM      5  C   UNL     1       5.861   4.960  18.336  0.00  0.00    +0.000 A 
ATOM      6  N   UNL     1       5.472   5.810  17.364  0.00  0.00    +0.000 NA
ATOM      7  C   UNL     1       6.213   6.928  17.184  0.00  0.00    +0.000 A 
ENDROOT
BRANCH   5   8
ATOM      8  N   UNL     1       5.111   3.800  18.529  0.00  0.00    +0.000 NA
ATOM      9  C   UNL     1       3.984   3.815  19.164  0.00  0.00    +0.000 A 
ATOM     10  S   UNL     1       3.075   5.042  19.965  0.00  0.00    +0.000 S 
ATOM     11  S   UNL     1       2.037   3.818  21.195  0.00  0.00    +0.000 S 
ATOM     12  N   UNL     1       2.169   2.490  20.203  0.00  0.00    +0.000 NA
ATOM     13  C   UNL     1       3.115   2.602  19.326  0.00  0.00    +0.000 A 
ATOM     14 CL   UNL     1       3.404   1.287  18.268  0.00  0.00    +0.000 Cl
ENDBRANCH   5   8
TORSDOF 1
ENDMDL
MODEL 8
REMARK VINA RESULT:      -5.8      2.164      2.386
REMARK  Name = 
REMARK  1 active torsions:
REMARK  status: ('A' for Active; 'I' for Inactive)
REMARK    1  A    between atoms: C_5  and  N_6
REMARK                            x       y       z     vdW  Elec       q    Type
REMARK                         _______ _______ _______ _____ _____    ______ ____
ROOT
ATOM      1 CL   UNL     1       1.130   2.543  22.017  0.00  0.00    +0.000 Cl
ATOM      2  C   UNL     1       1.940   3.399  20.772  0.00  0.00    +0.000 A 
ATOM      3  C   UNL     1       2.279   2.773  19.580  0.00  0.00    +0.000 A 
ATOM      4  C   UNL     1       2.917   3.512  18.583  0.00  0.00    +0.000 A 
ATOM      5  C   UNL     1       3.187   4.855  18.805  0.00  0.00    +0.000 A 
ATOM      6  N   UNL     1       2.907   5.465  19.974  0.00  0.00    +0.000 NA
ATOM      7  C   UNL     1       2.274   4.732  20.922  0.00  0.00    +0.000 A 
ENDROOT
BRANCH   5   8
ATOM      8  N   UNL     1       3.844   5.595  17.823  0.00  0.00    +0.000 NA
ATOM      9  C   UNL     1       5.129   5.741  17.825  0.00  0.00    +0.000 A 
ATOM     10  S   UNL     1       6.393   5.224  18.878  0.00  0.00    +0.000 S 
ATOM     11  S   UNL     1       7.736   6.648  18.370  0.00  0.00    +0.000 S 
ATOM     12  N   UNL     1       7.088   6.910  16.861  0.00  0.00    +0.000 NA
ATOM     13  C   UNL     1       5.877   6.467  16.744  0.00  0.00    +0.000 A 
ATOM     14 CL   UNL     1       5.060   6.713  15.260  0.00  0.00    +0.000 Cl
ENDBRANCH   5   8
TORSDOF 1
ENDMDL
MODEL 9
REMARK VINA RESULT:      -5.7      1.466      1.759
REMARK  Name = 
REMARK  1 active torsions:
REMARK  status: ('A' for Active; 'I' for Inactive)
REMARK    1  A    between atoms: C_5  and  N_6
REMARK                            x       y       z     vdW  Elec       q    Type
REMARK                         _______ _______ _______ _____ _____    ______ ____
ROOT
ATOM      1 CL   UNL     1       0.329   2.148  19.244  0.00  0.00    +0.000 Cl
ATOM      2  C   UNL     1       1.814   2.945  18.931  0.00  0.00    +0.000 A 
ATOM      3  C   UNL     1       3.005   2.468  19.462  0.00  0.00    +0.000 A 
ATOM      4  C   UNL     1       4.195   3.133  19.163  0.00  0.00    +0.000 A 
ATOM      5  C   UNL     1       4.157   4.247  18.338  0.00  0.00    +0.000 A 
ATOM      6  N   UNL     1       3.004   4.750  17.854  0.00  0.00    +0.000 NA
ATOM      7  C   UNL     1       1.864   4.080  18.143  0.00  0.00    +0.000 A 
ENDROOT
BRANCH   5   8
ATOM      8  N   UNL     1       5.339   4.931  18.053  0.00  0.00    +0.000 NA
ATOM      9  C   UNL     1       5.769   5.075  16.842  0.00  0.00    +0.000 A 
ATOM     10  S   UNL     1       5.210   4.541  15.301  0.00  0.00    +0.000 S 
ATOM     11  S   UNL     1       6.992   4.628  14.348  0.00  0.00    +0.000 S 
ATOM     12  N   UNL     1       7.633   5.773  15.369  0.00  0.00    +0.000 NA
ATOM     13  C   UNL     1       6.995   5.867  16.493  0.00  0.00    +0.000 A 
ATOM     14 CL   UNL     1       7.574   6.970  17.667  0.00  0.00    +0.000 Cl
ENDBRANCH   5   8
TORSDOF 1
ENDMDL
