MODEL 1
REMARK VINA RESULT:      -8.9      0.000      0.000
REMARK  Name = 
REMARK  8 active torsions:
REMARK  status: ('A' for Active; 'I' for Inactive)
REMARK    1  A    between atoms: C_1  and  C_2
REMARK    2  A    between atoms: N_6  and  C_7
REMARK    3  A    between atoms: C_7  and  C_8
REMARK    4  A    between atoms: C_8  and  C_9
REMARK    5  A    between atoms: N_17  and  C_18
REMARK    6  A    between atoms: C_18  and  C_19
REMARK    7  A    between atoms: N_21  and  C_22
REMARK    8  A    between atoms: C_22  and  C_23
REMARK                            x       y       z     vdW  Elec       q    Type
REMARK                         _______ _______ _______ _____ _____    ______ ____
ROOT
ATOM      1  C   UNL     1       5.122   4.695  15.785  0.00  0.00    +0.000 C 
ATOM      2  C   UNL     1       6.000   5.459  16.734  0.00  0.00    +0.000 A 
ATOM      3  C   UNL     1       6.655   6.520  16.243  0.00  0.00    +0.000 A 
ATOM      4  N   UNL     1       7.499   7.337  16.928  0.00  0.00    +0.000 NA
ATOM      5  C   UNL     1       7.732   7.055  18.177  0.00  0.00    +0.000 A 
ATOM      6  N   UNL     1       8.619   7.849  18.881  0.00  0.00    +0.000 N 
ATOM      7  C   UNL     1       7.033   5.858  18.880  0.00  0.00    +0.000 A 
ATOM      8  O   UNL     1       7.270   5.651  20.066  0.00  0.00    +0.000 OA
ATOM      9  N   UNL     1       6.166   5.105  18.077  0.00  0.00    +0.000 N 
ATOM     10  H   UNL     1       8.871   7.549  19.817  0.00  0.00    +0.000 HD
ENDROOT
BRANCH   6  11
ATOM     11  C   UNL     1       8.765   9.254  18.516  0.00  0.00    +0.000 C 
BRANCH  11  12
ATOM     12  C   UNL     1       9.280  10.090  19.682  0.00  0.00    +0.000 C 
BRANCH  12  13
ATOM     13  C   UNL     1      10.175  11.215  19.215  0.00  0.00    +0.000 A 
ATOM     14  C   UNL     1      10.438  11.382  17.848  0.00  0.00    +0.000 A 
ATOM     15  C   UNL     1      11.268  12.415  17.407  0.00  0.00    +0.000 A 
ATOM     16  C   UNL     1      11.849  13.285  18.326  0.00  0.00    +0.000 A 
ATOM     17  C   UNL     1      11.607  13.118  19.689  0.00  0.00    +0.000 A 
ATOM     18  C   UNL     1      10.778  12.086  20.133  0.00  0.00    +0.000 A 
ENDBRANCH  12  13
ENDBRANCH  11  12
ENDBRANCH   6  11
BRANCH   9  19
ATOM     19  C   UNL     1       5.543   3.932  18.706  0.00  0.00    +0.000 C 
BRANCH  19  20
ATOM     20  C   UNL     1       4.171   4.166  19.360  0.00  0.00    +0.000 C 
ATOM     21  O   UNL     1       3.561   3.253  19.919  0.00  0.00    +0.000 OA
ATOM     22  N   UNL     1       3.678   5.461  19.335  0.00  0.00    +0.000 N 
ATOM     23  H   UNL     1       3.951   6.096  18.589  0.00  0.00    +0.000 HD
BRANCH  22  24
ATOM     24  C   UNL     1       2.397   5.718  19.967  0.00  0.00    +0.000 C 
BRANCH  24  25
ATOM     25  C   UNL     1       1.917   7.156  19.966  0.00  0.00    +0.000 A 
ATOM     26  C   UNL     1       1.236   7.608  21.101  0.00  0.00    +0.000 A 
ATOM     27  C   UNL     1       0.723   8.911  21.082  0.00  0.00    +0.000 A 
ATOM     28  C   UNL     1       0.002   9.704  22.012  0.00  0.00    +0.000 A 
ATOM     29  C   UNL     1      -0.233  10.919  21.419  0.00  0.00    +0.000 A 
ATOM     30  N   UNL     1       0.306  10.890  20.163  0.00  0.00    +0.000 N 
ATOM     31  C   UNL     1       0.904   9.668  19.929  0.00  0.00    +0.000 A 
ATOM     32  C   UNL     1       1.570   9.175  18.815  0.00  0.00    +0.000 A 
ATOM     33  N   UNL     1       2.072   7.911  18.846  0.00  0.00    +0.000 NA
ATOM     34  H   UNL     1       0.258  11.651  19.489  0.00  0.00    +0.000 HD
ENDBRANCH  24  25
ENDBRANCH  22  24
ENDBRANCH  19  20
ENDBRANCH   9  19
TORSDOF 7
ENDMDL
MODEL 2
REMARK VINA RESULT:      -8.7      1.162      1.613
REMARK  Name = 
REMARK  8 active torsions:
REMARK  status: ('A' for Active; 'I' for Inactive)
REMARK    1  A    between atoms: C_1  and  C_2
REMARK    2  A    between atoms: N_6  and  C_7
REMARK    3  A    between atoms: C_7  and  C_8
REMARK    4  A    between atoms: C_8  and  C_9
REMARK    5  A    between atoms: N_17  and  C_18
REMARK    6  A    between atoms: C_18  and  C_19
REMARK    7  A    between atoms: N_21  and  C_22
REMARK    8  A    between atoms: C_22  and  C_23
REMARK                            x       y       z     vdW  Elec       q    Type
REMARK                         _______ _______ _______ _____ _____    ______ ____
ROOT
ATOM      1  C   UNL     1       5.428   4.256  15.298  0.00  0.00    +0.000 C 
ATOM      2  C   UNL     1       6.127   5.090  16.332  0.00  0.00    +0.000 A 
ATOM      3  C   UNL     1       6.874   6.112  15.892  0.00  0.00    +0.000 A 
ATOM      4  N   UNL     1       7.589   6.979  16.658  0.00  0.00    +0.000 NA
ATOM      5  C   UNL     1       7.586   6.792  17.945  0.00  0.00    +0.000 A 
ATOM      6  N   UNL     1       8.340   7.637  18.740  0.00  0.00    +0.000 N 
ATOM      7  C   UNL     1       6.755   5.650  18.595  0.00  0.00    +0.000 A 
ATOM      8  O   UNL     1       6.769   5.533  19.817  0.00  0.00    +0.000 OA
ATOM      9  N   UNL     1       6.040   4.838  17.705  0.00  0.00    +0.000 N 
ATOM     10  H   UNL     1       8.412   7.408  19.726  0.00  0.00    +0.000 HD
ENDROOT
BRANCH   6  11
ATOM     11  C   UNL     1       8.568   9.011  18.305  0.00  0.00    +0.000 C 
BRANCH  11  12
ATOM     12  C   UNL     1       9.228   9.847  19.396  0.00  0.00    +0.000 C 
BRANCH  12  13
ATOM     13  C   UNL     1       9.640  11.209  18.887  0.00  0.00    +0.000 A 
ATOM     14  C   UNL     1      10.463  11.318  17.757  0.00  0.00    +0.000 A 
ATOM     15  C   UNL     1      10.853  12.572  17.283  0.00  0.00    +0.000 A 
ATOM     16  C   UNL     1      10.433  13.728  17.936  0.00  0.00    +0.000 A 
ATOM     17  C   UNL     1       9.627  13.631  19.070  0.00  0.00    +0.000 A 
ATOM     18  C   UNL     1       9.235  12.379  19.546  0.00  0.00    +0.000 A 
ENDBRANCH  12  13
ENDBRANCH  11  12
ENDBRANCH   6  11
BRANCH   9  19
ATOM     19  C   UNL     1       5.298   3.714  18.295  0.00  0.00    +0.000 C 
BRANCH  19  20
ATOM     20  C   UNL     1       3.889   4.038  18.820  0.00  0.00    +0.000 C 
ATOM     21  O   UNL     1       2.878   3.672  18.218  0.00  0.00    +0.000 OA
ATOM     22  N   UNL     1       3.811   4.716  20.026  0.00  0.00    +0.000 N 
ATOM     23  H   UNL     1       4.566   5.333  20.314  0.00  0.00    +0.000 HD
BRANCH  22  24
ATOM     24  C   UNL     1       2.494   5.014  20.559  0.00  0.00    +0.000 C 
BRANCH  24  25
ATOM     25  C   UNL     1       1.983   6.427  20.354  0.00  0.00    +0.000 A 
ATOM     26  C   UNL     1       2.281   7.049  19.137  0.00  0.00    +0.000 A 
ATOM     27  C   UNL     1       1.879   8.379  18.966  0.00  0.00    +0.000 A 
ATOM     28  C   UNL     1       1.991   9.317  17.906  0.00  0.00    +0.000 A 
ATOM     29  C   UNL     1       1.404  10.483  18.328  0.00  0.00    +0.000 A 
ATOM     30  N   UNL     1       0.952  10.294  19.605  0.00  0.00    +0.000 N 
ATOM     31  C   UNL     1       1.227   9.006  20.022  0.00  0.00    +0.000 A 
ATOM     32  C   UNL     1       0.967   8.360  21.222  0.00  0.00    +0.000 A 
ATOM     33  N   UNL     1       1.354   7.065  21.377  0.00  0.00    +0.000 NA
ATOM     34  H   UNL     1       0.495  11.002  20.174  0.00  0.00    +0.000 HD
ENDBRANCH  24  25
ENDBRANCH  22  24
ENDBRANCH  19  20
ENDBRANCH   9  19
TORSDOF 7
ENDMDL
MODEL 3
REMARK VINA RESULT:      -8.1      0.943      1.623
REMARK  Name = 
REMARK  8 active torsions:
REMARK  status: ('A' for Active; 'I' for Inactive)
REMARK    1  A    between atoms: C_1  and  C_2
REMARK    2  A    between atoms: N_6  and  C_7
REMARK    3  A    between atoms: C_7  and  C_8
REMARK    4  A    between atoms: C_8  and  C_9
REMARK    5  A    between atoms: N_17  and  C_18
REMARK    6  A    between atoms: C_18  and  C_19
REMARK    7  A    between atoms: N_21  and  C_22
REMARK    8  A    between atoms: C_22  and  C_23
REMARK                            x       y       z     vdW  Elec       q    Type
REMARK                         _______ _______ _______ _____ _____    ______ ____
ROOT
ATOM      1  C   UNL     1       3.887   5.051  16.646  0.00  0.00    +0.000 C 
ATOM      2  C   UNL     1       5.108   5.650  17.283  0.00  0.00    +0.000 A 
ATOM      3  C   UNL     1       5.695   6.669  16.642  0.00  0.00    +0.000 A 
ATOM      4  N   UNL     1       6.807   7.343  17.042  0.00  0.00    +0.000 NA
ATOM      5  C   UNL     1       7.390   6.950  18.136  0.00  0.00    +0.000 A 
ATOM      6  N   UNL     1       8.546   7.595  18.540  0.00  0.00    +0.000 N 
ATOM      7  C   UNL     1       6.813   5.785  18.988  0.00  0.00    +0.000 A 
ATOM      8  O   UNL     1       7.390   5.470  20.024  0.00  0.00    +0.000 OA
ATOM      9  N   UNL     1       5.651   5.185  18.486  0.00  0.00    +0.000 N 
ATOM     10  H   UNL     1       9.045   7.204  19.332  0.00  0.00    +0.000 HD
ENDROOT
BRANCH   6  11
ATOM     11  C   UNL     1       8.737   9.000  18.195  0.00  0.00    +0.000 C 
BRANCH  11  12
ATOM     12  C   UNL     1       8.960   9.860  19.434  0.00  0.00    +0.000 C 
BRANCH  12  13
ATOM     13  C   UNL     1       9.932  10.986  19.167  0.00  0.00    +0.000 A 
ATOM     14  C   UNL     1      10.602  11.605  20.233  0.00  0.00    +0.000 A 
ATOM     15  C   UNL     1      11.498  12.649  19.997  0.00  0.00    +0.000 A 
ATOM     16  C   UNL     1      11.728  13.091  18.696  0.00  0.00    +0.000 A 
ATOM     17  C   UNL     1      11.057  12.494  17.630  0.00  0.00    +0.000 A 
ATOM     18  C   UNL     1      10.160  11.449  17.863  0.00  0.00    +0.000 A 
ENDBRANCH  12  13
ENDBRANCH  11  12
ENDBRANCH   6  11
BRANCH   9  19
ATOM     19  C   UNL     1       5.124   4.041  19.243  0.00  0.00    +0.000 C 
BRANCH  19  20
ATOM     20  C   UNL     1       3.717   4.216  19.839  0.00  0.00    +0.000 C 
ATOM     21  O   UNL     1       3.008   3.246  20.111  0.00  0.00    +0.000 OA
ATOM     22  N   UNL     1       3.306   5.513  20.103  0.00  0.00    +0.000 N 
ATOM     23  H   UNL     1       3.679   6.287  19.558  0.00  0.00    +0.000 HD
BRANCH  22  24
ATOM     24  C   UNL     1       1.992   5.709  20.689  0.00  0.00    +0.000 C 
BRANCH  24  25
ATOM     25  C   UNL     1       1.385   7.091  20.545  0.00  0.00    +0.000 A 
ATOM     26  C   UNL     1       1.834   7.884  19.484  0.00  0.00    +0.000 A 
ATOM     27  C   UNL     1       1.336   9.189  19.385  0.00  0.00    +0.000 A 
ATOM     28  C   UNL     1       1.542  10.260  18.477  0.00  0.00    +0.000 A 
ATOM     29  C   UNL     1       0.771  11.312  18.903  0.00  0.00    +0.000 A 
ATOM     30  N   UNL     1       0.115  10.926  20.040  0.00  0.00    +0.000 N 
ATOM     31  C   UNL     1       0.441   9.622  20.358  0.00  0.00    +0.000 A 
ATOM     32  C   UNL     1       0.034   8.810  21.407  0.00  0.00    +0.000 A 
ATOM     33  N   UNL     1       0.517   7.541  21.490  0.00  0.00    +0.000 NA
ATOM     34  H   UNL     1      -0.508  11.518  20.584  0.00  0.00    +0.000 HD
ENDBRANCH  24  25
ENDBRANCH  22  24
ENDBRANCH  19  20
ENDBRANCH   9  19
TORSDOF 7
ENDMDL
MODEL 4
REMARK VINA RESULT:      -8.1      4.429      6.050
REMARK  Name = 
REMARK  8 active torsions:
REMARK  status: ('A' for Active; 'I' for Inactive)
REMARK    1  A    between atoms: C_1  and  C_2
REMARK    2  A    between atoms: N_6  and  C_7
REMARK    3  A    between atoms: C_7  and  C_8
REMARK    4  A    between atoms: C_8  and  C_9
REMARK    5  A    between atoms: N_17  and  C_18
REMARK    6  A    between atoms: C_18  and  C_19
REMARK    7  A    between atoms: N_21  and  C_22
REMARK    8  A    between atoms: C_22  and  C_23
REMARK                            x       y       z     vdW  Elec       q    Type
REMARK                         _______ _______ _______ _____ _____    ______ ____
ROOT
ATOM      1  C   UNL     1       1.004   4.021  17.763  0.00  0.00    +0.000 C 
ATOM      2  C   UNL     1       2.480   4.235  17.931  0.00  0.00    +0.000 A 
ATOM      3  C   UNL     1       3.293   3.591  17.083  0.00  0.00    +0.000 A 
ATOM      4  N   UNL     1       4.652   3.643  17.069  0.00  0.00    +0.000 NA
ATOM      5  C   UNL     1       5.239   4.358  17.984  0.00  0.00    +0.000 A 
ATOM      6  N   UNL     1       6.622   4.391  18.012  0.00  0.00    +0.000 N 
ATOM      7  C   UNL     1       4.419   5.167  19.028  0.00  0.00    +0.000 A 
ATOM      8  O   UNL     1       5.023   5.844  19.854  0.00  0.00    +0.000 OA
ATOM      9  N   UNL     1       3.027   5.053  18.926  0.00  0.00    +0.000 N 
ATOM     10  H   UNL     1       7.060   4.863  18.797  0.00  0.00    +0.000 HD
ENDROOT
BRANCH   6  11
ATOM     11  C   UNL     1       7.366   4.229  16.769  0.00  0.00    +0.000 C 
BRANCH  11  12
ATOM     12  C   UNL     1       7.061   5.345  15.777  0.00  0.00    +0.000 C 
BRANCH  12  13
ATOM     13  C   UNL     1       6.958   4.826  14.361  0.00  0.00    +0.000 A 
ATOM     14  C   UNL     1       7.782   5.353  13.357  0.00  0.00    +0.000 A 
ATOM     15  C   UNL     1       7.690   4.884  12.045  0.00  0.00    +0.000 A 
ATOM     16  C   UNL     1       6.770   3.889  11.722  0.00  0.00    +0.000 A 
ATOM     17  C   UNL     1       5.935   3.368  12.709  0.00  0.00    +0.000 A 
ATOM     18  C   UNL     1       6.025   3.836  14.022  0.00  0.00    +0.000 A 
ENDBRANCH  12  13
ENDBRANCH  11  12
ENDBRANCH   6  11
BRANCH   9  19
ATOM     19  C   UNL     1       2.235   5.761  19.942  0.00  0.00    +0.000 C 
BRANCH  19  20
ATOM     20  C   UNL     1       2.105   7.283  19.757  0.00  0.00    +0.000 C 
ATOM     21  O   UNL     1       1.990   8.041  20.721  0.00  0.00    +0.000 OA
ATOM     22  N   UNL     1       2.174   7.763  18.459  0.00  0.00    +0.000 N 
ATOM     23  H   UNL     1       1.885   7.175  17.681  0.00  0.00    +0.000 HD
BRANCH  22  24
ATOM     24  C   UNL     1       2.078   9.197  18.254  0.00  0.00    +0.000 C 
BRANCH  24  25
ATOM     25  C   UNL     1       0.710   9.821  18.452  0.00  0.00    +0.000 A 
ATOM     26  C   UNL     1      -0.302   9.449  17.561  0.00  0.00    +0.000 A 
ATOM     27  C   UNL     1      -1.548  10.075  17.688  0.00  0.00    +0.000 A 
ATOM     28  C   UNL     1      -2.784   9.966  16.998  0.00  0.00    +0.000 A 
ATOM     29  C   UNL     1      -3.656  10.851  17.579  0.00  0.00    +0.000 A 
ATOM     30  N   UNL     1      -2.996  11.500  18.585  0.00  0.00    +0.000 N 
ATOM     31  C   UNL     1      -1.697  11.040  18.678  0.00  0.00    +0.000 A 
ATOM     32  C   UNL     1      -0.662  11.395  19.531  0.00  0.00    +0.000 A 
ATOM     33  N   UNL     1       0.543  10.776  19.406  0.00  0.00    +0.000 NA
ATOM     34  H   UNL     1      -3.396  12.230  19.170  0.00  0.00    +0.000 HD
ENDBRANCH  24  25
ENDBRANCH  22  24
ENDBRANCH  19  20
ENDBRANCH   9  19
TORSDOF 7
ENDMDL
MODEL 5
REMARK VINA RESULT:      -8.0      1.047      1.805
REMARK  Name = 
REMARK  8 active torsions:
REMARK  status: ('A' for Active; 'I' for Inactive)
REMARK    1  A    between atoms: C_1  and  C_2
REMARK    2  A    between atoms: N_6  and  C_7
REMARK    3  A    between atoms: C_7  and  C_8
REMARK    4  A    between atoms: C_8  and  C_9
REMARK    5  A    between atoms: N_17  and  C_18
REMARK    6  A    between atoms: C_18  and  C_19
REMARK    7  A    between atoms: N_21  and  C_22
REMARK    8  A    between atoms: C_22  and  C_23
REMARK                            x       y       z     vdW  Elec       q    Type
REMARK                         _______ _______ _______ _____ _____    ______ ____
ROOT
ATOM      1  C   UNL     1       5.240   4.628  15.816  0.00  0.00    +0.000 C 
ATOM      2  C   UNL     1       6.085   5.467  16.730  0.00  0.00    +0.000 A 
ATOM      3  C   UNL     1       6.618   6.584  16.218  0.00  0.00    +0.000 A 
ATOM      4  N   UNL     1       7.413   7.473  16.871  0.00  0.00    +0.000 NA
ATOM      5  C   UNL     1       7.725   7.211  18.106  0.00  0.00    +0.000 A 
ATOM      6  N   UNL     1       8.566   8.082  18.776  0.00  0.00    +0.000 N 
ATOM      7  C   UNL     1       7.169   5.954  18.831  0.00  0.00    +0.000 A 
ATOM      8  O   UNL     1       7.476   5.767  20.005  0.00  0.00    +0.000 OA
ATOM      9  N   UNL     1       6.341   5.126  18.063  0.00  0.00    +0.000 N 
ATOM     10  H   UNL     1       8.885   7.804  19.699  0.00  0.00    +0.000 HD
ENDROOT
BRANCH   6  11
ATOM     11  C   UNL     1       8.567   9.495  18.413  0.00  0.00    +0.000 C 
BRANCH  11  12
ATOM     12  C   UNL     1       9.923  10.143  18.669  0.00  0.00    +0.000 C 
BRANCH  12  13
ATOM     13  C   UNL     1       9.829  11.261  19.681  0.00  0.00    +0.000 A 
ATOM     14  C   UNL     1      10.396  12.512  19.403  0.00  0.00    +0.000 A 
ATOM     15  C   UNL     1      10.319  13.549  20.335  0.00  0.00    +0.000 A 
ATOM     16  C   UNL     1       9.681  13.345  21.556  0.00  0.00    +0.000 A 
ATOM     17  C   UNL     1       9.127  12.100  21.851  0.00  0.00    +0.000 A 
ATOM     18  C   UNL     1       9.203  11.061  20.921  0.00  0.00    +0.000 A 
ENDBRANCH  12  13
ENDBRANCH  11  12
ENDBRANCH   6  11
BRANCH   9  19
ATOM     19  C   UNL     1       5.856   3.900  18.711  0.00  0.00    +0.000 C 
BRANCH  19  20
ATOM     20  C   UNL     1       4.475   3.992  19.383  0.00  0.00    +0.000 C 
ATOM     21  O   UNL     1       3.943   3.008  19.898  0.00  0.00    +0.000 OA
ATOM     22  N   UNL     1       3.882   5.244  19.425  0.00  0.00    +0.000 N 
ATOM     23  H   UNL     1       4.098   5.935  18.710  0.00  0.00    +0.000 HD
BRANCH  22  24
ATOM     24  C   UNL     1       2.589   5.368  20.074  0.00  0.00    +0.000 C 
BRANCH  24  25
ATOM     25  C   UNL     1       1.961   6.747  20.076  0.00  0.00    +0.000 A 
ATOM     26  C   UNL     1       2.208   7.569  18.972  0.00  0.00    +0.000 A 
ATOM     27  C   UNL     1       1.695   8.872  18.997  0.00  0.00    +0.000 A 
ATOM     28  C   UNL     1       1.729   9.966  18.092  0.00  0.00    +0.000 A 
ATOM     29  C   UNL     1       1.044  11.001  18.677  0.00  0.00    +0.000 A 
ATOM     30  N   UNL     1       0.607  10.583  19.903  0.00  0.00    +0.000 N 
ATOM     31  C   UNL     1       0.990   9.275  20.126  0.00  0.00    +0.000 A 
ATOM     32  C   UNL     1       0.782   8.435  21.210  0.00  0.00    +0.000 A 
ATOM     33  N   UNL     1       1.277   7.168  21.174  0.00  0.00    +0.000 NA
ATOM     34  H   UNL     1       0.090  11.157  20.566  0.00  0.00    +0.000 HD
ENDBRANCH  24  25
ENDBRANCH  22  24
ENDBRANCH  19  20
ENDBRANCH   9  19
TORSDOF 7
ENDMDL
MODEL 6
REMARK VINA RESULT:      -8.0      5.921      9.766
REMARK  Name = 
REMARK  8 active torsions:
REMARK  status: ('A' for Active; 'I' for Inactive)
REMARK    1  A    between atoms: C_1  and  C_2
REMARK    2  A    between atoms: N_6  and  C_7
REMARK    3  A    between atoms: C_7  and  C_8
REMARK    4  A    between atoms: C_8  and  C_9
REMARK    5  A    between atoms: N_17  and  C_18
REMARK    6  A    between atoms: C_18  and  C_19
REMARK    7  A    between atoms: N_21  and  C_22
REMARK    8  A    between atoms: C_22  and  C_23
REMARK                            x       y       z     vdW  Elec       q    Type
REMARK                         _______ _______ _______ _____ _____    ______ ____
ROOT
ATOM      1  C   UNL     1      -0.654  13.754  19.301  0.00  0.00    +0.000 C 
ATOM      2  C   UNL     1      -0.120  12.389  19.625  0.00  0.00    +0.000 A 
ATOM      3  C   UNL     1       0.168  11.584  18.593  0.00  0.00    +0.000 A 
ATOM      4  N   UNL     1       0.653  10.315  18.669  0.00  0.00    +0.000 NA
ATOM      5  C   UNL     1       0.829   9.805  19.853  0.00  0.00    +0.000 A 
ATOM      6  N   UNL     1       1.283   8.502  19.952  0.00  0.00    +0.000 N 
ATOM      7  C   UNL     1       0.545  10.630  21.139  0.00  0.00    +0.000 A 
ATOM      8  O   UNL     1       0.751  10.109  22.231  0.00  0.00    +0.000 OA
ATOM      9  N   UNL     1       0.072  11.933  20.933  0.00  0.00    +0.000 N 
ATOM     10  H   UNL     1       1.308   8.087  20.878  0.00  0.00    +0.000 HD
ENDROOT
BRANCH   6  11
ATOM     11  C   UNL     1       2.138   7.962  18.902  0.00  0.00    +0.000 C 
BRANCH  11  12
ATOM     12  C   UNL     1       3.009   6.820  19.413  0.00  0.00    +0.000 C 
BRANCH  12  13
ATOM     13  C   UNL     1       2.273   5.501  19.395  0.00  0.00    +0.000 A 
ATOM     14  C   UNL     1       1.804   4.939  20.591  0.00  0.00    +0.000 A 
ATOM     15  C   UNL     1       1.128   3.718  20.584  0.00  0.00    +0.000 A 
ATOM     16  C   UNL     1       0.919   3.041  19.384  0.00  0.00    +0.000 A 
ATOM     17  C   UNL     1       1.395   3.582  18.190  0.00  0.00    +0.000 A 
ATOM     18  C   UNL     1       2.072   4.804  18.194  0.00  0.00    +0.000 A 
ENDBRANCH  12  13
ENDBRANCH  11  12
ENDBRANCH   6  11
BRANCH   9  19
ATOM     19  C   UNL     1      -0.261  12.707  22.137  0.00  0.00    +0.000 C 
BRANCH  19  20
ATOM     20  C   UNL     1      -1.693  12.541  22.671  0.00  0.00    +0.000 C 
ATOM     21  O   UNL     1      -2.021  11.559  23.339  0.00  0.00    +0.000 OA
ATOM     22  N   UNL     1      -2.583  13.571  22.410  0.00  0.00    +0.000 N 
ATOM     23  H   UNL     1      -2.460  14.154  21.585  0.00  0.00    +0.000 HD
BRANCH  22  24
ATOM     24  C   UNL     1      -3.936  13.454  22.923  0.00  0.00    +0.000 C 
BRANCH  24  25
ATOM     25  C   UNL     1      -4.963  12.839  21.992  0.00  0.00    +0.000 A 
ATOM     26  C   UNL     1      -4.652  12.794  20.629  0.00  0.00    +0.000 A 
ATOM     27  C   UNL     1      -5.623  12.298  19.751  0.00  0.00    +0.000 A 
ATOM     28  C   UNL     1      -5.677  12.097  18.347  0.00  0.00    +0.000 A 
ATOM     29  C   UNL     1      -6.912  11.576  18.056  0.00  0.00    +0.000 A 
ATOM     30  N   UNL     1      -7.614  11.465  19.224  0.00  0.00    +0.000 N 
ATOM     31  C   UNL     1      -6.843  11.898  20.285  0.00  0.00    +0.000 A 
ATOM     32  C   UNL     1      -7.121  11.976  21.643  0.00  0.00    +0.000 A 
ATOM     33  N   UNL     1      -6.168  12.452  22.490  0.00  0.00    +0.000 NA
ATOM     34  H   UNL     1      -8.571  11.129  19.302  0.00  0.00    +0.000 HD
ENDBRANCH  24  25
ENDBRANCH  22  24
ENDBRANCH  19  20
ENDBRANCH   9  19
TORSDOF 7
ENDMDL
MODEL 7
REMARK VINA RESULT:      -7.9      4.383      6.204
REMARK  Name = 
REMARK  8 active torsions:
REMARK  status: ('A' for Active; 'I' for Inactive)
REMARK    1  A    between atoms: C_1  and  C_2
REMARK    2  A    between atoms: N_6  and  C_7
REMARK    3  A    between atoms: C_7  and  C_8
REMARK    4  A    between atoms: C_8  and  C_9
REMARK    5  A    between atoms: N_17  and  C_18
REMARK    6  A    between atoms: C_18  and  C_19
REMARK    7  A    between atoms: N_21  and  C_22
REMARK    8  A    between atoms: C_22  and  C_23
REMARK                            x       y       z     vdW  Elec       q    Type
REMARK                         _______ _______ _______ _____ _____    ______ ____
ROOT
ATOM      1  C   UNL     1       0.996   4.242  17.642  0.00  0.00    +0.000 C 
ATOM      2  C   UNL     1       2.474   4.421  17.836  0.00  0.00    +0.000 A 
ATOM      3  C   UNL     1       3.286   3.680  17.070  0.00  0.00    +0.000 A 
ATOM      4  N   UNL     1       4.646   3.686  17.092  0.00  0.00    +0.000 NA
ATOM      5  C   UNL     1       5.233   4.456  17.961  0.00  0.00    +0.000 A 
ATOM      6  N   UNL     1       6.614   4.446  18.029  0.00  0.00    +0.000 N 
ATOM      7  C   UNL     1       4.414   5.378  18.908  0.00  0.00    +0.000 A 
ATOM      8  O   UNL     1       5.019   6.103  19.693  0.00  0.00    +0.000 OA
ATOM      9  N   UNL     1       3.022   5.302  18.775  0.00  0.00    +0.000 N 
ATOM     10  H   UNL     1       7.048   4.968  18.784  0.00  0.00    +0.000 HD
ENDROOT
BRANCH   6  11
ATOM     11  C   UNL     1       7.386   4.153  16.826  0.00  0.00    +0.000 C 
BRANCH  11  12
ATOM     12  C   UNL     1       7.327   5.300  15.823  0.00  0.00    +0.000 C 
BRANCH  12  13
ATOM     13  C   UNL     1       7.069   4.803  14.419  0.00  0.00    +0.000 A 
ATOM     14  C   UNL     1       6.084   3.834  14.185  0.00  0.00    +0.000 A 
ATOM     15  C   UNL     1       5.843   3.366  12.892  0.00  0.00    +0.000 A 
ATOM     16  C   UNL     1       6.588   3.854  11.821  0.00  0.00    +0.000 A 
ATOM     17  C   UNL     1       7.581   4.807  12.044  0.00  0.00    +0.000 A 
ATOM     18  C   UNL     1       7.825   5.277  13.336  0.00  0.00    +0.000 A 
ENDBRANCH  12  13
ENDBRANCH  11  12
ENDBRANCH   6  11
BRANCH   9  19
ATOM     19  C   UNL     1       2.229   6.120  19.703  0.00  0.00    +0.000 C 
BRANCH  19  20
ATOM     20  C   UNL     1       2.155   7.623  19.385  0.00  0.00    +0.000 C 
ATOM     21  O   UNL     1       2.729   8.102  18.406  0.00  0.00    +0.000 OA
ATOM     22  N   UNL     1       1.372   8.402  20.222  0.00  0.00    +0.000 N 
ATOM     23  H   UNL     1       1.228   8.125  21.189  0.00  0.00    +0.000 HD
BRANCH  22  24
ATOM     24  C   UNL     1       1.263   9.821  19.932  0.00  0.00    +0.000 C 
BRANCH  24  25
ATOM     25  C   UNL     1      -0.080  10.308  19.425  0.00  0.00    +0.000 A 
ATOM     26  C   UNL     1      -0.479   9.888  18.152  0.00  0.00    +0.000 A 
ATOM     27  C   UNL     1      -1.683  10.391  17.643  0.00  0.00    +0.000 A 
ATOM     28  C   UNL     1      -2.400  10.202  16.433  0.00  0.00    +0.000 A 
ATOM     29  C   UNL     1      -3.531  10.977  16.503  0.00  0.00    +0.000 A 
ATOM     30  N   UNL     1      -3.521  11.637  17.701  0.00  0.00    +0.000 N 
ATOM     31  C   UNL     1      -2.397  11.292  18.425  0.00  0.00    +0.000 A 
ATOM     32  C   UNL     1      -1.957  11.700  19.677  0.00  0.00    +0.000 A 
ATOM     33  N   UNL     1      -0.791  11.199  20.167  0.00  0.00    +0.000 NA
ATOM     34  H   UNL     1      -4.228  12.300  18.008  0.00  0.00    +0.000 HD
ENDBRANCH  24  25
ENDBRANCH  22  24
ENDBRANCH  19  20
ENDBRANCH   9  19
TORSDOF 7
ENDMDL
MODEL 8
REMARK VINA RESULT:      -7.9      5.188     10.725
REMARK  Name = 
REMARK  8 active torsions:
REMARK  status: ('A' for Active; 'I' for Inactive)
REMARK    1  A    between atoms: C_1  and  C_2
REMARK    2  A    between atoms: N_6  and  C_7
REMARK    3  A    between atoms: C_7  and  C_8
REMARK    4  A    between atoms: C_8  and  C_9
REMARK    5  A    between atoms: N_17  and  C_18
REMARK    6  A    between atoms: C_18  and  C_19
REMARK    7  A    between atoms: N_21  and  C_22
REMARK    8  A    between atoms: C_22  and  C_23
REMARK                            x       y       z     vdW  Elec       q    Type
REMARK                         _______ _______ _______ _____ _____    ______ ____
ROOT
ATOM      1  C   UNL     1       1.260  10.114  18.530  0.00  0.00    +0.000 C 
ATOM      2  C   UNL     1       0.384  10.894  19.467  0.00  0.00    +0.000 A 
ATOM      3  C   UNL     1      -0.410  11.828  18.928  0.00  0.00    +0.000 A 
ATOM      4  N   UNL     1      -1.269  12.644  19.597  0.00  0.00    +0.000 NA
ATOM      5  C   UNL     1      -1.311  12.543  20.893  0.00  0.00    +0.000 A 
ATOM      6  N   UNL     1      -2.147  13.392  21.597  0.00  0.00    +0.000 N 
ATOM      7  C   UNL     1      -0.450  11.495  21.652  0.00  0.00    +0.000 A 
ATOM      8  O   UNL     1      -0.546  11.426  22.874  0.00  0.00    +0.000 OA
ATOM      9  N   UNL     1       0.377  10.696  20.852  0.00  0.00    +0.000 N 
ATOM     10  H   UNL     1      -2.084  13.373  22.610  0.00  0.00    +0.000 HD
ENDROOT
BRANCH   6  11
ATOM     11  C   UNL     1      -3.369  13.877  20.964  0.00  0.00    +0.000 C 
BRANCH  11  12
ATOM     12  C   UNL     1      -4.610  13.209  21.545  0.00  0.00    +0.000 C 
BRANCH  12  13
ATOM     13  C   UNL     1      -5.333  12.374  20.514  0.00  0.00    +0.000 A 
ATOM     14  C   UNL     1      -4.794  12.221  19.229  0.00  0.00    +0.000 A 
ATOM     15  C   UNL     1      -5.457  11.456  18.268  0.00  0.00    +0.000 A 
ATOM     16  C   UNL     1      -6.669  10.842  18.578  0.00  0.00    +0.000 A 
ATOM     17  C   UNL     1      -7.222  11.000  19.848  0.00  0.00    +0.000 A 
ATOM     18  C   UNL     1      -6.561  11.764  20.811  0.00  0.00    +0.000 A 
ENDBRANCH  12  13
ENDBRANCH  11  12
ENDBRANCH   6  11
BRANCH   9  19
ATOM     19  C   UNL     1       1.245   9.741  21.556  0.00  0.00    +0.000 C 
BRANCH  19  20
ATOM     20  C   UNL     1       0.937   8.252  21.325  0.00  0.00    +0.000 C 
ATOM     21  O   UNL     1      -0.200   7.799  21.473  0.00  0.00    +0.000 OA
ATOM     22  N   UNL     1       1.985   7.455  20.894  0.00  0.00    +0.000 N 
ATOM     23  H   UNL     1       2.943   7.698  21.134  0.00  0.00    +0.000 HD
BRANCH  22  24
ATOM     24  C   UNL     1       1.719   6.050  20.643  0.00  0.00    +0.000 C 
BRANCH  24  25
ATOM     25  C   UNL     1       2.728   5.311  19.786  0.00  0.00    +0.000 A 
ATOM     26  C   UNL     1       3.198   5.960  18.641  0.00  0.00    +0.000 A 
ATOM     27  C   UNL     1       4.072   5.258  17.802  0.00  0.00    +0.000 A 
ATOM     28  C   UNL     1       4.745   5.570  16.591  0.00  0.00    +0.000 A 
ATOM     29  C   UNL     1       5.472   4.464  16.231  0.00  0.00    +0.000 A 
ATOM     30  N   UNL     1       5.258   3.491  17.167  0.00  0.00    +0.000 N 
ATOM     31  C   UNL     1       4.404   3.953  18.148  0.00  0.00    +0.000 A 
ATOM     32  C   UNL     1       3.900   3.336  19.285  0.00  0.00    +0.000 A 
ATOM     33  N   UNL     1       3.058   4.028  20.099  0.00  0.00    +0.000 NA
ATOM     34  H   UNL     1       5.655   2.554  17.138  0.00  0.00    +0.000 HD
ENDBRANCH  24  25
ENDBRANCH  22  24
ENDBRANCH  19  20
ENDBRANCH   9  19
TORSDOF 7
ENDMDL
MODEL 9
REMARK VINA RESULT:      -7.8      3.978      7.225
REMARK  Name = 
REMARK  8 active torsions:
REMARK  status: ('A' for Active; 'I' for Inactive)
REMARK    1  A    between atoms: C_1  and  C_2
REMARK    2  A    between atoms: N_6  and  C_7
REMARK    3  A    between atoms: C_7  and  C_8
REMARK    4  A    between atoms: C_8  and  C_9
REMARK    5  A    between atoms: N_17  and  C_18
REMARK    6  A    between atoms: C_18  and  C_19
REMARK    7  A    between atoms: N_21  and  C_22
REMARK    8  A    between atoms: C_22  and  C_23
REMARK                            x       y       z     vdW  Elec       q    Type
REMARK                         _______ _______ _______ _____ _____    ______ ____
ROOT
ATOM      1  C   UNL     1       0.684   9.108  21.680  0.00  0.00    +0.000 C 
ATOM      2  C   UNL     1       1.317   8.391  20.523  0.00  0.00    +0.000 A 
ATOM      3  C   UNL     1       1.669   7.112  20.714  0.00  0.00    +0.000 A 
ATOM      4  N   UNL     1       2.258   6.291  19.803  0.00  0.00    +0.000 NA
ATOM      5  C   UNL     1       2.547   6.791  18.637  0.00  0.00    +0.000 A 
ATOM      6  N   UNL     1       3.183   5.985  17.710  0.00  0.00    +0.000 N 
ATOM      7  C   UNL     1       2.187   8.259  18.275  0.00  0.00    +0.000 A 
ATOM      8  O   UNL     1       2.460   8.673  17.152  0.00  0.00    +0.000 OA
ATOM      9  N   UNL     1       1.560   8.998  19.286  0.00  0.00    +0.000 N 
ATOM     10  H   UNL     1       3.498   6.424  16.850  0.00  0.00    +0.000 HD
ENDROOT
BRANCH   6  11
ATOM     11  C   UNL     1       2.952   4.545  17.737  0.00  0.00    +0.000 C 
BRANCH  11  12
ATOM     12  C   UNL     1       4.258   3.761  17.688  0.00  0.00    +0.000 C 
BRANCH  12  13
ATOM     13  C   UNL     1       5.460   4.664  17.842  0.00  0.00    +0.000 A 
ATOM     14  C   UNL     1       6.007   4.898  19.111  0.00  0.00    +0.000 A 
ATOM     15  C   UNL     1       7.114   5.735  19.264  0.00  0.00    +0.000 A 
ATOM     16  C   UNL     1       7.682   6.352  18.151  0.00  0.00    +0.000 A 
ATOM     17  C   UNL     1       7.137   6.139  16.886  0.00  0.00    +0.000 A 
ATOM     18  C   UNL     1       6.029   5.303  16.730  0.00  0.00    +0.000 A 
ENDBRANCH  12  13
ENDBRANCH  11  12
ENDBRANCH   6  11
BRANCH   9  19
ATOM     19  C   UNL     1       1.268  10.406  18.984  0.00  0.00    +0.000 C 
BRANCH  19  20
ATOM     20  C   UNL     1      -0.188  10.728  18.608  0.00  0.00    +0.000 C 
ATOM     21  O   UNL     1      -0.857   9.963  17.912  0.00  0.00    +0.000 OA
ATOM     22  N   UNL     1      -0.728  11.892  19.132  0.00  0.00    +0.000 N 
ATOM     23  H   UNL     1      -0.123  12.678  19.358  0.00  0.00    +0.000 HD
BRANCH  22  24
ATOM     24  C   UNL     1      -2.109  12.210  18.814  0.00  0.00    +0.000 C 
BRANCH  24  25
ATOM     25  C   UNL     1      -3.037  12.443  19.990  0.00  0.00    +0.000 A 
ATOM     26  C   UNL     1      -2.487  12.362  21.272  0.00  0.00    +0.000 A 
ATOM     27  C   UNL     1      -3.349  12.502  22.366  0.00  0.00    +0.000 A 
ATOM     28  C   UNL     1      -3.171  12.485  23.775  0.00  0.00    +0.000 A 
ATOM     29  C   UNL     1      -4.405  12.672  24.345  0.00  0.00    +0.000 A 
ATOM     30  N   UNL     1      -5.325  12.789  23.340  0.00  0.00    +0.000 N 
ATOM     31  C   UNL     1      -4.703  12.692  22.111  0.00  0.00    +0.000 A 
ATOM     32  C   UNL     1      -5.214  12.747  20.822  0.00  0.00    +0.000 A 
ATOM     33  N   UNL     1      -4.368  12.619  19.765  0.00  0.00    +0.000 NA
ATOM     34  H   UNL     1      -6.326  12.911  23.475  0.00  0.00    +0.000 HD
ENDBRANCH  24  25
ENDBRANCH  22  24
ENDBRANCH  19  20
ENDBRANCH   9  19
TORSDOF 7
ENDMDL
