MODEL 1
REMARK VINA RESULT:      -9.4      0.000      0.000
REMARK  Name = 
REMARK  5 active torsions:
REMARK  status: ('A' for Active; 'I' for Inactive)
REMARK    1  A    between atoms: C_2  and  C_15
REMARK    2  A    between atoms: N_3  and  C_4
REMARK    3  A    between atoms: C_9  and  C_10
REMARK    4  A    between atoms: C_20  and  C_21
REMARK    5  A    between atoms: C_21  and  N_22
REMARK                            x       y       z     vdW  Elec       q    Type
REMARK                         _______ _______ _______ _____ _____    ______ ____
ROOT
ATOM      1  C   UNL     1       3.051   3.688  18.969  0.00  0.00    +0.000 A 
ATOM      2  C   UNL     1       2.442   2.418  18.847  0.00  0.00    +0.000 A 
ATOM      3  C   UNL     1       1.242   2.117  19.495  0.00  0.00    +0.000 A 
ATOM      4  C   UNL     1       0.636   3.073  20.293  0.00  0.00    +0.000 A 
ATOM      5  C   UNL     1       1.235   4.322  20.454  0.00  0.00    +0.000 A 
ATOM      6  C   UNL     1       2.454   4.653  19.815  0.00  0.00    +0.000 A 
ENDROOT
BRANCH   1   8
ATOM      7  O   UNL     1       5.411   3.670  18.828  0.00  0.00    +0.000 OA
ATOM      8  C   UNL     1       4.359   3.903  18.248  0.00  0.00    +0.000 C 
ATOM      9  N   UNL     1       4.252   4.354  16.933  0.00  0.00    +0.000 N 
ATOM     10  H   UNL     1       3.333   4.631  16.616  0.00  0.00    +0.000 HD
BRANCH   9  11
ATOM     11  C   UNL     1       5.295   4.565  16.000  0.00  0.00    +0.000 A 
ATOM     12  C   UNL     1       6.421   5.339  16.256  0.00  0.00    +0.000 A 
ATOM     13  C   UNL     1       7.360   5.576  15.246  0.00  0.00    +0.000 A 
ATOM     14  C   UNL     1       7.202   5.026  13.971  0.00  0.00    +0.000 A 
ATOM     15 CL   UNL     1       8.392   5.453  12.797  0.00  0.00    +0.000 Cl
ATOM     16  C   UNL     1       6.115   4.193  13.700  0.00  0.00    +0.000 A 
ATOM     17  C   UNL     1       5.172   3.969  14.736  0.00  0.00    +0.000 A 
BRANCH  16  18
ATOM     18  C   UNL     1       5.878   3.506  12.378  0.00  0.00    +0.000 C 
ATOM     19  F   UNL     1       4.650   3.656  11.821  0.00  0.00    +0.000 F 
ATOM     20  F   UNL     1       6.764   3.926  11.428  0.00  0.00    +0.000 F 
ATOM     21  F   UNL     1       6.068   2.157  12.471  0.00  0.00    +0.000 F 
ENDBRANCH  16  18
ENDBRANCH   9  11
ENDBRANCH   1   8
BRANCH   6  22
ATOM     22  C   UNL     1       3.041   6.013  20.155  0.00  0.00    +0.000 C 
BRANCH  22  23
ATOM     23  N   UNL     1       2.244   7.152  19.646  0.00  0.00    +0.000 N 
ATOM     24  C   UNL     1       2.403   7.587  18.324  0.00  0.00    +0.000 A 
ATOM     25  C   UNL     1       1.959   8.754  17.825  0.00  0.00    +0.000 A 
ATOM     26  C   UNL     1       1.274   9.634  18.780  0.00  0.00    +0.000 A 
ATOM     27  N   UNL     1       0.789  10.828  18.646  0.00  0.00    +0.000 NA
ATOM     28  C   UNL     1       0.300  11.112  19.918  0.00  0.00    +0.000 A 
ATOM     29  N   UNL     1       0.433  10.189  20.830  0.00  0.00    +0.000 NA
ATOM     30  C   UNL     1       1.074   9.190  20.161  0.00  0.00    +0.000 A 
ATOM     31  C   UNL     1       1.554   8.000  20.528  0.00  0.00    +0.000 A 
ENDBRANCH  22  23
ENDBRANCH   6  22
TORSDOF 5
ENDMDL
MODEL 2
REMARK VINA RESULT:      -9.0      1.022      1.108
REMARK  Name = 
REMARK  5 active torsions:
REMARK  status: ('A' for Active; 'I' for Inactive)
REMARK    1  A    between atoms: C_2  and  C_15
REMARK    2  A    between atoms: N_3  and  C_4
REMARK    3  A    between atoms: C_9  and  C_10
REMARK    4  A    between atoms: C_20  and  C_21
REMARK    5  A    between atoms: C_21  and  N_22
REMARK                            x       y       z     vdW  Elec       q    Type
REMARK                         _______ _______ _______ _____ _____    ______ ____
ROOT
ATOM      1  C   UNL     1       2.439   4.406  18.482  0.00  0.00    +0.000 A 
ATOM      2  C   UNL     1       1.875   3.141  18.202  0.00  0.00    +0.000 A 
ATOM      3  C   UNL     1       0.976   2.530  19.077  0.00  0.00    +0.000 A 
ATOM      4  C   UNL     1       0.635   3.163  20.262  0.00  0.00    +0.000 A 
ATOM      5  C   UNL     1       1.204   4.397  20.575  0.00  0.00    +0.000 A 
ATOM      6  C   UNL     1       2.123   5.037  19.710  0.00  0.00    +0.000 A 
ENDROOT
BRANCH   1   8
ATOM      7  O   UNL     1       3.433   6.172  17.265  0.00  0.00    +0.000 OA
ATOM      8  C   UNL     1       3.420   4.968  17.482  0.00  0.00    +0.000 C 
ATOM      9  N   UNL     1       4.264   4.036  16.881  0.00  0.00    +0.000 N 
ATOM     10  H   UNL     1       4.064   3.059  17.051  0.00  0.00    +0.000 HD
BRANCH   9  11
ATOM     11  C   UNL     1       5.322   4.281  15.975  0.00  0.00    +0.000 A 
ATOM     12  C   UNL     1       6.492   4.953  16.309  0.00  0.00    +0.000 A 
ATOM     13  C   UNL     1       7.448   5.238  15.328  0.00  0.00    +0.000 A 
ATOM     14  C   UNL     1       7.264   4.836  14.002  0.00  0.00    +0.000 A 
ATOM     15 CL   UNL     1       8.483   5.311  12.879  0.00  0.00    +0.000 Cl
ATOM     16  C   UNL     1       6.130   4.103  13.646  0.00  0.00    +0.000 A 
ATOM     17  C   UNL     1       5.169   3.829  14.654  0.00  0.00    +0.000 A 
BRANCH  16  18
ATOM     18  C   UNL     1       5.858   3.576  12.260  0.00  0.00    +0.000 C 
ATOM     19  F   UNL     1       4.568   3.588  11.841  0.00  0.00    +0.000 F 
ATOM     20  F   UNL     1       6.557   4.268  11.313  0.00  0.00    +0.000 F 
ATOM     21  F   UNL     1       6.267   2.280  12.127  0.00  0.00    +0.000 F 
ENDBRANCH  16  18
ENDBRANCH   9  11
ENDBRANCH   1   8
BRANCH   6  22
ATOM     22  C   UNL     1       2.736   6.331  20.221  0.00  0.00    +0.000 C 
BRANCH  22  23
ATOM     23  N   UNL     1       1.833   7.499  20.121  0.00  0.00    +0.000 N 
ATOM     24  C   UNL     1       1.840   8.296  18.969  0.00  0.00    +0.000 A 
ATOM     25  C   UNL     1       1.287   9.517  18.859  0.00  0.00    +0.000 A 
ATOM     26  C   UNL     1       0.653  10.040  20.076  0.00  0.00    +0.000 A 
ATOM     27  N   UNL     1       0.093  11.182  20.325  0.00  0.00    +0.000 NA
ATOM     28  C   UNL     1      -0.284  11.061  21.659  0.00  0.00    +0.000 A 
ATOM     29  N   UNL     1      -0.013   9.935  22.259  0.00  0.00    +0.000 NA
ATOM     30  C   UNL     1       0.611   9.215  21.285  0.00  0.00    +0.000 A 
ATOM     31  C   UNL     1       1.189   8.012  21.259  0.00  0.00    +0.000 A 
ENDBRANCH  22  23
ENDBRANCH   6  22
TORSDOF 5
ENDMDL
MODEL 3
REMARK VINA RESULT:      -9.0      4.731      7.639
REMARK  Name = 
REMARK  5 active torsions:
REMARK  status: ('A' for Active; 'I' for Inactive)
REMARK    1  A    between atoms: C_2  and  C_15
REMARK    2  A    between atoms: N_3  and  C_4
REMARK    3  A    between atoms: C_9  and  C_10
REMARK    4  A    between atoms: C_20  and  C_21
REMARK    5  A    between atoms: C_21  and  N_22
REMARK                            x       y       z     vdW  Elec       q    Type
REMARK                         _______ _______ _______ _____ _____    ______ ____
ROOT
ATOM      1  C   UNL     1       5.236   5.772  16.270  0.00  0.00    +0.000 A 
ATOM      2  C   UNL     1       5.384   6.039  14.890  0.00  0.00    +0.000 A 
ATOM      3  C   UNL     1       5.874   5.076  14.007  0.00  0.00    +0.000 A 
ATOM      4  C   UNL     1       6.243   3.830  14.487  0.00  0.00    +0.000 A 
ATOM      5  C   UNL     1       6.136   3.554  15.849  0.00  0.00    +0.000 A 
ATOM      6  C   UNL     1       5.650   4.514  16.770  0.00  0.00    +0.000 A 
ENDROOT
BRANCH   1   8
ATOM      7  O   UNL     1       5.516   7.666  17.657  0.00  0.00    +0.000 OA
ATOM      8  C   UNL     1       4.721   6.890  17.144  0.00  0.00    +0.000 C 
ATOM      9  N   UNL     1       3.336   6.951  17.285  0.00  0.00    +0.000 N 
ATOM     10  H   UNL     1       2.802   6.176  16.916  0.00  0.00    +0.000 HD
BRANCH   9  11
ATOM     11  C   UNL     1       2.576   7.928  17.972  0.00  0.00    +0.000 A 
ATOM     12  C   UNL     1       2.281   9.186  17.459  0.00  0.00    +0.000 A 
ATOM     13  C   UNL     1       1.605  10.127  18.241  0.00  0.00    +0.000 A 
ATOM     14  C   UNL     1       1.191   9.822  19.541  0.00  0.00    +0.000 A 
ATOM     15 CL   UNL     1       0.431  11.093  20.425  0.00  0.00    +0.000 Cl
ATOM     16  C   UNL     1       1.416   8.546  20.063  0.00  0.00    +0.000 A 
ATOM     17  C   UNL     1       2.108   7.607  19.255  0.00  0.00    +0.000 A 
BRANCH  16  18
ATOM     18  C   UNL     1       0.966   8.095  21.430  0.00  0.00    +0.000 C 
ATOM     19  F   UNL     1       1.463   8.773  22.495  0.00  0.00    +0.000 F 
ATOM     20  F   UNL     1      -0.392   8.157  21.559  0.00  0.00    +0.000 F 
ATOM     21  F   UNL     1       1.284   6.787  21.657  0.00  0.00    +0.000 F 
ENDBRANCH  16  18
ENDBRANCH   9  11
ENDBRANCH   1   8
BRANCH   6  22
ATOM     22  C   UNL     1       5.677   4.112  18.236  0.00  0.00    +0.000 C 
BRANCH  22  23
ATOM     23  N   UNL     1       4.404   3.531  18.718  0.00  0.00    +0.000 N 
ATOM     24  C   UNL     1       3.252   3.604  17.925  0.00  0.00    +0.000 A 
ATOM     25  C   UNL     1       1.996   3.372  18.345  0.00  0.00    +0.000 A 
ATOM     26  C   UNL     1       1.853   3.039  19.768  0.00  0.00    +0.000 A 
ATOM     27  N   UNL     1       0.801   2.823  20.494  0.00  0.00    +0.000 NA
ATOM     28  C   UNL     1       1.336   2.587  21.757  0.00  0.00    +0.000 A 
ATOM     29  N   UNL     1       2.634   2.630  21.875  0.00  0.00    +0.000 NA
ATOM     30  C   UNL     1       3.045   2.932  20.612  0.00  0.00    +0.000 A 
ATOM     31  C   UNL     1       4.239   3.176  20.067  0.00  0.00    +0.000 A 
ENDBRANCH  22  23
ENDBRANCH   6  22
TORSDOF 5
ENDMDL
MODEL 4
REMARK VINA RESULT:      -8.9      0.884      1.127
REMARK  Name = 
REMARK  5 active torsions:
REMARK  status: ('A' for Active; 'I' for Inactive)
REMARK    1  A    between atoms: C_2  and  C_15
REMARK    2  A    between atoms: N_3  and  C_4
REMARK    3  A    between atoms: C_9  and  C_10
REMARK    4  A    between atoms: C_20  and  C_21
REMARK    5  A    between atoms: C_21  and  N_22
REMARK                            x       y       z     vdW  Elec       q    Type
REMARK                         _______ _______ _______ _____ _____    ______ ____
ROOT
ATOM      1  C   UNL     1       2.680   3.472  18.663  0.00  0.00    +0.000 A 
ATOM      2  C   UNL     1       2.073   2.211  18.863  0.00  0.00    +0.000 A 
ATOM      3  C   UNL     1       1.437   1.889  20.063  0.00  0.00    +0.000 A 
ATOM      4  C   UNL     1       1.409   2.812  21.095  0.00  0.00    +0.000 A 
ATOM      5  C   UNL     1       2.029   4.050  20.932  0.00  0.00    +0.000 A 
ATOM      6  C   UNL     1       2.688   4.403  19.730  0.00  0.00    +0.000 A 
ENDROOT
BRANCH   1   8
ATOM      7  O   UNL     1       2.692   3.769  16.317  0.00  0.00    +0.000 OA
ATOM      8  C   UNL     1       3.364   3.712  17.339  0.00  0.00    +0.000 C 
ATOM      9  N   UNL     1       4.747   3.866  17.398  0.00  0.00    +0.000 N 
ATOM     10  H   UNL     1       5.194   3.669  18.283  0.00  0.00    +0.000 HD
BRANCH   9  11
ATOM     11  C   UNL     1       5.632   4.177  16.338  0.00  0.00    +0.000 A 
ATOM     12  C   UNL     1       6.784   4.941  16.485  0.00  0.00    +0.000 A 
ATOM     13  C   UNL     1       7.553   5.283  15.368  0.00  0.00    +0.000 A 
ATOM     14  C   UNL     1       7.200   4.848  14.088  0.00  0.00    +0.000 A 
ATOM     15 CL   UNL     1       8.192   5.397  12.788  0.00  0.00    +0.000 Cl
ATOM     16  C   UNL     1       6.084   4.025  13.914  0.00  0.00    +0.000 A 
ATOM     17  C   UNL     1       5.314   3.695  15.059  0.00  0.00    +0.000 A 
BRANCH  16  18
ATOM     18  C   UNL     1       5.645   3.458  12.587  0.00  0.00    +0.000 C 
ATOM     19  F   UNL     1       5.799   2.121  12.412  0.00  0.00    +0.000 F 
ATOM     20  F   UNL     1       4.326   3.709  12.345  0.00  0.00    +0.000 F 
ATOM     21  F   UNL     1       6.314   4.036  11.547  0.00  0.00    +0.000 F 
ENDBRANCH  16  18
ENDBRANCH   9  11
ENDBRANCH   1   8
BRANCH   6  22
ATOM     22  C   UNL     1       3.402   5.745  19.724  0.00  0.00    +0.000 C 
BRANCH  22  23
ATOM     23  N   UNL     1       2.528   6.884  19.363  0.00  0.00    +0.000 N 
ATOM     24  C   UNL     1       2.619   7.465  18.092  0.00  0.00    +0.000 A 
ATOM     25  C   UNL     1       2.097   8.652  17.734  0.00  0.00    +0.000 A 
ATOM     26  C   UNL     1       1.400   9.386  18.797  0.00  0.00    +0.000 A 
ATOM     27  N   UNL     1       0.847  10.558  18.805  0.00  0.00    +0.000 NA
ATOM     28  C   UNL     1       0.388  10.678  20.114  0.00  0.00    +0.000 A 
ATOM     29  N   UNL     1       0.600   9.673  20.918  0.00  0.00    +0.000 NA
ATOM     30  C   UNL     1       1.270   8.788  20.127  0.00  0.00    +0.000 A 
ATOM     31  C   UNL     1       1.825   7.595  20.350  0.00  0.00    +0.000 A 
ENDBRANCH  22  23
ENDBRANCH   6  22
TORSDOF 5
ENDMDL
MODEL 5
REMARK VINA RESULT:      -8.7      4.521      7.531
REMARK  Name = 
REMARK  5 active torsions:
REMARK  status: ('A' for Active; 'I' for Inactive)
REMARK    1  A    between atoms: C_2  and  C_15
REMARK    2  A    between atoms: N_3  and  C_4
REMARK    3  A    between atoms: C_9  and  C_10
REMARK    4  A    between atoms: C_20  and  C_21
REMARK    5  A    between atoms: C_21  and  N_22
REMARK                            x       y       z     vdW  Elec       q    Type
REMARK                         _______ _______ _______ _____ _____    ______ ____
ROOT
ATOM      1  C   UNL     1       5.145   5.596  16.370  0.00  0.00    +0.000 A 
ATOM      2  C   UNL     1       5.204   6.075  15.042  0.00  0.00    +0.000 A 
ATOM      3  C   UNL     1       5.661   5.273  13.994  0.00  0.00    +0.000 A 
ATOM      4  C   UNL     1       6.085   3.980  14.255  0.00  0.00    +0.000 A 
ATOM      5  C   UNL     1       6.065   3.496  15.563  0.00  0.00    +0.000 A 
ATOM      6  C   UNL     1       5.615   4.289  16.645  0.00  0.00    +0.000 A 
ENDROOT
BRANCH   1   8
ATOM      7  O   UNL     1       5.409   7.427  17.841  0.00  0.00    +0.000 OA
ATOM      8  C   UNL     1       4.660   6.551  17.433  0.00  0.00    +0.000 C 
ATOM      9  N   UNL     1       3.349   6.353  17.864  0.00  0.00    +0.000 N 
ATOM     10  H   UNL     1       2.882   5.516  17.542  0.00  0.00    +0.000 HD
BRANCH   9  11
ATOM     11  C   UNL     1       2.610   7.135  18.783  0.00  0.00    +0.000 A 
ATOM     12  C   UNL     1       2.219   6.693  20.041  0.00  0.00    +0.000 A 
ATOM     13  C   UNL     1       1.407   7.495  20.851  0.00  0.00    +0.000 A 
ATOM     14  C   UNL     1       0.991   8.760  20.428  0.00  0.00    +0.000 A 
ATOM     15 CL   UNL     1      -0.064   9.617  21.489  0.00  0.00    +0.000 Cl
ATOM     16  C   UNL     1       1.418   9.260  19.196  0.00  0.00    +0.000 A 
ATOM     17  C   UNL     1       2.237   8.429  18.387  0.00  0.00    +0.000 A 
BRANCH  16  18
ATOM     18  C   UNL     1       1.073  10.629  18.667  0.00  0.00    +0.000 C 
ATOM     19  F   UNL     1       1.096  11.654  19.556  0.00  0.00    +0.000 F 
ATOM     20  F   UNL     1       1.910  11.003  17.655  0.00  0.00    +0.000 F 
ATOM     21  F   UNL     1      -0.179  10.655  18.121  0.00  0.00    +0.000 F 
ENDBRANCH  16  18
ENDBRANCH   9  11
ENDBRANCH   1   8
BRANCH   6  22
ATOM     22  C   UNL     1       5.737   3.668  18.028  0.00  0.00    +0.000 C 
BRANCH  22  23
ATOM     23  N   UNL     1       4.457   3.161  18.570  0.00  0.00    +0.000 N 
ATOM     24  C   UNL     1       3.346   3.016  17.729  0.00  0.00    +0.000 A 
ATOM     25  C   UNL     1       2.076   2.835  18.135  0.00  0.00    +0.000 A 
ATOM     26  C   UNL     1       1.869   2.817  19.588  0.00  0.00    +0.000 A 
ATOM     27  N   UNL     1       0.787   2.726  20.296  0.00  0.00    +0.000 NA
ATOM     28  C   UNL     1       1.263   2.793  21.603  0.00  0.00    +0.000 A 
ATOM     29  N   UNL     1       2.552   2.909  21.766  0.00  0.00    +0.000 NA
ATOM     30  C   UNL     1       3.019   2.941  20.487  0.00  0.00    +0.000 A 
ATOM     31  C   UNL     1       4.232   3.104  19.955  0.00  0.00    +0.000 A 
ENDBRANCH  22  23
ENDBRANCH   6  22
TORSDOF 5
ENDMDL
MODEL 6
REMARK VINA RESULT:      -8.7      5.012      8.554
REMARK  Name = 
REMARK  5 active torsions:
REMARK  status: ('A' for Active; 'I' for Inactive)
REMARK    1  A    between atoms: C_2  and  C_15
REMARK    2  A    between atoms: N_3  and  C_4
REMARK    3  A    between atoms: C_9  and  C_10
REMARK    4  A    between atoms: C_20  and  C_21
REMARK    5  A    between atoms: C_21  and  N_22
REMARK                            x       y       z     vdW  Elec       q    Type
REMARK                         _______ _______ _______ _____ _____    ______ ____
ROOT
ATOM      1  C   UNL     1       2.150   5.340  20.144  0.00  0.00    +0.000 A 
ATOM      2  C   UNL     1       1.067   4.457  20.355  0.00  0.00    +0.000 A 
ATOM      3  C   UNL     1       1.242   3.072  20.361  0.00  0.00    +0.000 A 
ATOM      4  C   UNL     1       2.501   2.539  20.139  0.00  0.00    +0.000 A 
ATOM      5  C   UNL     1       3.580   3.390  19.898  0.00  0.00    +0.000 A 
ATOM      6  C   UNL     1       3.431   4.797  19.878  0.00  0.00    +0.000 A 
ENDROOT
BRANCH   1   8
ATOM      7  O   UNL     1       2.295   7.515  19.228  0.00  0.00    +0.000 OA
ATOM      8  C   UNL     1       1.850   6.819  20.131  0.00  0.00    +0.000 C 
ATOM      9  N   UNL     1       1.055   7.278  21.179  0.00  0.00    +0.000 N 
ATOM     10  H   UNL     1       0.861   6.628  21.928  0.00  0.00    +0.000 HD
BRANCH   9  11
ATOM     11  C   UNL     1       0.553   8.586  21.379  0.00  0.00    +0.000 A 
ATOM     12  C   UNL     1       0.425   9.187  22.626  0.00  0.00    +0.000 A 
ATOM     13  C   UNL     1      -0.170  10.448  22.745  0.00  0.00    +0.000 A 
ATOM     14  C   UNL     1      -0.627  11.140  21.620  0.00  0.00    +0.000 A 
ATOM     15 CL   UNL     1      -1.405  12.652  21.910  0.00  0.00    +0.000 Cl
ATOM     16  C   UNL     1      -0.455  10.592  20.347  0.00  0.00    +0.000 A 
ATOM     17  C   UNL     1       0.145   9.310  20.248  0.00  0.00    +0.000 A 
BRANCH  16  18
ATOM     18  C   UNL     1      -0.862  11.275  19.065  0.00  0.00    +0.000 C 
ATOM     19  F   UNL     1      -0.287  12.475  18.801  0.00  0.00    +0.000 F 
ATOM     20  F   UNL     1      -0.598  10.496  17.975  0.00  0.00    +0.000 F 
ATOM     21  F   UNL     1      -2.207  11.503  19.022  0.00  0.00    +0.000 F 
ENDBRANCH  16  18
ENDBRANCH   9  11
ENDBRANCH   1   8
BRANCH   6  22
ATOM     22  C   UNL     1       4.669   5.598  19.508  0.00  0.00    +0.000 C 
BRANCH  22  23
ATOM     23  N   UNL     1       5.413   5.048  18.353  0.00  0.00    +0.000 N 
ATOM     24  C   UNL     1       6.799   4.861  18.433  0.00  0.00    +0.000 A 
ATOM     25  C   UNL     1       7.620   4.637  17.392  0.00  0.00    +0.000 A 
ATOM     26  C   UNL     1       6.981   4.619  16.070  0.00  0.00    +0.000 A 
ATOM     27  N   UNL     1       7.480   4.493  14.881  0.00  0.00    +0.000 NA
ATOM     28  C   UNL     1       6.359   4.582  14.061  0.00  0.00    +0.000 A 
ATOM     29  N   UNL     1       5.203   4.744  14.642  0.00  0.00    +0.000 NA
ATOM     30  C   UNL     1       5.530   4.787  15.964  0.00  0.00    +0.000 A 
ATOM     31  C   UNL     1       4.825   4.990  17.078  0.00  0.00    +0.000 A 
ENDBRANCH  22  23
ENDBRANCH   6  22
TORSDOF 5
ENDMDL
MODEL 7
REMARK VINA RESULT:      -8.7      5.201      7.949
REMARK  Name = 
REMARK  5 active torsions:
REMARK  status: ('A' for Active; 'I' for Inactive)
REMARK    1  A    between atoms: C_2  and  C_15
REMARK    2  A    between atoms: N_3  and  C_4
REMARK    3  A    between atoms: C_9  and  C_10
REMARK    4  A    between atoms: C_20  and  C_21
REMARK    5  A    between atoms: C_21  and  N_22
REMARK                            x       y       z     vdW  Elec       q    Type
REMARK                         _______ _______ _______ _____ _____    ______ ____
ROOT
ATOM      1  C   UNL     1       5.417   6.213  17.407  0.00  0.00    +0.000 A 
ATOM      2  C   UNL     1       6.588   6.756  17.983  0.00  0.00    +0.000 A 
ATOM      3  C   UNL     1       7.742   5.991  18.154  0.00  0.00    +0.000 A 
ATOM      4  C   UNL     1       7.746   4.660  17.768  0.00  0.00    +0.000 A 
ATOM      5  C   UNL     1       6.593   4.094  17.227  0.00  0.00    +0.000 A 
ATOM      6  C   UNL     1       5.406   4.844  17.049  0.00  0.00    +0.000 A 
ENDROOT
BRANCH   1   8
ATOM      7  O   UNL     1       3.882   7.537  16.190  0.00  0.00    +0.000 OA
ATOM      8  C   UNL     1       4.215   7.118  17.290  0.00  0.00    +0.000 C 
ATOM      9  N   UNL     1       3.558   7.399  18.487  0.00  0.00    +0.000 N 
ATOM     10  H   UNL     1       4.008   7.097  19.340  0.00  0.00    +0.000 HD
BRANCH   9  11
ATOM     11  C   UNL     1       2.369   8.145  18.670  0.00  0.00    +0.000 A 
ATOM     12  C   UNL     1       1.719   8.834  17.653  0.00  0.00    +0.000 A 
ATOM     13  C   UNL     1       0.602   9.626  17.937  0.00  0.00    +0.000 A 
ATOM     14  C   UNL     1       0.101   9.726  19.238  0.00  0.00    +0.000 A 
ATOM     15 CL   UNL     1      -1.237  10.791  19.466  0.00  0.00    +0.000 Cl
ATOM     16  C   UNL     1       0.692   8.997  20.272  0.00  0.00    +0.000 A 
ATOM     17  C   UNL     1       1.827   8.203  19.963  0.00  0.00    +0.000 A 
BRANCH  16  18
ATOM     18  C   UNL     1       0.201   8.990  21.698  0.00  0.00    +0.000 C 
ATOM     19  F   UNL     1      -0.213  10.177  22.209  0.00  0.00    +0.000 F 
ATOM     20  F   UNL     1      -0.850   8.135  21.863  0.00  0.00    +0.000 F 
ATOM     21  F   UNL     1       1.162   8.544  22.558  0.00  0.00    +0.000 F 
ENDBRANCH  16  18
ENDBRANCH   9  11
ENDBRANCH   1   8
BRANCH   6  22
ATOM     22  C   UNL     1       4.197   4.075  16.537  0.00  0.00    +0.000 C 
BRANCH  22  23
ATOM     23  N   UNL     1       3.266   3.648  17.604  0.00  0.00    +0.000 N 
ATOM     24  C   UNL     1       1.933   4.081  17.590  0.00  0.00    +0.000 A 
ATOM     25  C   UNL     1       1.073   3.999  18.620  0.00  0.00    +0.000 A 
ATOM     26  C   UNL     1       1.615   3.423  19.857  0.00  0.00    +0.000 A 
ATOM     27  N   UNL     1       1.083   3.259  21.028  0.00  0.00    +0.000 NA
ATOM     28  C   UNL     1       2.118   2.687  21.763  0.00  0.00    +0.000 A 
ATOM     29  N   UNL     1       3.246   2.474  21.144  0.00  0.00    +0.000 NA
ATOM     30  C   UNL     1       2.997   2.940  19.889  0.00  0.00    +0.000 A 
ATOM     31  C   UNL     1       3.745   3.070  18.791  0.00  0.00    +0.000 A 
ENDBRANCH  22  23
ENDBRANCH   6  22
TORSDOF 5
ENDMDL
MODEL 8
REMARK VINA RESULT:      -8.7      5.325      7.591
REMARK  Name = 
REMARK  5 active torsions:
REMARK  status: ('A' for Active; 'I' for Inactive)
REMARK    1  A    between atoms: C_2  and  C_15
REMARK    2  A    between atoms: N_3  and  C_4
REMARK    3  A    between atoms: C_9  and  C_10
REMARK    4  A    between atoms: C_20  and  C_21
REMARK    5  A    between atoms: C_21  and  N_22
REMARK                            x       y       z     vdW  Elec       q    Type
REMARK                         _______ _______ _______ _____ _____    ______ ____
ROOT
ATOM      1  C   UNL     1       2.562   4.225  19.928  0.00  0.00    +0.000 A 
ATOM      2  C   UNL     1       1.908   3.876  21.131  0.00  0.00    +0.000 A 
ATOM      3  C   UNL     1       2.271   2.743  21.860  0.00  0.00    +0.000 A 
ATOM      4  C   UNL     1       3.285   1.923  21.393  0.00  0.00    +0.000 A 
ATOM      5  C   UNL     1       3.924   2.229  20.192  0.00  0.00    +0.000 A 
ATOM      6  C   UNL     1       3.572   3.367  19.428  0.00  0.00    +0.000 A 
ENDROOT
BRANCH   1   8
ATOM      7  O   UNL     1       1.492   5.334  18.135  0.00  0.00    +0.000 OA
ATOM      8  C   UNL     1       2.077   5.456  19.203  0.00  0.00    +0.000 C 
ATOM      9  N   UNL     1       2.335   6.668  19.841  0.00  0.00    +0.000 N 
ATOM     10  H   UNL     1       2.938   6.641  20.651  0.00  0.00    +0.000 HD
BRANCH   9  11
ATOM     11  C   UNL     1       1.932   7.964  19.439  0.00  0.00    +0.000 A 
ATOM     12  C   UNL     1       2.322   8.564  18.247  0.00  0.00    +0.000 A 
ATOM     13  C   UNL     1       1.957   9.886  17.969  0.00  0.00    +0.000 A 
ATOM     14  C   UNL     1       1.176  10.622  18.865  0.00  0.00    +0.000 A 
ATOM     15 CL   UNL     1       0.855  12.262  18.437  0.00  0.00    +0.000 Cl
ATOM     16  C   UNL     1       0.715  10.028  20.041  0.00  0.00    +0.000 A 
ATOM     17  C   UNL     1       1.101   8.688  20.307  0.00  0.00    +0.000 A 
BRANCH  16  18
ATOM     18  C   UNL     1      -0.174  10.712  21.049  0.00  0.00    +0.000 C 
ATOM     19  F   UNL     1      -1.339  11.231  20.586  0.00  0.00    +0.000 F 
ATOM     20  F   UNL     1      -0.527   9.870  22.063  0.00  0.00    +0.000 F 
ATOM     21  F   UNL     1       0.466  11.754  21.658  0.00  0.00    +0.000 F 
ENDBRANCH  16  18
ENDBRANCH   9  11
ENDBRANCH   1   8
BRANCH   6  22
ATOM     22  C   UNL     1       4.284   3.526  18.094  0.00  0.00    +0.000 C 
BRANCH  22  23
ATOM     23  N   UNL     1       4.941   4.841  17.921  0.00  0.00    +0.000 N 
ATOM     24  C   UNL     1       4.666   5.621  16.790  0.00  0.00    +0.000 A 
ATOM     25  C   UNL     1       5.383   6.682  16.378  0.00  0.00    +0.000 A 
ATOM     26  C   UNL     1       6.562   7.007  17.190  0.00  0.00    +0.000 A 
ATOM     27  N   UNL     1       7.481   7.908  17.040  0.00  0.00    +0.000 NA
ATOM     28  C   UNL     1       8.322   7.681  18.126  0.00  0.00    +0.000 A 
ATOM     29  N   UNL     1       7.997   6.718  18.944  0.00  0.00    +0.000 NA
ATOM     30  C   UNL     1       6.855   6.222  18.391  0.00  0.00    +0.000 A 
ATOM     31  C   UNL     1       6.056   5.198  18.698  0.00  0.00    +0.000 A 
ENDBRANCH  22  23
ENDBRANCH   6  22
TORSDOF 5
ENDMDL
MODEL 9
REMARK VINA RESULT:      -8.7      5.199      8.115
REMARK  Name = 
REMARK  5 active torsions:
REMARK  status: ('A' for Active; 'I' for Inactive)
REMARK    1  A    between atoms: C_2  and  C_15
REMARK    2  A    between atoms: N_3  and  C_4
REMARK    3  A    between atoms: C_9  and  C_10
REMARK    4  A    between atoms: C_20  and  C_21
REMARK    5  A    between atoms: C_21  and  N_22
REMARK                            x       y       z     vdW  Elec       q    Type
REMARK                         _______ _______ _______ _____ _____    ______ ____
ROOT
ATOM      1  C   UNL     1       2.567   4.856  18.809  0.00  0.00    +0.000 A 
ATOM      2  C   UNL     1       1.383   4.146  18.512  0.00  0.00    +0.000 A 
ATOM      3  C   UNL     1       1.250   2.788  18.808  0.00  0.00    +0.000 A 
ATOM      4  C   UNL     1       2.306   2.107  19.391  0.00  0.00    +0.000 A 
ATOM      5  C   UNL     1       3.496   2.780  19.664  0.00  0.00    +0.000 A 
ATOM      6  C   UNL     1       3.662   4.154  19.368  0.00  0.00    +0.000 A 
ENDROOT
BRANCH   1   8
ATOM      7  O   UNL     1       3.279   6.659  17.455  0.00  0.00    +0.000 OA
ATOM      8  C   UNL     1       2.618   6.315  18.425  0.00  0.00    +0.000 C 
ATOM      9  N   UNL     1       1.871   7.173  19.231  0.00  0.00    +0.000 N 
ATOM     10  H   UNL     1       1.475   6.782  20.075  0.00  0.00    +0.000 HD
BRANCH   9  11
ATOM     11  C   UNL     1       1.670   8.564  19.065  0.00  0.00    +0.000 A 
ATOM     12  C   UNL     1       2.186   9.303  18.007  0.00  0.00    +0.000 A 
ATOM     13  C   UNL     1       2.022  10.692  17.968  0.00  0.00    +0.000 A 
ATOM     14  C   UNL     1       1.320  11.364  18.973  0.00  0.00    +0.000 A 
ATOM     15 CL   UNL     1       1.250  13.082  18.845  0.00  0.00    +0.000 Cl
ATOM     16  C   UNL     1       0.735  10.643  20.017  0.00  0.00    +0.000 A 
ATOM     17  C   UNL     1       0.918   9.236  20.041  0.00  0.00    +0.000 A 
BRANCH  16  18
ATOM     18  C   UNL     1      -0.086  11.261  21.122  0.00  0.00    +0.000 C 
ATOM     19  F   UNL     1       0.418  12.374  21.711  0.00  0.00    +0.000 F 
ATOM     20  F   UNL     1      -1.332  11.608  20.688  0.00  0.00    +0.000 F 
ATOM     21  F   UNL     1      -0.297  10.379  22.143  0.00  0.00    +0.000 F 
ENDBRANCH  16  18
ENDBRANCH   9  11
ENDBRANCH   1   8
BRANCH   6  22
ATOM     22  C   UNL     1       5.042   4.736  19.631  0.00  0.00    +0.000 C 
BRANCH  22  23
ATOM     23  N   UNL     1       5.886   4.841  18.419  0.00  0.00    +0.000 N 
ATOM     24  C   UNL     1       6.724   5.950  18.241  0.00  0.00    +0.000 A 
ATOM     25  C   UNL     1       7.320   6.303  17.088  0.00  0.00    +0.000 A 
ATOM     26  C   UNL     1       7.026   5.446  15.932  0.00  0.00    +0.000 A 
ATOM     27  N   UNL     1       7.381   5.538  14.689  0.00  0.00    +0.000 NA
ATOM     28  C   UNL     1       6.758   4.438  14.105  0.00  0.00    +0.000 A 
ATOM     29  N   UNL     1       6.053   3.665  14.884  0.00  0.00    +0.000 NA
ATOM     30  C   UNL     1       6.173   4.268  16.100  0.00  0.00    +0.000 A 
ATOM     31  C   UNL     1       5.651   4.021  17.303  0.00  0.00    +0.000 A 
ENDBRANCH  22  23
ENDBRANCH   6  22
TORSDOF 5
ENDMDL
