MODEL 1
REMARK VINA RESULT:      -7.3      0.000      0.000
REMARK  Name = 
REMARK  9 active torsions:
REMARK  status: ('A' for Active; 'I' for Inactive)
REMARK    1  A    between atoms: C_2  and  CA_4
REMARK    2  A    between atoms: CA_4  and  C_5
REMARK    3  A    between atoms: CA_4  and  N_7
REMARK    4  A    between atoms: C_5  and  O_6
REMARK    5  A    between atoms: N_7  and  C_8
REMARK    6  A    between atoms: C_8  and  C_9
REMARK    7  A    between atoms: C_12  and  O_13
REMARK    8  A    between atoms: O_13  and  C_14
REMARK    9  A    between atoms: C_14  and  C_15
REMARK                            x       y       z     vdW  Elec       q    Type
REMARK                         _______ _______ _______ _____ _____    ______ ____
ROOT
ATOM      1  C   UNL     1       5.898   5.158  17.337  0.00  0.00    +0.000 A 
ATOM      2  C   UNL     1       5.855   6.411  16.721  0.00  0.00    +0.000 A 
ATOM      3  C   UNL     1       6.751   7.412  17.089  0.00  0.00    +0.000 A 
ATOM      4  C   UNL     1       7.687   7.182  18.101  0.00  0.00    +0.000 A 
ATOM      5  C   UNL     1       7.755   5.926  18.704  0.00  0.00    +0.000 A 
ATOM      6  C   UNL     1       6.855   4.922  18.334  0.00  0.00    +0.000 A 
ENDROOT
BRANCH   1   7
ATOM      7  C   UNL     1       4.949   4.071  16.893  0.00  0.00    +0.000 C 
BRANCH   7   8
ATOM      8  N   UNL     1       3.565   4.284  17.353  0.00  0.00    +0.000 NA
ATOM      9  H   UNL     1       3.621   4.795  18.237  0.00  0.00    +0.000 HD
BRANCH   8  10
ATOM     10  CA  UNL     1       2.853   3.001  17.633  0.00  0.00    +0.000 C 
BRANCH  10  12
ATOM     11  N   UNL     1       3.935   0.890  18.271  0.00  0.00    +0.000 N 
ATOM     12  C   UNL     1       3.638   2.165  18.650  0.00  0.00    +0.000 C 
ATOM     13  O   UNL     1       4.026   2.608  19.727  0.00  0.00    +0.000 OA
ATOM     14  H   UNL     1       4.488   0.324  18.901  0.00  0.00    +0.000 HD
ATOM     15  H   UNL     1       3.662   0.500  17.377  0.00  0.00    +0.000 HD
ENDBRANCH  10  12
BRANCH  10  16
ATOM     16  C   UNL     1       1.463   3.275  18.229  0.00  0.00    +0.000 C 
BRANCH  16  17
ATOM     17  O   UNL     1       1.079   2.241  19.135  0.00  0.00    +0.000 OA
ATOM     18  H   UNL     1       0.698   2.701  19.907  0.00  0.00    +0.000 HD
ENDBRANCH  16  17
ENDBRANCH  10  16
ENDBRANCH   8  10
ENDBRANCH   7   8
ENDBRANCH   1   7
BRANCH   4  19
ATOM     19  O   UNL     1       8.571   8.115  18.570  0.00  0.00    +0.000 OA
BRANCH  19  20
ATOM     20  C   UNL     1       8.300   9.454  18.144  0.00  0.00    +0.000 C 
BRANCH  20  21
ATOM     21  C   UNL     1       9.321  10.419  18.696  0.00  0.00    +0.000 A 
ATOM     22  C   UNL     1      10.213  11.105  17.862  0.00  0.00    +0.000 A 
ATOM     23  C   UNL     1      11.137  11.996  18.406  0.00  0.00    +0.000 A 
ATOM     24  C   UNL     1      11.169  12.217  19.782  0.00  0.00    +0.000 A 
ATOM     25  C   UNL     1      10.272  11.556  20.618  0.00  0.00    +0.000 A 
ATOM     26  C   UNL     1       9.348  10.666  20.077  0.00  0.00    +0.000 A 
ENDBRANCH  20  21
ENDBRANCH  19  20
ENDBRANCH   4  19
TORSDOF 9
ENDMDL
MODEL 2
REMARK VINA RESULT:      -7.2      6.084      8.571
REMARK  Name = 
REMARK  9 active torsions:
REMARK  status: ('A' for Active; 'I' for Inactive)
REMARK    1  A    between atoms: C_2  and  CA_4
REMARK    2  A    between atoms: CA_4  and  C_5
REMARK    3  A    between atoms: CA_4  and  N_7
REMARK    4  A    between atoms: C_5  and  O_6
REMARK    5  A    between atoms: N_7  and  C_8
REMARK    6  A    between atoms: C_8  and  C_9
REMARK    7  A    between atoms: C_12  and  O_13
REMARK    8  A    between atoms: O_13  and  C_14
REMARK    9  A    between atoms: C_14  and  C_15
REMARK                            x       y       z     vdW  Elec       q    Type
REMARK                         _______ _______ _______ _____ _____    ______ ____
ROOT
ATOM      1  C   UNL     1       2.585   7.311  19.082  0.00  0.00    +0.000 A 
ATOM      2  C   UNL     1       1.850   7.709  20.200  0.00  0.00    +0.000 A 
ATOM      3  C   UNL     1       1.034   8.837  20.147  0.00  0.00    +0.000 A 
ATOM      4  C   UNL     1       0.963   9.600  18.979  0.00  0.00    +0.000 A 
ATOM      5  C   UNL     1       1.673   9.196  17.848  0.00  0.00    +0.000 A 
ATOM      6  C   UNL     1       2.492   8.064  17.903  0.00  0.00    +0.000 A 
ENDROOT
BRANCH   1   7
ATOM      7  C   UNL     1       3.428   6.061  19.144  0.00  0.00    +0.000 C 
BRANCH   7   8
ATOM      8  N   UNL     1       4.495   6.028  18.127  0.00  0.00    +0.000 NA
ATOM      9  H   UNL     1       4.043   6.159  17.218  0.00  0.00    +0.000 HD
BRANCH   8  10
ATOM     10  CA  UNL     1       5.198   4.711  18.080  0.00  0.00    +0.000 C 
BRANCH  10  12
ATOM     11  N   UNL     1       7.621   4.317  17.975  0.00  0.00    +0.000 N 
ATOM     12  C   UNL     1       6.591   4.826  18.709  0.00  0.00    +0.000 C 
ATOM     13  O   UNL     1       6.799   5.378  19.785  0.00  0.00    +0.000 OA
ATOM     14  H   UNL     1       8.558   4.414  18.342  0.00  0.00    +0.000 HD
ATOM     15  H   UNL     1       7.494   3.884  17.068  0.00  0.00    +0.000 HD
ENDBRANCH  10  12
BRANCH  10  16
ATOM     16  C   UNL     1       4.415   3.652  18.872  0.00  0.00    +0.000 C 
BRANCH  16  17
ATOM     17  O   UNL     1       5.296   2.796  19.598  0.00  0.00    +0.000 OA
ATOM     18  H   UNL     1       5.897   3.392  20.082  0.00  0.00    +0.000 HD
ENDBRANCH  16  17
ENDBRANCH  10  16
ENDBRANCH   8  10
ENDBRANCH   7   8
ENDBRANCH   1   7
BRANCH   4  19
ATOM     19  O   UNL     1       0.235  10.751  18.844  0.00  0.00    +0.000 OA
BRANCH  19  20
ATOM     20  C   UNL     1      -1.110  10.660  19.324  0.00  0.00    +0.000 C 
BRANCH  20  21
ATOM     21  C   UNL     1      -2.100  10.703  18.185  0.00  0.00    +0.000 A 
ATOM     22  C   UNL     1      -3.232  11.527  18.224  0.00  0.00    +0.000 A 
ATOM     23  C   UNL     1      -4.120  11.548  17.151  0.00  0.00    +0.000 A 
ATOM     24  C   UNL     1      -3.878  10.759  16.027  0.00  0.00    +0.000 A 
ATOM     25  C   UNL     1      -2.744   9.954  15.969  0.00  0.00    +0.000 A 
ATOM     26  C   UNL     1      -1.855   9.930  17.040  0.00  0.00    +0.000 A 
ENDBRANCH  20  21
ENDBRANCH  19  20
ENDBRANCH   4  19
TORSDOF 9
ENDMDL
MODEL 3
REMARK VINA RESULT:      -7.2      4.963      7.750
REMARK  Name = 
REMARK  9 active torsions:
REMARK  status: ('A' for Active; 'I' for Inactive)
REMARK    1  A    between atoms: C_2  and  CA_4
REMARK    2  A    between atoms: CA_4  and  C_5
REMARK    3  A    between atoms: CA_4  and  N_7
REMARK    4  A    between atoms: C_5  and  O_6
REMARK    5  A    between atoms: N_7  and  C_8
REMARK    6  A    between atoms: C_8  and  C_9
REMARK    7  A    between atoms: C_12  and  O_13
REMARK    8  A    between atoms: O_13  and  C_14
REMARK    9  A    between atoms: C_14  and  C_15
REMARK                            x       y       z     vdW  Elec       q    Type
REMARK                         _______ _______ _______ _____ _____    ______ ____
ROOT
ATOM      1  C   UNL     1       6.217   5.025  15.436  0.00  0.00    +0.000 A 
ATOM      2  C   UNL     1       5.265   6.038  15.580  0.00  0.00    +0.000 A 
ATOM      3  C   UNL     1       4.750   6.354  16.835  0.00  0.00    +0.000 A 
ATOM      4  C   UNL     1       5.160   5.640  17.964  0.00  0.00    +0.000 A 
ATOM      5  C   UNL     1       6.129   4.645  17.836  0.00  0.00    +0.000 A 
ATOM      6  C   UNL     1       6.645   4.328  16.576  0.00  0.00    +0.000 A 
ENDROOT
BRANCH   1   7
ATOM      7  C   UNL     1       6.797   4.727  14.076  0.00  0.00    +0.000 C 
BRANCH   7   8
ATOM      8  N   UNL     1       6.507   3.361  13.606  0.00  0.00    +0.000 NA
ATOM      9  H   UNL     1       7.384   2.836  13.662  0.00  0.00    +0.000 HD
BRANCH   8  10
ATOM     10  CA  UNL     1       6.069   3.329  12.178  0.00  0.00    +0.000 C 
BRANCH  10  12
ATOM     11  N   UNL     1       5.805   1.025  11.368  0.00  0.00    +0.000 N 
ATOM     12  C   UNL     1       6.642   2.097  11.471  0.00  0.00    +0.000 C 
ATOM     13  O   UNL     1       7.766   2.066  10.977  0.00  0.00    +0.000 OA
ATOM     14  H   UNL     1       6.138   0.210  10.870  0.00  0.00    +0.000 HD
ATOM     15  H   UNL     1       4.860   1.023  11.732  0.00  0.00    +0.000 HD
ENDBRANCH  10  12
BRANCH  10  16
ATOM     16  C   UNL     1       4.537   3.249  12.086  0.00  0.00    +0.000 C 
BRANCH  16  17
ATOM     17  O   UNL     1       4.088   3.493  10.753  0.00  0.00    +0.000 OA
ATOM     18  H   UNL     1       4.045   4.464  10.667  0.00  0.00    +0.000 HD
ENDBRANCH  16  17
ENDBRANCH  10  16
ENDBRANCH   8  10
ENDBRANCH   7   8
ENDBRANCH   1   7
BRANCH   4  19
ATOM     19  O   UNL     1       4.675   5.838  19.228  0.00  0.00    +0.000 OA
BRANCH  19  20
ATOM     20  C   UNL     1       3.292   6.202  19.281  0.00  0.00    +0.000 C 
BRANCH  20  21
ATOM     21  C   UNL     1       2.413   4.986  19.438  0.00  0.00    +0.000 A 
ATOM     22  C   UNL     1       2.012   4.524  20.699  0.00  0.00    +0.000 A 
ATOM     23  C   UNL     1       1.193   3.402  20.806  0.00  0.00    +0.000 A 
ATOM     24  C   UNL     1       0.758   2.741  19.658  0.00  0.00    +0.000 A 
ATOM     25  C   UNL     1       1.131   3.205  18.400  0.00  0.00    +0.000 A 
ATOM     26  C   UNL     1       1.950   4.326  18.289  0.00  0.00    +0.000 A 
ENDBRANCH  20  21
ENDBRANCH  19  20
ENDBRANCH   4  19
TORSDOF 9
ENDMDL
MODEL 4
REMARK VINA RESULT:      -7.1      1.048      1.481
REMARK  Name = 
REMARK  9 active torsions:
REMARK  status: ('A' for Active; 'I' for Inactive)
REMARK    1  A    between atoms: C_2  and  CA_4
REMARK    2  A    between atoms: CA_4  and  C_5
REMARK    3  A    between atoms: CA_4  and  N_7
REMARK    4  A    between atoms: C_5  and  O_6
REMARK    5  A    between atoms: N_7  and  C_8
REMARK    6  A    between atoms: C_8  and  C_9
REMARK    7  A    between atoms: C_12  and  O_13
REMARK    8  A    between atoms: O_13  and  C_14
REMARK    9  A    between atoms: C_14  and  C_15
REMARK                            x       y       z     vdW  Elec       q    Type
REMARK                         _______ _______ _______ _____ _____    ______ ____
ROOT
ATOM      1  C   UNL     1       6.107   5.097  17.127  0.00  0.00    +0.000 A 
ATOM      2  C   UNL     1       7.043   4.797  18.119  0.00  0.00    +0.000 A 
ATOM      3  C   UNL     1       7.848   5.797  18.659  0.00  0.00    +0.000 A 
ATOM      4  C   UNL     1       7.748   7.110  18.192  0.00  0.00    +0.000 A 
ATOM      5  C   UNL     1       6.799   7.425  17.220  0.00  0.00    +0.000 A 
ATOM      6  C   UNL     1       5.991   6.420  16.679  0.00  0.00    +0.000 A 
ENDROOT
BRANCH   1   7
ATOM      7  C   UNL     1       5.211   4.009  16.587  0.00  0.00    +0.000 C 
BRANCH   7   8
ATOM      8  N   UNL     1       4.749   3.068  17.622  0.00  0.00    +0.000 NA
ATOM      9  H   UNL     1       5.122   2.148  17.374  0.00  0.00    +0.000 HD
BRANCH   8  10
ATOM     10  CA  UNL     1       3.261   2.941  17.657  0.00  0.00    +0.000 C 
BRANCH  10  12
ATOM     11  N   UNL     1       1.588   1.639  18.898  0.00  0.00    +0.000 N 
ATOM     12  C   UNL     1       2.814   2.234  18.940  0.00  0.00    +0.000 C 
ATOM     13  O   UNL     1       3.517   2.154  19.944  0.00  0.00    +0.000 OA
ATOM     14  H   UNL     1       1.281   1.128  19.715  0.00  0.00    +0.000 HD
ATOM     15  H   UNL     1       0.994   1.654  18.079  0.00  0.00    +0.000 HD
ENDBRANCH  10  12
BRANCH  10  16
ATOM     16  C   UNL     1       2.601   4.330  17.636  0.00  0.00    +0.000 C 
BRANCH  16  17
ATOM     17  O   UNL     1       2.247   4.751  18.953  0.00  0.00    +0.000 OA
ATOM     18  H   UNL     1       2.087   3.930  19.454  0.00  0.00    +0.000 HD
ENDBRANCH  16  17
ENDBRANCH  10  16
ENDBRANCH   8  10
ENDBRANCH   7   8
ENDBRANCH   1   7
BRANCH   4  19
ATOM     19  O   UNL     1       8.529   8.149  18.618  0.00  0.00    +0.000 OA
BRANCH  19  20
ATOM     20  C   UNL     1       8.308   9.381  17.924  0.00  0.00    +0.000 C 
BRANCH  20  21
ATOM     21  C   UNL     1       9.077  10.512  18.562  0.00  0.00    +0.000 A 
ATOM     22  C   UNL     1       9.428  11.662  17.842  0.00  0.00    +0.000 A 
ATOM     23  C   UNL     1      10.131  12.691  18.465  0.00  0.00    +0.000 A 
ATOM     24  C   UNL     1      10.478  12.586  19.811  0.00  0.00    +0.000 A 
ATOM     25  C   UNL     1      10.115  11.458  20.541  0.00  0.00    +0.000 A 
ATOM     26  C   UNL     1       9.412  10.427  19.921  0.00  0.00    +0.000 A 
ENDBRANCH  20  21
ENDBRANCH  19  20
ENDBRANCH   4  19
TORSDOF 9
ENDMDL
MODEL 5
REMARK VINA RESULT:      -7.0      4.261      6.000
REMARK  Name = 
REMARK  9 active torsions:
REMARK  status: ('A' for Active; 'I' for Inactive)
REMARK    1  A    between atoms: C_2  and  CA_4
REMARK    2  A    between atoms: CA_4  and  C_5
REMARK    3  A    between atoms: CA_4  and  N_7
REMARK    4  A    between atoms: C_5  and  O_6
REMARK    5  A    between atoms: N_7  and  C_8
REMARK    6  A    between atoms: C_8  and  C_9
REMARK    7  A    between atoms: C_12  and  O_13
REMARK    8  A    between atoms: O_13  and  C_14
REMARK    9  A    between atoms: C_14  and  C_15
REMARK                            x       y       z     vdW  Elec       q    Type
REMARK                         _______ _______ _______ _____ _____    ______ ____
ROOT
ATOM      1  C   UNL     1       3.537   6.036  18.881  0.00  0.00    +0.000 A 
ATOM      2  C   UNL     1       3.422   6.809  17.723  0.00  0.00    +0.000 A 
ATOM      3  C   UNL     1       4.486   6.909  16.830  0.00  0.00    +0.000 A 
ATOM      4  C   UNL     1       5.693   6.259  17.098  0.00  0.00    +0.000 A 
ATOM      5  C   UNL     1       5.810   5.465  18.238  0.00  0.00    +0.000 A 
ATOM      6  C   UNL     1       4.742   5.364  19.134  0.00  0.00    +0.000 A 
ENDROOT
BRANCH   1   7
ATOM      7  C   UNL     1       2.359   5.902  19.814  0.00  0.00    +0.000 C 
BRANCH   7   8
ATOM      8  N   UNL     1       2.442   4.720  20.691  0.00  0.00    +0.000 NA
ATOM      9  H   UNL     1       3.330   4.257  20.480  0.00  0.00    +0.000 HD
BRANCH   8  10
ATOM     10  CA  UNL     1       1.357   3.731  20.422  0.00  0.00    +0.000 C 
BRANCH  10  12
ATOM     11  N   UNL     1       2.497   2.046  19.045  0.00  0.00    +0.000 N 
ATOM     12  C   UNL     1       1.576   3.052  19.067  0.00  0.00    +0.000 C 
ATOM     13  O   UNL     1       0.943   3.346  18.057  0.00  0.00    +0.000 OA
ATOM     14  H   UNL     1       2.636   1.549  18.175  0.00  0.00    +0.000 HD
ATOM     15  H   UNL     1       3.015   1.752  19.864  0.00  0.00    +0.000 HD
ENDBRANCH  10  12
BRANCH  10  16
ATOM     16  C   UNL     1       1.349   2.632  21.498  0.00  0.00    +0.000 C 
BRANCH  16  17
ATOM     17  O   UNL     1       2.616   2.543  22.150  0.00  0.00    +0.000 OA
ATOM     18  H   UNL     1       2.481   1.927  22.895  0.00  0.00    +0.000 HD
ENDBRANCH  16  17
ENDBRANCH  10  16
ENDBRANCH   8  10
ENDBRANCH   7   8
ENDBRANCH   1   7
BRANCH   4  19
ATOM     19  O   UNL     1       6.811   6.340  16.312  0.00  0.00    +0.000 OA
BRANCH  19  20
ATOM     20  C   UNL     1       7.393   5.076  15.979  0.00  0.00    +0.000 C 
BRANCH  20  21
ATOM     21  C   UNL     1       6.966   4.625  14.604  0.00  0.00    +0.000 A 
ATOM     22  C   UNL     1       5.827   3.832  14.409  0.00  0.00    +0.000 A 
ATOM     23  C   UNL     1       5.457   3.441  13.124  0.00  0.00    +0.000 A 
ATOM     24  C   UNL     1       6.212   3.847  12.024  0.00  0.00    +0.000 A 
ATOM     25  C   UNL     1       7.333   4.654  12.205  0.00  0.00    +0.000 A 
ATOM     26  C   UNL     1       7.705   5.046  13.488  0.00  0.00    +0.000 A 
ENDBRANCH  20  21
ENDBRANCH  19  20
ENDBRANCH   4  19
TORSDOF 9
ENDMDL
MODEL 6
REMARK VINA RESULT:      -7.0      5.026      7.941
REMARK  Name = 
REMARK  9 active torsions:
REMARK  status: ('A' for Active; 'I' for Inactive)
REMARK    1  A    between atoms: C_2  and  CA_4
REMARK    2  A    between atoms: CA_4  and  C_5
REMARK    3  A    between atoms: CA_4  and  N_7
REMARK    4  A    between atoms: C_5  and  O_6
REMARK    5  A    between atoms: N_7  and  C_8
REMARK    6  A    between atoms: C_8  and  C_9
REMARK    7  A    between atoms: C_12  and  O_13
REMARK    8  A    between atoms: O_13  and  C_14
REMARK    9  A    between atoms: C_14  and  C_15
REMARK                            x       y       z     vdW  Elec       q    Type
REMARK                         _______ _______ _______ _____ _____    ______ ____
ROOT
ATOM      1  C   UNL     1       5.953   5.047  15.227  0.00  0.00    +0.000 A 
ATOM      2  C   UNL     1       5.791   4.118  16.258  0.00  0.00    +0.000 A 
ATOM      3  C   UNL     1       5.106   4.462  17.421  0.00  0.00    +0.000 A 
ATOM      4  C   UNL     1       4.597   5.753  17.582  0.00  0.00    +0.000 A 
ATOM      5  C   UNL     1       4.730   6.680  16.549  0.00  0.00    +0.000 A 
ATOM      6  C   UNL     1       5.418   6.334  15.382  0.00  0.00    +0.000 A 
ENDROOT
BRANCH   1   7
ATOM      7  C   UNL     1       6.658   4.643  13.956  0.00  0.00    +0.000 C 
BRANCH   7   8
ATOM      8  N   UNL     1       6.326   3.276  13.516  0.00  0.00    +0.000 NA
ATOM      9  H   UNL     1       7.188   2.728  13.575  0.00  0.00    +0.000 HD
BRANCH   8  10
ATOM     10  CA  UNL     1       5.874   3.227  12.093  0.00  0.00    +0.000 C 
BRANCH  10  12
ATOM     11  N   UNL     1       7.639   1.774  11.194  0.00  0.00    +0.000 N 
ATOM     12  C   UNL     1       6.304   1.910  11.440  0.00  0.00    +0.000 C 
ATOM     13  O   UNL     1       5.522   0.998  11.186  0.00  0.00    +0.000 OA
ATOM     14  H   UNL     1       7.962   0.899  10.802  0.00  0.00    +0.000 HD
ATOM     15  H   UNL     1       8.319   2.488  11.420  0.00  0.00    +0.000 HD
ENDBRANCH  10  12
BRANCH  10  16
ATOM     16  C   UNL     1       4.341   3.309  12.011  0.00  0.00    +0.000 C 
BRANCH  16  17
ATOM     17  O   UNL     1       3.911   3.566  10.674  0.00  0.00    +0.000 OA
ATOM     18  H   UNL     1       4.389   4.370  10.397  0.00  0.00    +0.000 HD
ENDBRANCH  16  17
ENDBRANCH  10  16
ENDBRANCH   8  10
ENDBRANCH   7   8
ENDBRANCH   1   7
BRANCH   4  19
ATOM     19  O   UNL     1       3.959   6.203  18.706  0.00  0.00    +0.000 OA
BRANCH  19  20
ATOM     20  C   UNL     1       2.530   6.146  18.638  0.00  0.00    +0.000 C 
BRANCH  20  21
ATOM     21  C   UNL     1       2.007   4.860  19.232  0.00  0.00    +0.000 A 
ATOM     22  C   UNL     1       2.011   4.632  20.614  0.00  0.00    +0.000 A 
ATOM     23  C   UNL     1       1.512   3.437  21.128  0.00  0.00    +0.000 A 
ATOM     24  C   UNL     1       0.996   2.468  20.269  0.00  0.00    +0.000 A 
ATOM     25  C   UNL     1       0.967   2.694  18.896  0.00  0.00    +0.000 A 
ATOM     26  C   UNL     1       1.465   3.887  18.379  0.00  0.00    +0.000 A 
ENDBRANCH  20  21
ENDBRANCH  19  20
ENDBRANCH   4  19
TORSDOF 9
ENDMDL
MODEL 7
REMARK VINA RESULT:      -7.0      1.024      1.304
REMARK  Name = 
REMARK  9 active torsions:
REMARK  status: ('A' for Active; 'I' for Inactive)
REMARK    1  A    between atoms: C_2  and  CA_4
REMARK    2  A    between atoms: CA_4  and  C_5
REMARK    3  A    between atoms: CA_4  and  N_7
REMARK    4  A    between atoms: C_5  and  O_6
REMARK    5  A    between atoms: N_7  and  C_8
REMARK    6  A    between atoms: C_8  and  C_9
REMARK    7  A    between atoms: C_12  and  O_13
REMARK    8  A    between atoms: O_13  and  C_14
REMARK    9  A    between atoms: C_14  and  C_15
REMARK                            x       y       z     vdW  Elec       q    Type
REMARK                         _______ _______ _______ _____ _____    ______ ____
ROOT
ATOM      1  C   UNL     1       6.081   5.100  17.106  0.00  0.00    +0.000 A 
ATOM      2  C   UNL     1       5.894   6.406  16.649  0.00  0.00    +0.000 A 
ATOM      3  C   UNL     1       6.696   7.443  17.121  0.00  0.00    +0.000 A 
ATOM      4  C   UNL     1       7.680   7.192  18.081  0.00  0.00    +0.000 A 
ATOM      5  C   UNL     1       7.892   5.887  18.524  0.00  0.00    +0.000 A 
ATOM      6  C   UNL     1       7.087   4.847  18.051  0.00  0.00    +0.000 A 
ENDROOT
BRANCH   1   7
ATOM      7  C   UNL     1       5.235   3.982  16.551  0.00  0.00    +0.000 C 
BRANCH   7   8
ATOM      8  N   UNL     1       3.931   3.847  17.226  0.00  0.00    +0.000 NA
ATOM      9  H   UNL     1       3.630   4.792  17.478  0.00  0.00    +0.000 HD
BRANCH   8  10
ATOM     10  CA  UNL     1       4.023   3.064  18.495  0.00  0.00    +0.000 C 
BRANCH  10  12
ATOM     11  N   UNL     1       2.898   5.058  19.387  0.00  0.00    +0.000 N 
ATOM     12  C   UNL     1       3.224   3.752  19.606  0.00  0.00    +0.000 C 
ATOM     13  O   UNL     1       2.849   3.173  20.622  0.00  0.00    +0.000 OA
ATOM     14  H   UNL     1       2.335   5.530  20.082  0.00  0.00    +0.000 HD
ATOM     15  H   UNL     1       3.160   5.560  18.547  0.00  0.00    +0.000 HD
ENDBRANCH  10  12
BRANCH  10  16
ATOM     16  C   UNL     1       3.438   1.656  18.303  0.00  0.00    +0.000 C 
BRANCH  16  17
ATOM     17  O   UNL     1       2.015   1.701  18.193  0.00  0.00    +0.000 OA
ATOM     18  H   UNL     1       1.786   2.649  18.167  0.00  0.00    +0.000 HD
ENDBRANCH  16  17
ENDBRANCH  10  16
ENDBRANCH   8  10
ENDBRANCH   7   8
ENDBRANCH   1   7
BRANCH   4  19
ATOM     19  O   UNL     1       8.479   8.149  18.644  0.00  0.00    +0.000 OA
BRANCH  19  20
ATOM     20  C   UNL     1       8.332   9.454  18.076  0.00  0.00    +0.000 C 
BRANCH  20  21
ATOM     21  C   UNL     1       9.327  10.422  18.666  0.00  0.00    +0.000 A 
ATOM     22  C   UNL     1      10.205  11.159  17.861  0.00  0.00    +0.000 A 
ATOM     23  C   UNL     1      11.107  12.051  18.440  0.00  0.00    +0.000 A 
ATOM     24  C   UNL     1      11.129  12.222  19.824  0.00  0.00    +0.000 A 
ATOM     25  C   UNL     1      10.245  11.512  20.631  0.00  0.00    +0.000 A 
ATOM     26  C   UNL     1       9.344  10.620  20.055  0.00  0.00    +0.000 A 
ENDBRANCH  20  21
ENDBRANCH  19  20
ENDBRANCH   4  19
TORSDOF 9
ENDMDL
MODEL 8
REMARK VINA RESULT:      -6.9      4.259      5.786
REMARK  Name = 
REMARK  9 active torsions:
REMARK  status: ('A' for Active; 'I' for Inactive)
REMARK    1  A    between atoms: C_2  and  CA_4
REMARK    2  A    between atoms: CA_4  and  C_5
REMARK    3  A    between atoms: CA_4  and  N_7
REMARK    4  A    between atoms: C_5  and  O_6
REMARK    5  A    between atoms: N_7  and  C_8
REMARK    6  A    between atoms: C_8  and  C_9
REMARK    7  A    between atoms: C_12  and  O_13
REMARK    8  A    between atoms: O_13  and  C_14
REMARK    9  A    between atoms: C_14  and  C_15
REMARK                            x       y       z     vdW  Elec       q    Type
REMARK                         _______ _______ _______ _____ _____    ______ ____
ROOT
ATOM      1  C   UNL     1       3.610   5.503  19.118  0.00  0.00    +0.000 A 
ATOM      2  C   UNL     1       3.256   6.101  17.906  0.00  0.00    +0.000 A 
ATOM      3  C   UNL     1       4.226   6.396  16.951  0.00  0.00    +0.000 A 
ATOM      4  C   UNL     1       5.572   6.122  17.207  0.00  0.00    +0.000 A 
ATOM      5  C   UNL     1       5.933   5.501  18.402  0.00  0.00    +0.000 A 
ATOM      6  C   UNL     1       4.959   5.206  19.360  0.00  0.00    +0.000 A 
ENDROOT
BRANCH   1   7
ATOM      7  C   UNL     1       2.541   5.149  20.121  0.00  0.00    +0.000 C 
BRANCH   7   8
ATOM      8  N   UNL     1       1.531   4.215  19.592  0.00  0.00    +0.000 NA
ATOM      9  H   UNL     1       0.633   4.488  19.999  0.00  0.00    +0.000 HD
BRANCH   8  10
ATOM     10  CA  UNL     1       1.788   2.803  20.003  0.00  0.00    +0.000 C 
BRANCH  10  12
ATOM     11  N   UNL     1       2.294   1.935  17.762  0.00  0.00    +0.000 N 
ATOM     12  C   UNL     1       2.759   2.130  19.029  0.00  0.00    +0.000 C 
ATOM     13  O   UNL     1       3.907   1.817  19.332  0.00  0.00    +0.000 OA
ATOM     14  H   UNL     1       2.925   1.531  17.082  0.00  0.00    +0.000 HD
ATOM     15  H   UNL     1       1.366   2.210  17.464  0.00  0.00    +0.000 HD
ENDBRANCH  10  12
BRANCH  10  16
ATOM     16  C   UNL     1       2.423   2.755  21.402  0.00  0.00    +0.000 C 
BRANCH  16  17
ATOM     17  O   UNL     1       1.441   2.496  22.405  0.00  0.00    +0.000 OA
ATOM     18  H   UNL     1       0.691   2.087  21.934  0.00  0.00    +0.000 HD
ENDBRANCH  16  17
ENDBRANCH  10  16
ENDBRANCH   8  10
ENDBRANCH   7   8
ENDBRANCH   1   7
BRANCH   4  19
ATOM     19  O   UNL     1       6.602   6.423  16.358  0.00  0.00    +0.000 OA
BRANCH  19  20
ATOM     20  C   UNL     1       7.404   5.300  15.978  0.00  0.00    +0.000 C 
BRANCH  20  21
ATOM     21  C   UNL     1       7.048   4.819  14.592  0.00  0.00    +0.000 A 
ATOM     22  C   UNL     1       7.772   5.225  13.463  0.00  0.00    +0.000 A 
ATOM     23  C   UNL     1       7.420   4.755  12.199  0.00  0.00    +0.000 A 
ATOM     24  C   UNL     1       6.354   3.868  12.055  0.00  0.00    +0.000 A 
ATOM     25  C   UNL     1       5.642   3.441  13.172  0.00  0.00    +0.000 A 
ATOM     26  C   UNL     1       5.991   3.910  14.437  0.00  0.00    +0.000 A 
ENDBRANCH  20  21
ENDBRANCH  19  20
ENDBRANCH   4  19
TORSDOF 9
ENDMDL
MODEL 9
REMARK VINA RESULT:      -6.9      1.049      1.836
REMARK  Name = 
REMARK  9 active torsions:
REMARK  status: ('A' for Active; 'I' for Inactive)
REMARK    1  A    between atoms: C_2  and  CA_4
REMARK    2  A    between atoms: CA_4  and  C_5
REMARK    3  A    between atoms: CA_4  and  N_7
REMARK    4  A    between atoms: C_5  and  O_6
REMARK    5  A    between atoms: N_7  and  C_8
REMARK    6  A    between atoms: C_8  and  C_9
REMARK    7  A    between atoms: C_12  and  O_13
REMARK    8  A    between atoms: O_13  and  C_14
REMARK    9  A    between atoms: C_14  and  C_15
REMARK                            x       y       z     vdW  Elec       q    Type
REMARK                         _______ _______ _______ _____ _____    ______ ____
ROOT
ATOM      1  C   UNL     1       5.953   5.344  17.348  0.00  0.00    +0.000 A 
ATOM      2  C   UNL     1       5.873   6.625  16.798  0.00  0.00    +0.000 A 
ATOM      3  C   UNL     1       6.772   7.619  17.181  0.00  0.00    +0.000 A 
ATOM      4  C   UNL     1       7.747   7.351  18.145  0.00  0.00    +0.000 A 
ATOM      5  C   UNL     1       7.852   6.069  18.682  0.00  0.00    +0.000 A 
ATOM      6  C   UNL     1       6.950   5.072  18.296  0.00  0.00    +0.000 A 
ENDROOT
BRANCH   1   7
ATOM      7  C   UNL     1       5.001   4.268  16.887  0.00  0.00    +0.000 C 
BRANCH   7   8
ATOM      8  N   UNL     1       3.619   4.475  17.356  0.00  0.00    +0.000 NA
ATOM      9  H   UNL     1       3.589   5.399  17.793  0.00  0.00    +0.000 HD
BRANCH   8  10
ATOM     10  CA  UNL     1       3.215   3.484  18.398  0.00  0.00    +0.000 C 
BRANCH  10  12
ATOM     11  N   UNL     1       1.471   4.334  19.906  0.00  0.00    +0.000 N 
ATOM     12  C   UNL     1       1.734   3.656  18.753  0.00  0.00    +0.000 C 
ATOM     13  O   UNL     1       0.821   3.256  18.036  0.00  0.00    +0.000 OA
ATOM     14  H   UNL     1       0.503   4.501  20.147  0.00  0.00    +0.000 HD
ATOM     15  H   UNL     1       2.196   4.709  20.505  0.00  0.00    +0.000 HD
ENDBRANCH  10  12
BRANCH  10  16
ATOM     16  C   UNL     1       3.407   2.049  17.882  0.00  0.00    +0.000 C 
BRANCH  16  17
ATOM     17  O   UNL     1       2.616   1.124  18.627  0.00  0.00    +0.000 OA
ATOM     18  H   UNL     1       1.757   1.567  18.761  0.00  0.00    +0.000 HD
ENDBRANCH  16  17
ENDBRANCH  10  16
ENDBRANCH   8  10
ENDBRANCH   7   8
ENDBRANCH   1   7
BRANCH   4  19
ATOM     19  O   UNL     1       8.638   8.272  18.626  0.00  0.00    +0.000 OA
BRANCH  19  20
ATOM     20  C   UNL     1       8.448   9.599  18.124  0.00  0.00    +0.000 C 
BRANCH  20  21
ATOM     21  C   UNL     1       9.428  10.563  18.747  0.00  0.00    +0.000 A 
ATOM     22  C   UNL     1       9.456  10.794  20.128  0.00  0.00    +0.000 A 
ATOM     23  C   UNL     1      10.380  11.686  20.671  0.00  0.00    +0.000 A 
ATOM     24  C   UNL     1      11.290  12.341  19.842  0.00  0.00    +0.000 A 
ATOM     25  C   UNL     1      11.285  12.101  18.470  0.00  0.00    +0.000 A 
ATOM     26  C   UNL     1      10.363  11.211  17.925  0.00  0.00    +0.000 A 
ENDBRANCH  20  21
ENDBRANCH  19  20
ENDBRANCH   4  19
TORSDOF 9
ENDMDL
