MODEL 1
REMARK VINA RESULT:      -6.9      0.000      0.000
REMARK  Name = 
REMARK  5 active torsions:
REMARK  status: ('A' for Active; 'I' for Inactive)
REMARK    1  A    between atoms: C_2  and  C_3
REMARK    2  A    between atoms: C_3  and  C_4
REMARK    3  A    between atoms: C_4  and  O_5
REMARK    4  A    between atoms: C_14  and  O_15
REMARK    5  A    between atoms: C_22  and  C_23
REMARK                            x       y       z     vdW  Elec       q    Type
REMARK                         _______ _______ _______ _____ _____    ______ ____
ROOT
ATOM      1  C   UNL     1       1.715   3.256  18.444  0.00  0.00    +0.000 C 
ATOM      2  C   UNL     1       1.649   4.407  17.455  0.00  0.00    +0.000 C 
ATOM      3  C   UNL     1       3.047   4.945  17.620  0.00  0.00    +0.000 C 
ATOM      4  C   UNL     1       3.031   5.337  19.078  0.00  0.00    +0.000 C 
ATOM      5  C   UNL     1       2.467   6.769  19.037  0.00  0.00    +0.000 C 
ATOM      6  C   UNL     1       3.345   7.760  18.221  0.00  0.00    +0.000 C 
ATOM      7  C   UNL     1       2.344   8.594  17.450  0.00  0.00    +0.000 C 
ATOM      8  C   UNL     1       1.297   9.144  18.395  0.00  0.00    +0.000 A 
ATOM      9  C   UNL     1       0.410  10.078  17.846  0.00  0.00    +0.000 A 
ATOM     10  C   UNL     1      -0.564  10.631  18.654  0.00  0.00    +0.000 A 
ATOM     11  C   UNL     1      -0.684  10.263  19.977  0.00  0.00    +0.000 A 
ATOM     12  C   UNL     1       0.160   9.290  20.530  0.00  0.00    +0.000 A 
ATOM     13  C   UNL     1       1.147   8.676  19.747  0.00  0.00    +0.000 A 
ATOM     14  C   UNL     1       2.049   7.519  20.281  0.00  0.00    +0.000 C 
ATOM     15  C   UNL     1       1.482   6.463  21.232  0.00  0.00    +0.000 C 
ATOM     16  C   UNL     1       2.361   5.136  21.237  0.00  0.00    +0.000 C 
ATOM     17  C   UNL     1       2.269   4.098  19.934  0.00  0.00    +0.000 C 
ATOM     18  C   UNL     1       0.770   3.825  20.540  0.00  0.00    +0.000 C 
ENDROOT
BRANCH   1  19
ATOM     19  O   UNL     1       0.402   2.652  18.465  0.00  0.00    +0.000 OA
ATOM     20  H   UNL     1       0.145   2.552  19.398  0.00  0.00    +0.000 HD
ENDBRANCH   1  19
BRANCH  10  21
ATOM     21  O   UNL     1      -1.452  11.534  18.130  0.00  0.00    +0.000 OA
ATOM     22  H   UNL     1      -0.937  12.236  17.679  0.00  0.00    +0.000 HD
ENDBRANCH  10  21
BRANCH   1  23
ATOM     23  C   UNL     1       2.527   2.208  17.534  0.00  0.00    +0.000 C 
BRANCH  23  25
ATOM     24  C   UNL     1       4.163   1.367  19.161  0.00  0.00    +0.000 C 
ATOM     25  C   UNL     1       3.744   1.418  17.887  0.00  0.00    +0.000 C 
ENDBRANCH  23  25
ENDBRANCH   1  23
TORSDOF 4
ENDMDL
MODEL 2
REMARK VINA RESULT:      -6.6      3.725      6.172
REMARK  Name = 
REMARK  5 active torsions:
REMARK  status: ('A' for Active; 'I' for Inactive)
REMARK    1  A    between atoms: C_2  and  C_3
REMARK    2  A    between atoms: C_3  and  C_4
REMARK    3  A    between atoms: C_4  and  O_5
REMARK    4  A    between atoms: C_14  and  O_15
REMARK    5  A    between atoms: C_22  and  C_23
REMARK                            x       y       z     vdW  Elec       q    Type
REMARK                         _______ _______ _______ _____ _____    ______ ____
ROOT
ATOM      1  C   UNL     1       6.829   4.909  16.050  0.00  0.00    +0.000 C 
ATOM      2  C   UNL     1       6.079   3.633  16.394  0.00  0.00    +0.000 C 
ATOM      3  C   UNL     1       4.880   3.810  15.498  0.00  0.00    +0.000 C 
ATOM      4  C   UNL     1       4.292   5.082  16.059  0.00  0.00    +0.000 C 
ATOM      5  C   UNL     1       3.388   4.567  17.194  0.00  0.00    +0.000 C 
ATOM      6  C   UNL     1       2.258   3.618  16.705  0.00  0.00    +0.000 C 
ATOM      7  C   UNL     1       2.214   2.524  17.750  0.00  0.00    +0.000 C 
ATOM      8  C   UNL     1       2.116   3.136  19.132  0.00  0.00    +0.000 A 
ATOM      9  C   UNL     1       1.890   2.238  20.181  0.00  0.00    +0.000 A 
ATOM     10  C   UNL     1       1.778   2.728  21.468  0.00  0.00    +0.000 A 
ATOM     11  C   UNL     1       1.904   4.075  21.730  0.00  0.00    +0.000 A 
ATOM     12  C   UNL     1       2.185   4.982  20.698  0.00  0.00    +0.000 A 
ATOM     13  C   UNL     1       2.337   4.535  19.379  0.00  0.00    +0.000 A 
ATOM     14  C   UNL     1       2.746   5.484  18.208  0.00  0.00    +0.000 C 
ATOM     15  C   UNL     1       3.747   6.618  18.436  0.00  0.00    +0.000 C 
ATOM     16  C   UNL     1       4.407   7.109  17.074  0.00  0.00    +0.000 C 
ATOM     17  C   UNL     1       5.564   6.154  16.343  0.00  0.00    +0.000 C 
ATOM     18  C   UNL     1       6.451   6.622  17.641  0.00  0.00    +0.000 C 
ENDROOT
BRANCH   1  19
ATOM     19  O   UNL     1       8.005   4.937  16.889  0.00  0.00    +0.000 OA
ATOM     20  H   UNL     1       7.920   4.209  17.530  0.00  0.00    +0.000 HD
ENDBRANCH   1  19
BRANCH  10  21
ATOM     21  O   UNL     1       1.573   1.863  22.510  0.00  0.00    +0.000 OA
ATOM     22  H   UNL     1       0.787   2.171  23.009  0.00  0.00    +0.000 HD
ENDBRANCH  10  21
BRANCH   1  23
ATOM     23  C   UNL     1       7.457   4.442  14.645  0.00  0.00    +0.000 C 
BRANCH  23  25
ATOM     24  C   UNL     1       7.082   4.346  12.220  0.00  0.00    +0.000 C 
ATOM     25  C   UNL     1       7.329   5.093  13.307  0.00  0.00    +0.000 C 
ENDBRANCH  23  25
ENDBRANCH   1  23
TORSDOF 4
ENDMDL
MODEL 3
REMARK VINA RESULT:      -6.0      3.785      5.926
REMARK  Name = 
REMARK  5 active torsions:
REMARK  status: ('A' for Active; 'I' for Inactive)
REMARK    1  A    between atoms: C_2  and  C_3
REMARK    2  A    between atoms: C_3  and  C_4
REMARK    3  A    between atoms: C_4  and  O_5
REMARK    4  A    between atoms: C_14  and  O_15
REMARK    5  A    between atoms: C_22  and  C_23
REMARK                            x       y       z     vdW  Elec       q    Type
REMARK                         _______ _______ _______ _____ _____    ______ ____
ROOT
ATOM      1  C   UNL     1       6.978   5.065  15.344  0.00  0.00    +0.000 C 
ATOM      2  C   UNL     1       5.463   5.034  15.240  0.00  0.00    +0.000 C 
ATOM      3  C   UNL     1       5.170   6.476  15.568  0.00  0.00    +0.000 C 
ATOM      4  C   UNL     1       5.725   6.568  16.968  0.00  0.00    +0.000 C 
ATOM      5  C   UNL     1       4.537   6.113  17.835  0.00  0.00    +0.000 C 
ATOM      6  C   UNL     1       3.281   7.018  17.691  0.00  0.00    +0.000 C 
ATOM      7  C   UNL     1       2.123   6.044  17.657  0.00  0.00    +0.000 C 
ATOM      8  C   UNL     1       2.215   5.093  18.832  0.00  0.00    +0.000 A 
ATOM      9  C   UNL     1       1.113   4.253  19.023  0.00  0.00    +0.000 A 
ATOM     10  C   UNL     1       1.124   3.367  20.084  0.00  0.00    +0.000 A 
ATOM     11  C   UNL     1       2.205   3.291  20.936  0.00  0.00    +0.000 A 
ATOM     12  C   UNL     1       3.340   4.087  20.727  0.00  0.00    +0.000 A 
ATOM     13  C   UNL     1       3.393   4.981  19.649  0.00  0.00    +0.000 A 
ATOM     14  C   UNL     1       4.666   5.820  19.311  0.00  0.00    +0.000 C 
ATOM     15  C   UNL     1       6.063   5.226  19.497  0.00  0.00    +0.000 C 
ATOM     16  C   UNL     1       7.156   6.001  18.637  0.00  0.00    +0.000 C 
ATOM     17  C   UNL     1       7.208   5.761  16.987  0.00  0.00    +0.000 C 
ATOM     18  C   UNL     1       7.745   4.280  17.442  0.00  0.00    +0.000 C 
ENDROOT
BRANCH   1  19
ATOM     19  O   UNL     1       7.436   3.713  15.118  0.00  0.00    +0.000 OA
ATOM     20  H   UNL     1       6.658   3.132  15.173  0.00  0.00    +0.000 HD
ENDBRANCH   1  19
BRANCH  10  21
ATOM     21  O   UNL     1       0.061   2.524  20.278  0.00  0.00    +0.000 OA
ATOM     22  H   UNL     1      -0.454   2.858  21.042  0.00  0.00    +0.000 HD
ENDBRANCH  10  21
BRANCH   1  23
ATOM     23  C   UNL     1       7.298   5.746  13.922  0.00  0.00    +0.000 C 
BRANCH  23  25
ATOM     24  C   UNL     1       7.058   4.245  11.993  0.00  0.00    +0.000 C 
ATOM     25  C   UNL     1       7.826   5.104  12.682  0.00  0.00    +0.000 C 
ENDBRANCH  23  25
ENDBRANCH   1  23
TORSDOF 4
ENDMDL
MODEL 4
REMARK VINA RESULT:      -5.9      9.684     12.090
REMARK  Name = 
REMARK  5 active torsions:
REMARK  status: ('A' for Active; 'I' for Inactive)
REMARK    1  A    between atoms: C_2  and  C_3
REMARK    2  A    between atoms: C_3  and  C_4
REMARK    3  A    between atoms: C_4  and  O_5
REMARK    4  A    between atoms: C_14  and  O_15
REMARK    5  A    between atoms: C_22  and  C_23
REMARK                            x       y       z     vdW  Elec       q    Type
REMARK                         _______ _______ _______ _____ _____    ______ ____
ROOT
ATOM      1  C   UNL     1       9.138  15.151  18.165  0.00  0.00    +0.000 C 
ATOM      2  C   UNL     1       8.567  15.837  19.394  0.00  0.00    +0.000 C 
ATOM      3  C   UNL     1       9.846  16.060  20.160  0.00  0.00    +0.000 C 
ATOM      4  C   UNL     1      10.308  14.638  20.364  0.00  0.00    +0.000 C 
ATOM      5  C   UNL     1       9.584  14.229  21.660  0.00  0.00    +0.000 C 
ATOM      6  C   UNL     1       9.967  15.102  22.888  0.00  0.00    +0.000 C 
ATOM      7  C   UNL     1       8.654  15.328  23.607  0.00  0.00    +0.000 C 
ATOM      8  C   UNL     1       7.958  14.002  23.834  0.00  0.00    +0.000 A 
ATOM      9  C   UNL     1       6.818  14.044  24.645  0.00  0.00    +0.000 A 
ATOM     10  C   UNL     1       6.139  12.869  24.905  0.00  0.00    +0.000 A 
ATOM     11  C   UNL     1       6.557  11.671  24.365  0.00  0.00    +0.000 A 
ATOM     12  C   UNL     1       7.665  11.620  23.507  0.00  0.00    +0.000 A 
ATOM     13  C   UNL     1       8.372  12.786  23.187  0.00  0.00    +0.000 A 
ATOM     14  C   UNL     1       9.551  12.804  22.162  0.00  0.00    +0.000 C 
ATOM     15  C   UNL     1       9.512  11.923  20.913  0.00  0.00    +0.000 C 
ATOM     16  C   UNL     1      10.500  12.452  19.783  0.00  0.00    +0.000 C 
ATOM     17  C   UNL     1      10.079  13.811  18.911  0.00  0.00    +0.000 C 
ATOM     18  C   UNL     1       8.952  12.793  18.291  0.00  0.00    +0.000 C 
ENDROOT
BRANCH   1  19
ATOM     19  O   UNL     1       8.014  14.796  17.328  0.00  0.00    +0.000 OA
ATOM     20  H   UNL     1       7.937  13.826  17.346  0.00  0.00    +0.000 HD
ENDBRANCH   1  19
BRANCH  10  21
ATOM     21  O   UNL     1       5.011  12.892  25.682  0.00  0.00    +0.000 OA
ATOM     22  H   UNL     1       4.522  13.718  25.481  0.00  0.00    +0.000 HD
ENDBRANCH  10  21
BRANCH   1  23
ATOM     23  C   UNL     1       9.696  16.454  17.405  0.00  0.00    +0.000 C 
BRANCH  23  25
ATOM     24  C   UNL     1      11.747  17.805  17.444  0.00  0.00    +0.000 C 
ATOM     25  C   UNL     1      11.090  16.742  16.954  0.00  0.00    +0.000 C 
ENDBRANCH  23  25
ENDBRANCH   1  23
TORSDOF 4
ENDMDL
MODEL 5
REMARK VINA RESULT:      -5.9      3.526      6.639
REMARK  Name = 
REMARK  5 active torsions:
REMARK  status: ('A' for Active; 'I' for Inactive)
REMARK    1  A    between atoms: C_2  and  C_3
REMARK    2  A    between atoms: C_3  and  C_4
REMARK    3  A    between atoms: C_4  and  O_5
REMARK    4  A    between atoms: C_14  and  O_15
REMARK    5  A    between atoms: C_22  and  C_23
REMARK                            x       y       z     vdW  Elec       q    Type
REMARK                         _______ _______ _______ _____ _____    ______ ____
ROOT
ATOM      1  C   UNL     1       0.082   9.220  21.782  0.00  0.00    +0.000 C 
ATOM      2  C   UNL     1      -0.597   9.030  20.437  0.00  0.00    +0.000 C 
ATOM      3  C   UNL     1       0.140  10.079  19.645  0.00  0.00    +0.000 C 
ATOM      4  C   UNL     1      -0.247  11.328  20.398  0.00  0.00    +0.000 C 
ATOM      5  C   UNL     1      -1.574  11.731  19.728  0.00  0.00    +0.000 C 
ATOM      6  C   UNL     1      -1.435  12.037  18.210  0.00  0.00    +0.000 C 
ATOM      7  C   UNL     1      -2.663  11.406  17.591  0.00  0.00    +0.000 C 
ATOM      8  C   UNL     1      -3.905  11.867  18.325  0.00  0.00    +0.000 A 
ATOM      9  C   UNL     1      -5.126  11.500  17.748  0.00  0.00    +0.000 A 
ATOM     10  C   UNL     1      -6.300  11.897  18.357  0.00  0.00    +0.000 A 
ATOM     11  C   UNL     1      -6.283  12.627  19.527  0.00  0.00    +0.000 A 
ATOM     12  C   UNL     1      -5.070  12.957  20.148  0.00  0.00    +0.000 A 
ATOM     13  C   UNL     1      -3.851  12.554  19.587  0.00  0.00    +0.000 A 
ATOM     14  C   UNL     1      -2.476  12.808  20.285  0.00  0.00    +0.000 C 
ATOM     15  C   UNL     1      -2.345  12.716  21.805  0.00  0.00    +0.000 C 
ATOM     16  C   UNL     1      -0.836  12.489  22.258  0.00  0.00    +0.000 C 
ATOM     17  C   UNL     1      -0.144  10.985  22.048  0.00  0.00    +0.000 C 
ATOM     18  C   UNL     1      -1.195  10.581  23.241  0.00  0.00    +0.000 C 
ENDROOT
BRANCH   1  19
ATOM     19  O   UNL     1      -0.564   8.315  22.704  0.00  0.00    +0.000 OA
ATOM     20  H   UNL     1      -1.441   8.686  22.907  0.00  0.00    +0.000 HD
ENDBRANCH   1  19
BRANCH  10  21
ATOM     21  O   UNL     1      -7.505  11.534  17.816  0.00  0.00    +0.000 OA
ATOM     22  H   UNL     1      -7.483  10.568  17.649  0.00  0.00    +0.000 HD
ENDBRANCH  10  21
BRANCH   1  23
ATOM     23  C   UNL     1       1.448   8.429  21.471  0.00  0.00    +0.000 C 
BRANCH  23  25
ATOM     24  C   UNL     1       2.354   7.020  19.676  0.00  0.00    +0.000 C 
ATOM     25  C   UNL     1       1.624   7.108  20.798  0.00  0.00    +0.000 C 
ENDBRANCH  23  25
ENDBRANCH   1  23
TORSDOF 4
ENDMDL
MODEL 6
REMARK VINA RESULT:      -5.8     10.039     11.687
REMARK  Name = 
REMARK  5 active torsions:
REMARK  status: ('A' for Active; 'I' for Inactive)
REMARK    1  A    between atoms: C_2  and  C_3
REMARK    2  A    between atoms: C_3  and  C_4
REMARK    3  A    between atoms: C_4  and  O_5
REMARK    4  A    between atoms: C_14  and  O_15
REMARK    5  A    between atoms: C_22  and  C_23
REMARK                            x       y       z     vdW  Elec       q    Type
REMARK                         _______ _______ _______ _____ _____    ______ ____
ROOT
ATOM      1  C   UNL     1       9.671  10.952  18.726  0.00  0.00    +0.000 C 
ATOM      2  C   UNL     1       8.670  12.013  19.148  0.00  0.00    +0.000 C 
ATOM      3  C   UNL     1       8.551  12.762  17.846  0.00  0.00    +0.000 C 
ATOM      4  C   UNL     1       9.970  13.243  17.663  0.00  0.00    +0.000 C 
ATOM      5  C   UNL     1       9.982  14.569  18.444  0.00  0.00    +0.000 C 
ATOM      6  C   UNL     1       8.980  15.623  17.893  0.00  0.00    +0.000 C 
ATOM      7  C   UNL     1       8.378  16.247  19.134  0.00  0.00    +0.000 C 
ATOM      8  C   UNL     1       9.481  16.697  20.070  0.00  0.00    +0.000 A 
ATOM      9  C   UNL     1       9.072  17.451  21.176  0.00  0.00    +0.000 A 
ATOM     10  C   UNL     1      10.027  17.905  22.065  0.00  0.00    +0.000 A 
ATOM     11  C   UNL     1      11.362  17.612  21.888  0.00  0.00    +0.000 A 
ATOM     12  C   UNL     1      11.783  16.813  20.815  0.00  0.00    +0.000 A 
ATOM     13  C   UNL     1      10.853  16.302  19.900  0.00  0.00    +0.000 A 
ATOM     14  C   UNL     1      11.253  15.328  18.746  0.00  0.00    +0.000 C 
ATOM     15  C   UNL     1      12.331  14.266  18.960  0.00  0.00    +0.000 C 
ATOM     16  C   UNL     1      12.222  13.086  17.896  0.00  0.00    +0.000 C 
ATOM     17  C   UNL     1      10.999  11.963  18.054  0.00  0.00    +0.000 C 
ATOM     18  C   UNL     1      11.884  11.512  19.359  0.00  0.00    +0.000 C 
ENDROOT
BRANCH   1  19
ATOM     19  O   UNL     1       9.959  10.163  19.902  0.00  0.00    +0.000 OA
ATOM     20  H   UNL     1      10.517   9.417  19.620  0.00  0.00    +0.000 HD
ENDBRANCH   1  19
BRANCH  10  21
ATOM     21  O   UNL     1       9.644  18.630  23.163  0.00  0.00    +0.000 OA
ATOM     22  H   UNL     1       8.674  18.528  23.270  0.00  0.00    +0.000 HD
ENDBRANCH  10  21
BRANCH   1  23
ATOM     23  C   UNL     1       8.665   9.979  17.934  0.00  0.00    +0.000 C 
BRANCH  23  25
ATOM     24  C   UNL     1       7.487   7.886  17.420  0.00  0.00    +0.000 C 
ATOM     25  C   UNL     1       8.336   8.551  18.219  0.00  0.00    +0.000 C 
ENDBRANCH  23  25
ENDBRANCH   1  23
TORSDOF 4
ENDMDL
MODEL 7
REMARK VINA RESULT:      -5.7      5.633      9.539
REMARK  Name = 
REMARK  5 active torsions:
REMARK  status: ('A' for Active; 'I' for Inactive)
REMARK    1  A    between atoms: C_2  and  C_3
REMARK    2  A    between atoms: C_3  and  C_4
REMARK    3  A    between atoms: C_4  and  O_5
REMARK    4  A    between atoms: C_14  and  O_15
REMARK    5  A    between atoms: C_22  and  C_23
REMARK                            x       y       z     vdW  Elec       q    Type
REMARK                         _______ _______ _______ _____ _____    ______ ____
ROOT
ATOM      1  C   UNL     1      -6.357  11.544  18.733  0.00  0.00    +0.000 C 
ATOM      2  C   UNL     1      -5.893  11.865  20.143  0.00  0.00    +0.000 C 
ATOM      3  C   UNL     1      -5.214  13.185  19.878  0.00  0.00    +0.000 C 
ATOM      4  C   UNL     1      -4.130  12.759  18.918  0.00  0.00    +0.000 C 
ATOM      5  C   UNL     1      -2.987  12.342  19.861  0.00  0.00    +0.000 C 
ATOM      6  C   UNL     1      -2.480  13.496  20.771  0.00  0.00    +0.000 C 
ATOM      7  C   UNL     1      -2.265  12.839  22.118  0.00  0.00    +0.000 C 
ATOM      8  C   UNL     1      -1.410  11.600  21.955  0.00  0.00    +0.000 A 
ATOM      9  C   UNL     1      -0.985  10.992  23.142  0.00  0.00    +0.000 A 
ATOM     10  C   UNL     1      -0.192   9.864  23.069  0.00  0.00    +0.000 A 
ATOM     11  C   UNL     1       0.166   9.323  21.853  0.00  0.00    +0.000 A 
ATOM     12  C   UNL     1      -0.295   9.886  20.654  0.00  0.00    +0.000 A 
ATOM     13  C   UNL     1      -1.126  11.015  20.672  0.00  0.00    +0.000 A 
ATOM     14  C   UNL     1      -1.748  11.625  19.376  0.00  0.00    +0.000 C 
ATOM     15  C   UNL     1      -2.211  10.721  18.233  0.00  0.00    +0.000 C 
ATOM     16  C   UNL     1      -3.253  11.456  17.279  0.00  0.00    +0.000 C 
ATOM     17  C   UNL     1      -4.817  11.684  17.812  0.00  0.00    +0.000 C 
ATOM     18  C   UNL     1      -4.882  10.056  17.627  0.00  0.00    +0.000 C 
ENDROOT
BRANCH   1  19
ATOM     19  O   UNL     1      -6.987  10.245  18.790  0.00  0.00    +0.000 OA
ATOM     20  H   UNL     1      -6.769   9.781  17.963  0.00  0.00    +0.000 HD
ENDBRANCH   1  19
BRANCH  10  21
ATOM     21  O   UNL     1       0.220   9.245  24.220  0.00  0.00    +0.000 OA
ATOM     22  H   UNL     1       0.435   9.941  24.877  0.00  0.00    +0.000 HD
ENDBRANCH  10  21
BRANCH   1  23
ATOM     23  C   UNL     1      -7.639  12.513  18.679  0.00  0.00    +0.000 C 
BRANCH  23  25
ATOM     24  C   UNL     1      -7.299  13.919  16.695  0.00  0.00    +0.000 C 
ATOM     25  C   UNL     1      -7.805  13.795  17.931  0.00  0.00    +0.000 C 
ENDBRANCH  23  25
ENDBRANCH   1  23
TORSDOF 4
ENDMDL
MODEL 8
REMARK VINA RESULT:      -5.5      4.327      9.544
REMARK  Name = 
REMARK  5 active torsions:
REMARK  status: ('A' for Active; 'I' for Inactive)
REMARK    1  A    between atoms: C_2  and  C_3
REMARK    2  A    between atoms: C_3  and  C_4
REMARK    3  A    between atoms: C_4  and  O_5
REMARK    4  A    between atoms: C_14  and  O_15
REMARK    5  A    between atoms: C_22  and  C_23
REMARK                            x       y       z     vdW  Elec       q    Type
REMARK                         _______ _______ _______ _____ _____    ______ ____
ROOT
ATOM      1  C   UNL     1       0.731  15.971  19.894  0.00  0.00    +0.000 C 
ATOM      2  C   UNL     1       0.964  14.785  18.974  0.00  0.00    +0.000 C 
ATOM      3  C   UNL     1      -0.463  14.505  18.578  0.00  0.00    +0.000 C 
ATOM      4  C   UNL     1      -1.072  14.178  19.920  0.00  0.00    +0.000 C 
ATOM      5  C   UNL     1      -0.797  12.670  20.059  0.00  0.00    +0.000 C 
ATOM      6  C   UNL     1      -1.458  11.812  18.942  0.00  0.00    +0.000 C 
ATOM      7  C   UNL     1      -0.404  10.786  18.589  0.00  0.00    +0.000 C 
ATOM      8  C   UNL     1       0.091  10.103  19.847  0.00  0.00    +0.000 A 
ATOM      9  C   UNL     1       0.940   9.007  19.652  0.00  0.00    +0.000 A 
ATOM     10  C   UNL     1       1.419   8.328  20.756  0.00  0.00    +0.000 A 
ATOM     11  C   UNL     1       1.090   8.725  22.034  0.00  0.00    +0.000 A 
ATOM     12  C   UNL     1       0.285   9.853  22.249  0.00  0.00    +0.000 A 
ATOM     13  C   UNL     1      -0.205  10.595  21.166  0.00  0.00    +0.000 A 
ATOM     14  C   UNL     1      -1.023  11.913  21.347  0.00  0.00    +0.000 C 
ATOM     15  C   UNL     1      -0.684  12.893  22.470  0.00  0.00    +0.000 C 
ATOM     16  C   UNL     1      -1.250  14.352  22.176  0.00  0.00    +0.000 C 
ATOM     17  C   UNL     1      -0.488  15.302  21.036  0.00  0.00    +0.000 C 
ATOM     18  C   UNL     1       0.691  15.336  22.176  0.00  0.00    +0.000 C 
ENDROOT
BRANCH   1  19
ATOM     19  O   UNL     1       2.022  16.338  20.431  0.00  0.00    +0.000 OA
ATOM     20  H   UNL     1       1.867  16.737  21.306  0.00  0.00    +0.000 HD
ENDBRANCH   1  19
BRANCH  10  21
ATOM     21  O   UNL     1       2.265   7.264  20.585  0.00  0.00    +0.000 OA
ATOM     22  H   UNL     1       1.767   6.445  20.794  0.00  0.00    +0.000 HD
ENDBRANCH  10  21
BRANCH   1  23
ATOM     23  C   UNL     1       0.525  17.104  18.772  0.00  0.00    +0.000 C 
BRANCH  23  25
ATOM     24  C   UNL     1       1.079  18.356  16.733  0.00  0.00    +0.000 C 
ATOM     25  C   UNL     1       1.501  17.591  17.752  0.00  0.00    +0.000 C 
ENDBRANCH  23  25
ENDBRANCH   1  23
TORSDOF 4
ENDMDL
MODEL 9
REMARK VINA RESULT:      -5.5      4.436      7.911
REMARK  Name = 
REMARK  5 active torsions:
REMARK  status: ('A' for Active; 'I' for Inactive)
REMARK    1  A    between atoms: C_2  and  C_3
REMARK    2  A    between atoms: C_3  and  C_4
REMARK    3  A    between atoms: C_4  and  O_5
REMARK    4  A    between atoms: C_14  and  O_15
REMARK    5  A    between atoms: C_22  and  C_23
REMARK                            x       y       z     vdW  Elec       q    Type
REMARK                         _______ _______ _______ _____ _____    ______ ____
ROOT
ATOM      1  C   UNL     1      -0.227  10.242  19.833  0.00  0.00    +0.000 C 
ATOM      2  C   UNL     1      -1.693  10.393  19.466  0.00  0.00    +0.000 C 
ATOM      3  C   UNL     1      -1.660  11.797  18.918  0.00  0.00    +0.000 C 
ATOM      4  C   UNL     1      -1.211  12.567  20.135  0.00  0.00    +0.000 C 
ATOM      5  C   UNL     1      -2.538  12.863  20.858  0.00  0.00    +0.000 C 
ATOM      6  C   UNL     1      -3.528  13.715  20.014  0.00  0.00    +0.000 C 
ATOM      7  C   UNL     1      -4.878  13.080  20.273  0.00  0.00    +0.000 C 
ATOM      8  C   UNL     1      -5.106  12.947  21.764  0.00  0.00    +0.000 A 
ATOM      9  C   UNL     1      -6.388  12.538  22.149  0.00  0.00    +0.000 A 
ATOM     10  C   UNL     1      -6.671  12.407  23.495  0.00  0.00    +0.000 A 
ATOM     11  C   UNL     1      -5.710  12.652  24.452  0.00  0.00    +0.000 A 
ATOM     12  C   UNL     1      -4.405  13.010  24.082  0.00  0.00    +0.000 A 
ATOM     13  C   UNL     1      -4.057  13.130  22.730  0.00  0.00    +0.000 A 
ATOM     14  C   UNL     1      -2.599  13.429  22.258  0.00  0.00    +0.000 C 
ATOM     15  C   UNL     1      -1.401  12.832  22.999  0.00  0.00    +0.000 C 
ATOM     16  C   UNL     1      -0.091  12.815  22.094  0.00  0.00    +0.000 C 
ATOM     17  C   UNL     1       0.031  11.691  20.868  0.00  0.00    +0.000 C 
ATOM     18  C   UNL     1       0.164  10.655  22.132  0.00  0.00    +0.000 C 
ENDROOT
BRANCH   1  19
ATOM     19  O   UNL     1      -0.086   8.943  20.450  0.00  0.00    +0.000 OA
ATOM     20  H   UNL     1      -0.589   8.310  19.909  0.00  0.00    +0.000 HD
ENDBRANCH   1  19
BRANCH  10  21
ATOM     21  O   UNL     1      -7.915  11.991  23.892  0.00  0.00    +0.000 OA
ATOM     22  H   UNL     1      -8.573  12.375  23.275  0.00  0.00    +0.000 HD
ENDBRANCH  10  21
BRANCH   1  23
ATOM     23  C   UNL     1       0.356   9.955  18.361  0.00  0.00    +0.000 C 
BRANCH  23  25
ATOM     24  C   UNL     1       2.239   8.473  17.824  0.00  0.00    +0.000 C 
ATOM     25  C   UNL     1       1.774   9.725  17.952  0.00  0.00    +0.000 C 
ENDBRANCH  23  25
ENDBRANCH   1  23
TORSDOF 4
ENDMDL
