MODEL 1
REMARK VINA RESULT:      -7.3      0.000      0.000
REMARK  Name = 
REMARK  4 active torsions:
REMARK  status: ('A' for Active; 'I' for Inactive)
REMARK    1  A    between atoms: C_2  and  OXT_3
REMARK    2  A    between atoms: C_2  and  CA_4
REMARK    3  A    between atoms: C_6  and  O_7
REMARK    4  A    between atoms: C_11  and  N_12
REMARK                            x       y       z     vdW  Elec       q    Type
REMARK                         _______ _______ _______ _____ _____    ______ ____
ROOT
ATOM      1  CA  UNL     1       2.555   4.245  20.237  0.00  0.00    +0.000 A 
ATOM      2  C   UNL     1       2.064   5.533  20.306  0.00  0.00    +0.000 A 
ATOM      3  C   UNL     1       2.575   6.444  19.400  0.00  0.00    +0.000 A 
ATOM      4  C   UNL     1       3.539   6.059  18.451  0.00  0.00    +0.000 A 
ATOM      5  C   UNL     1       4.067   6.960  17.500  0.00  0.00    +0.000 A 
ATOM      6  C   UNL     1       5.004   6.538  16.561  0.00  0.00    +0.000 A 
ATOM      7  C   UNL     1       5.421   5.206  16.577  0.00  0.00    +0.000 A 
ATOM      8  C   UNL     1       4.913   4.308  17.528  0.00  0.00    +0.000 A 
ATOM      9  C   UNL     1       3.974   4.714  18.466  0.00  0.00    +0.000 A 
ATOM     10  N   UNL     1       3.500   3.814  19.348  0.00  0.00    +0.000 NA
ENDROOT
BRANCH   7  11
ATOM     11  N   UNL     1       6.392   4.741  15.580  0.00  0.00    +0.000 N 
ATOM     12  O   UNL     1       6.190   3.640  15.048  0.00  0.00    +0.000 OA
ATOM     13  O   UNL     1       7.358   5.475  15.333  0.00  0.00    +0.000 OA
ENDBRANCH   7  11
BRANCH   1  15
ATOM     14  O   UNL     1       2.712   2.657  22.033  0.00  0.00    +0.000 OA
ATOM     15  C   UNL     1       2.040   3.211  21.182  0.00  0.00    +0.000 C 
BRANCH  15  16
ATOM     16  OXT UNL     1       0.726   2.971  20.962  0.00  0.00    +0.000 OA
ATOM     17  HXT UNL     1       0.567   1.998  20.981  0.00  0.00    +0.000 HD
ENDBRANCH  15  16
ENDBRANCH   1  15
BRANCH   3  18
ATOM     18  O   UNL     1       2.134   7.740  19.414  0.00  0.00    +0.000 OA
ATOM     19  H   UNL     1       2.613   8.261  18.747  0.00  0.00    +0.000 HD
ENDBRANCH   3  18
TORSDOF 4
ENDMDL
MODEL 2
REMARK VINA RESULT:      -7.3      1.369      5.492
REMARK  Name = 
REMARK  4 active torsions:
REMARK  status: ('A' for Active; 'I' for Inactive)
REMARK    1  A    between atoms: C_2  and  OXT_3
REMARK    2  A    between atoms: C_2  and  CA_4
REMARK    3  A    between atoms: C_6  and  O_7
REMARK    4  A    between atoms: C_11  and  N_12
REMARK                            x       y       z     vdW  Elec       q    Type
REMARK                         _______ _______ _______ _____ _____    ______ ____
ROOT
ATOM      1  CA  UNL     1       5.909   5.289  17.174  0.00  0.00    +0.000 A 
ATOM      2  C   UNL     1       5.263   6.486  16.933  0.00  0.00    +0.000 A 
ATOM      3  C   UNL     1       4.092   6.714  17.632  0.00  0.00    +0.000 A 
ATOM      4  C   UNL     1       3.601   5.769  18.550  0.00  0.00    +0.000 A 
ATOM      5  C   UNL     1       2.418   5.980  19.293  0.00  0.00    +0.000 A 
ATOM      6  C   UNL     1       1.974   5.032  20.211  0.00  0.00    +0.000 A 
ATOM      7  C   UNL     1       2.714   3.861  20.382  0.00  0.00    +0.000 A 
ATOM      8  C   UNL     1       3.881   3.636  19.636  0.00  0.00    +0.000 A 
ATOM      9  C   UNL     1       4.339   4.576  18.723  0.00  0.00    +0.000 A 
ATOM     10  N   UNL     1       5.475   4.328  18.044  0.00  0.00    +0.000 NA
ENDROOT
BRANCH   7  11
ATOM     11  N   UNL     1       2.270   2.862  21.361  0.00  0.00    +0.000 N 
ATOM     12  O   UNL     1       1.050   2.708  21.514  0.00  0.00    +0.000 OA
ATOM     13  O   UNL     1       3.142   2.235  21.978  0.00  0.00    +0.000 OA
ENDBRANCH   7  11
BRANCH   1  15
ATOM     14  O   UNL     1       7.480   5.422  15.363  0.00  0.00    +0.000 OA
ATOM     15  C   UNL     1       7.182   4.984  16.459  0.00  0.00    +0.000 C 
BRANCH  15  16
ATOM     16  OXT UNL     1       7.958   4.152  17.192  0.00  0.00    +0.000 OA
ATOM     17  HXT UNL     1       8.791   4.618  17.437  0.00  0.00    +0.000 HD
ENDBRANCH  15  16
ENDBRANCH   1  15
BRANCH   3  18
ATOM     18  O   UNL     1       3.400   7.879  17.439  0.00  0.00    +0.000 OA
ATOM     19  H   UNL     1       2.535   7.688  17.035  0.00  0.00    +0.000 HD
ENDBRANCH   3  18
TORSDOF 4
ENDMDL
MODEL 3
REMARK VINA RESULT:      -7.2      1.377      5.499
REMARK  Name = 
REMARK  4 active torsions:
REMARK  status: ('A' for Active; 'I' for Inactive)
REMARK    1  A    between atoms: C_2  and  OXT_3
REMARK    2  A    between atoms: C_2  and  CA_4
REMARK    3  A    between atoms: C_6  and  O_7
REMARK    4  A    between atoms: C_11  and  N_12
REMARK                            x       y       z     vdW  Elec       q    Type
REMARK                         _______ _______ _______ _____ _____    ______ ____
ROOT
ATOM      1  CA  UNL     1       5.932   5.259  17.307  0.00  0.00    +0.000 A 
ATOM      2  C   UNL     1       5.271   6.439  17.024  0.00  0.00    +0.000 A 
ATOM      3  C   UNL     1       4.078   6.659  17.686  0.00  0.00    +0.000 A 
ATOM      4  C   UNL     1       3.579   5.723  18.611  0.00  0.00    +0.000 A 
ATOM      5  C   UNL     1       2.373   5.927  19.317  0.00  0.00    +0.000 A 
ATOM      6  C   UNL     1       1.921   4.990  20.242  0.00  0.00    +0.000 A 
ATOM      7  C   UNL     1       2.678   3.837  20.457  0.00  0.00    +0.000 A 
ATOM      8  C   UNL     1       3.868   3.618  19.747  0.00  0.00    +0.000 A 
ATOM      9  C   UNL     1       4.334   4.548  18.827  0.00  0.00    +0.000 A 
ATOM     10  N   UNL     1       5.491   4.307  18.184  0.00  0.00    +0.000 NA
ENDROOT
BRANCH   7  11
ATOM     11  N   UNL     1       2.225   2.849  21.443  0.00  0.00    +0.000 N 
ATOM     12  O   UNL     1       3.089   2.172  22.020  0.00  0.00    +0.000 OA
ATOM     13  O   UNL     1       1.006   2.748  21.637  0.00  0.00    +0.000 OA
ENDBRANCH   7  11
BRANCH   1  15
ATOM     14  O   UNL     1       8.069   4.193  17.058  0.00  0.00    +0.000 OA
ATOM     15  C   UNL     1       7.229   4.964  16.631  0.00  0.00    +0.000 C 
BRANCH  15  16
ATOM     16  OXT UNL     1       7.345   5.670  15.483  0.00  0.00    +0.000 OA
ATOM     17  HXT UNL     1       6.661   6.380  15.469  0.00  0.00    +0.000 HD
ENDBRANCH  15  16
ENDBRANCH   1  15
BRANCH   3  18
ATOM     18  O   UNL     1       3.370   7.807  17.451  0.00  0.00    +0.000 OA
ATOM     19  H   UNL     1       3.981   8.539  17.257  0.00  0.00    +0.000 HD
ENDBRANCH   3  18
TORSDOF 4
ENDMDL
MODEL 4
REMARK VINA RESULT:      -7.1      1.194      1.282
REMARK  Name = 
REMARK  4 active torsions:
REMARK  status: ('A' for Active; 'I' for Inactive)
REMARK    1  A    between atoms: C_2  and  OXT_3
REMARK    2  A    between atoms: C_2  and  CA_4
REMARK    3  A    between atoms: C_6  and  O_7
REMARK    4  A    between atoms: C_11  and  N_12
REMARK                            x       y       z     vdW  Elec       q    Type
REMARK                         _______ _______ _______ _____ _____    ______ ____
ROOT
ATOM      1  CA  UNL     1       2.412   3.693  18.989  0.00  0.00    +0.000 A 
ATOM      2  C   UNL     1       2.100   4.987  19.357  0.00  0.00    +0.000 A 
ATOM      3  C   UNL     1       2.787   6.000  18.713  0.00  0.00    +0.000 A 
ATOM      4  C   UNL     1       3.745   5.712  17.724  0.00  0.00    +0.000 A 
ATOM      5  C   UNL     1       4.449   6.724  17.035  0.00  0.00    +0.000 A 
ATOM      6  C   UNL     1       5.374   6.402  16.046  0.00  0.00    +0.000 A 
ATOM      7  C   UNL     1       5.601   5.057  15.748  0.00  0.00    +0.000 A 
ATOM      8  C   UNL     1       4.917   4.045  16.438  0.00  0.00    +0.000 A 
ATOM      9  C   UNL     1       3.987   4.352  17.423  0.00  0.00    +0.000 A 
ATOM     10  N   UNL     1       3.341   3.350  18.046  0.00  0.00    +0.000 NA
ENDROOT
BRANCH   7  11
ATOM     11  N   UNL     1       6.557   4.702  14.693  0.00  0.00    +0.000 N 
ATOM     12  O   UNL     1       6.273   3.749  13.954  0.00  0.00    +0.000 OA
ATOM     13  O   UNL     1       7.594   5.375  14.607  0.00  0.00    +0.000 OA
ENDBRANCH   7  11
BRANCH   1  15
ATOM     14  O   UNL     1       1.243   2.579  20.767  0.00  0.00    +0.000 OA
ATOM     15  C   UNL     1       1.702   2.554  19.640  0.00  0.00    +0.000 C 
BRANCH  15  16
ATOM     16  OXT UNL     1       1.641   1.488  18.808  0.00  0.00    +0.000 OA
ATOM     17  HXT UNL     1       1.552   0.664  19.343  0.00  0.00    +0.000 HD
ENDBRANCH  15  16
ENDBRANCH   1  15
BRANCH   3  18
ATOM     18  O   UNL     1       2.529   7.307  19.031  0.00  0.00    +0.000 OA
ATOM     19  H   UNL     1       2.107   7.358  19.906  0.00  0.00    +0.000 HD
ENDBRANCH   3  18
TORSDOF 4
ENDMDL
MODEL 5
REMARK VINA RESULT:      -7.1      2.394      5.597
REMARK  Name = 
REMARK  4 active torsions:
REMARK  status: ('A' for Active; 'I' for Inactive)
REMARK    1  A    between atoms: C_2  and  OXT_3
REMARK    2  A    between atoms: C_2  and  CA_4
REMARK    3  A    between atoms: C_6  and  O_7
REMARK    4  A    between atoms: C_11  and  N_12
REMARK                            x       y       z     vdW  Elec       q    Type
REMARK                         _______ _______ _______ _____ _____    ______ ____
ROOT
ATOM      1  CA  UNL     1       6.713   5.267  18.573  0.00  0.00    +0.000 A 
ATOM      2  C   UNL     1       6.910   4.825  17.280  0.00  0.00    +0.000 A 
ATOM      3  C   UNL     1       5.860   4.149  16.686  0.00  0.00    +0.000 A 
ATOM      4  C   UNL     1       4.651   3.939  17.374  0.00  0.00    +0.000 A 
ATOM      5  C   UNL     1       3.555   3.269  16.788  0.00  0.00    +0.000 A 
ATOM      6  C   UNL     1       2.365   3.100  17.491  0.00  0.00    +0.000 A 
ATOM      7  C   UNL     1       2.273   3.599  18.791  0.00  0.00    +0.000 A 
ATOM      8  C   UNL     1       3.364   4.252  19.386  0.00  0.00    +0.000 A 
ATOM      9  C   UNL     1       4.554   4.434  18.694  0.00  0.00    +0.000 A 
ATOM     10  N   UNL     1       5.567   5.083  19.297  0.00  0.00    +0.000 NA
ENDROOT
BRANCH   7  11
ATOM     11  N   UNL     1       1.019   3.447  19.537  0.00  0.00    +0.000 N 
ATOM     12  O   UNL     1       0.254   2.533  19.198  0.00  0.00    +0.000 OA
ATOM     13  O   UNL     1       0.798   4.245  20.459  0.00  0.00    +0.000 OA
ENDBRANCH   7  11
BRANCH   1  15
ATOM     14  O   UNL     1       8.358   6.998  18.825  0.00  0.00    +0.000 OA
ATOM     15  C   UNL     1       7.802   6.011  19.270  0.00  0.00    +0.000 C 
BRANCH  15  16
ATOM     16  OXT UNL     1       8.091   5.436  20.461  0.00  0.00    +0.000 OA
ATOM     17  HXT UNL     1       7.672   4.545  20.501  0.00  0.00    +0.000 HD
ENDBRANCH  15  16
ENDBRANCH   1  15
BRANCH   3  18
ATOM     18  O   UNL     1       5.989   3.681  15.406  0.00  0.00    +0.000 OA
ATOM     19  H   UNL     1       5.904   2.712  15.397  0.00  0.00    +0.000 HD
ENDBRANCH   3  18
TORSDOF 4
ENDMDL
MODEL 6
REMARK VINA RESULT:      -7.1      2.201      6.037
REMARK  Name = 
REMARK  4 active torsions:
REMARK  status: ('A' for Active; 'I' for Inactive)
REMARK    1  A    between atoms: C_2  and  OXT_3
REMARK    2  A    between atoms: C_2  and  CA_4
REMARK    3  A    between atoms: C_6  and  O_7
REMARK    4  A    between atoms: C_11  and  N_12
REMARK                            x       y       z     vdW  Elec       q    Type
REMARK                         _______ _______ _______ _____ _____    ______ ____
ROOT
ATOM      1  CA  UNL     1       6.378   4.480  15.584  0.00  0.00    +0.000 A 
ATOM      2  C   UNL     1       7.313   4.717  16.573  0.00  0.00    +0.000 A 
ATOM      3  C   UNL     1       6.857   4.691  17.879  0.00  0.00    +0.000 A 
ATOM      4  C   UNL     1       5.507   4.424  18.171  0.00  0.00    +0.000 A 
ATOM      5  C   UNL     1       5.015   4.373  19.493  0.00  0.00    +0.000 A 
ATOM      6  C   UNL     1       3.677   4.083  19.746  0.00  0.00    +0.000 A 
ATOM      7  C   UNL     1       2.824   3.848  18.666  0.00  0.00    +0.000 A 
ATOM      8  C   UNL     1       3.301   3.913  17.348  0.00  0.00    +0.000 A 
ATOM      9  C   UNL     1       4.634   4.195  17.083  0.00  0.00    +0.000 A 
ATOM     10  N   UNL     1       5.053   4.227  15.804  0.00  0.00    +0.000 NA
ENDROOT
BRANCH   7  11
ATOM     11  N   UNL     1       1.415   3.521  18.917  0.00  0.00    +0.000 N 
ATOM     12  O   UNL     1       0.883   4.000  19.928  0.00  0.00    +0.000 OA
ATOM     13  O   UNL     1       0.844   2.781  18.104  0.00  0.00    +0.000 OA
ENDBRANCH   7  11
BRANCH   1  15
ATOM     14  O   UNL     1       7.483   5.355  13.640  0.00  0.00    +0.000 OA
ATOM     15  C   UNL     1       6.805   4.485  14.155  0.00  0.00    +0.000 C 
BRANCH  15  16
ATOM     16  OXT UNL     1       6.334   3.393  13.508  0.00  0.00    +0.000 OA
ATOM     17  HXT UNL     1       5.352   3.451  13.450  0.00  0.00    +0.000 HD
ENDBRANCH  15  16
ENDBRANCH   1  15
BRANCH   3  18
ATOM     18  O   UNL     1       7.729   4.920  18.909  0.00  0.00    +0.000 OA
ATOM     19  H   UNL     1       7.396   4.506  19.724  0.00  0.00    +0.000 HD
ENDBRANCH   3  18
TORSDOF 4
ENDMDL
MODEL 7
REMARK VINA RESULT:      -6.9      0.469      1.064
REMARK  Name = 
REMARK  4 active torsions:
REMARK  status: ('A' for Active; 'I' for Inactive)
REMARK    1  A    between atoms: C_2  and  OXT_3
REMARK    2  A    between atoms: C_2  and  CA_4
REMARK    3  A    between atoms: C_6  and  O_7
REMARK    4  A    between atoms: C_11  and  N_12
REMARK                            x       y       z     vdW  Elec       q    Type
REMARK                         _______ _______ _______ _____ _____    ______ ____
ROOT
ATOM      1  CA  UNL     1       2.609   4.221  19.921  0.00  0.00    +0.000 A 
ATOM      2  C   UNL     1       2.164   5.523  20.033  0.00  0.00    +0.000 A 
ATOM      3  C   UNL     1       2.711   6.445  19.159  0.00  0.00    +0.000 A 
ATOM      4  C   UNL     1       3.665   6.058  18.200  0.00  0.00    +0.000 A 
ATOM      5  C   UNL     1       4.228   6.971  17.282  0.00  0.00    +0.000 A 
ATOM      6  C   UNL     1       5.153   6.548  16.332  0.00  0.00    +0.000 A 
ATOM      7  C   UNL     1       5.521   5.202  16.303  0.00  0.00    +0.000 A 
ATOM      8  C   UNL     1       4.979   4.291  17.222  0.00  0.00    +0.000 A 
ATOM      9  C   UNL     1       4.051   4.699  18.171  0.00  0.00    +0.000 A 
ATOM     10  N   UNL     1       3.541   3.787  19.020  0.00  0.00    +0.000 NA
ENDROOT
BRANCH   7  11
ATOM     11  N   UNL     1       6.479   4.736  15.293  0.00  0.00    +0.000 N 
ATOM     12  O   UNL     1       7.501   5.414  15.113  0.00  0.00    +0.000 OA
ATOM     13  O   UNL     1       6.206   3.696  14.680  0.00  0.00    +0.000 OA
ENDBRANCH   7  11
BRANCH   1  15
ATOM     14  O   UNL     1       1.475   2.171  20.453  0.00  0.00    +0.000 OA
ATOM     15  C   UNL     1       2.053   3.175  20.828  0.00  0.00    +0.000 C 
BRANCH  15  16
ATOM     16  OXT UNL     1       2.277   3.495  22.124  0.00  0.00    +0.000 OA
ATOM     17  HXT UNL     1       1.630   4.183  22.404  0.00  0.00    +0.000 HD
ENDBRANCH  15  16
ENDBRANCH   1  15
BRANCH   3  18
ATOM     18  O   UNL     1       2.317   7.755  19.216  0.00  0.00    +0.000 OA
ATOM     19  H   UNL     1       1.732   7.892  19.982  0.00  0.00    +0.000 HD
ENDBRANCH   3  18
TORSDOF 4
ENDMDL
MODEL 8
REMARK VINA RESULT:      -6.8      2.258      2.598
REMARK  Name = 
REMARK  4 active torsions:
REMARK  status: ('A' for Active; 'I' for Inactive)
REMARK    1  A    between atoms: C_2  and  OXT_3
REMARK    2  A    between atoms: C_2  and  CA_4
REMARK    3  A    between atoms: C_6  and  O_7
REMARK    4  A    between atoms: C_11  and  N_12
REMARK                            x       y       z     vdW  Elec       q    Type
REMARK                         _______ _______ _______ _____ _____    ______ ____
ROOT
ATOM      1  CA  UNL     1       2.583   3.577  19.939  0.00  0.00    +0.000 A 
ATOM      2  C   UNL     1       2.039   3.115  18.756  0.00  0.00    +0.000 A 
ATOM      3  C   UNL     1       2.699   3.461  17.591  0.00  0.00    +0.000 A 
ATOM      4  C   UNL     1       3.872   4.235  17.624  0.00  0.00    +0.000 A 
ATOM      5  C   UNL     1       4.578   4.589  16.454  0.00  0.00    +0.000 A 
ATOM      6  C   UNL     1       5.749   5.338  16.526  0.00  0.00    +0.000 A 
ATOM      7  C   UNL     1       6.214   5.742  17.779  0.00  0.00    +0.000 A 
ATOM      8  C   UNL     1       5.510   5.409  18.946  0.00  0.00    +0.000 A 
ATOM      9  C   UNL     1       4.344   4.656  18.888  0.00  0.00    +0.000 A 
ATOM     10  N   UNL     1       3.712   4.343  20.034  0.00  0.00    +0.000 NA
ENDROOT
BRANCH   7  11
ATOM     11  N   UNL     1       7.458   6.514  17.874  0.00  0.00    +0.000 N 
ATOM     12  O   UNL     1       8.086   6.468  18.941  0.00  0.00    +0.000 OA
ATOM     13  O   UNL     1       7.804   7.170  16.881  0.00  0.00    +0.000 OA
ENDBRANCH   7  11
BRANCH   1  15
ATOM     14  O   UNL     1       2.478   3.262  22.317  0.00  0.00    +0.000 OA
ATOM     15  C   UNL     1       1.925   3.234  21.233  0.00  0.00    +0.000 C 
BRANCH  15  16
ATOM     16  OXT UNL     1       0.633   2.884  21.037  0.00  0.00    +0.000 OA
ATOM     17  HXT UNL     1       0.121   3.677  20.755  0.00  0.00    +0.000 HD
ENDBRANCH  15  16
ENDBRANCH   1  15
BRANCH   3  18
ATOM     18  O   UNL     1       2.212   3.038  16.383  0.00  0.00    +0.000 OA
ATOM     19  H   UNL     1       1.492   2.398  16.520  0.00  0.00    +0.000 HD
ENDBRANCH   3  18
TORSDOF 4
ENDMDL
MODEL 9
REMARK VINA RESULT:      -6.8      2.688      3.066
REMARK  Name = 
REMARK  4 active torsions:
REMARK  status: ('A' for Active; 'I' for Inactive)
REMARK    1  A    between atoms: C_2  and  OXT_3
REMARK    2  A    between atoms: C_2  and  CA_4
REMARK    3  A    between atoms: C_6  and  O_7
REMARK    4  A    between atoms: C_11  and  N_12
REMARK                            x       y       z     vdW  Elec       q    Type
REMARK                         _______ _______ _______ _____ _____    ______ ____
ROOT
ATOM      1  CA  UNL     1       3.398   3.365  18.005  0.00  0.00    +0.000 A 
ATOM      2  C   UNL     1       4.120   3.844  19.080  0.00  0.00    +0.000 A 
ATOM      3  C   UNL     1       5.354   4.402  18.801  0.00  0.00    +0.000 A 
ATOM      4  C   UNL     1       5.833   4.482  17.481  0.00  0.00    +0.000 A 
ATOM      5  C   UNL     1       7.080   5.063  17.163  0.00  0.00    +0.000 A 
ATOM      6  C   UNL     1       7.512   5.145  15.842  0.00  0.00    +0.000 A 
ATOM      7  C   UNL     1       6.692   4.637  14.832  0.00  0.00    +0.000 A 
ATOM      8  C   UNL     1       5.459   4.044  15.142  0.00  0.00    +0.000 A 
ATOM      9  C   UNL     1       5.013   3.962  16.454  0.00  0.00    +0.000 A 
ATOM     10  N   UNL     1       3.815   3.402  16.703  0.00  0.00    +0.000 NA
ENDROOT
BRANCH   7  11
ATOM     11  N   UNL     1       7.124   4.736  13.433  0.00  0.00    +0.000 N 
ATOM     12  O   UNL     1       6.653   3.921  12.626  0.00  0.00    +0.000 OA
ATOM     13  O   UNL     1       7.936   5.625  13.143  0.00  0.00    +0.000 OA
ENDBRANCH   7  11
BRANCH   1  15
ATOM     14  O   UNL     1       0.996   3.320  18.021  0.00  0.00    +0.000 OA
ATOM     15  C   UNL     1       2.055   2.757  18.234  0.00  0.00    +0.000 C 
BRANCH  15  16
ATOM     16  OXT UNL     1       2.173   1.497  18.715  0.00  0.00    +0.000 OA
ATOM     17  HXT UNL     1       2.869   1.020  18.205  0.00  0.00    +0.000 HD
ENDBRANCH  15  16
ENDBRANCH   1  15
BRANCH   3  18
ATOM     18  O   UNL     1       6.124   4.895  19.821  0.00  0.00    +0.000 OA
ATOM     19  H   UNL     1       7.003   5.141  19.484  0.00  0.00    +0.000 HD
ENDBRANCH   3  18
TORSDOF 4
ENDMDL
