MODEL 1
REMARK VINA RESULT:      -7.1      0.000      0.000
REMARK  Name = 
REMARK  7 active torsions:
REMARK  status: ('A' for Active; 'I' for Inactive)
REMARK    1  A    between atoms: C_1  and  C_2
REMARK    2  A    between atoms: C_2  and  C_3
REMARK    3  A    between atoms: C_3  and  C_4
REMARK    4  A    between atoms: C_4  and  C_5
REMARK    5  A    between atoms: C_4  and  N_7
REMARK    6  A    between atoms: C_5  and  C_6
REMARK    7  A    between atoms: C_8  and  C_10
REMARK                            x       y       z     vdW  Elec       q    Type
REMARK                         _______ _______ _______ _____ _____    ______ ____
ROOT
ATOM      1  N   UNL     1       3.253   4.278  19.298  0.00  0.00    +0.000 N 
ATOM      2  C   UNL     1       4.509   3.722  19.165  0.00  0.00    +0.000 C 
ATOM      3  O   UNL     1       4.952   2.865  19.924  0.00  0.00    +0.000 OA
ATOM      4  H   UNL     1       2.863   4.786  18.515  0.00  0.00    +0.000 HD
ENDROOT
BRANCH   2   5
ATOM      5  C   UNL     1       5.345   4.203  18.023  0.00  0.00    +0.000 A 
ATOM      6  C   UNL     1       6.571   4.875  18.232  0.00  0.00    +0.000 A 
ATOM      7  C   UNL     1       7.361   5.272  17.145  0.00  0.00    +0.000 A 
ATOM      8  C   UNL     1       6.917   4.968  15.875  0.00  0.00    +0.000 A 
ATOM      9  C   UNL     1       5.720   4.308  15.653  0.00  0.00    +0.000 A 
ATOM     10  C   UNL     1       4.917   3.920  16.714  0.00  0.00    +0.000 A 
ATOM     11  C   UNL     1       5.501   4.184  14.194  0.00  0.00    +0.000 C 
ATOM     12  C   UNL     1       6.920   4.496  13.713  0.00  0.00    +0.000 C 
ATOM     13  O   UNL     1       7.597   5.279  14.725  0.00  0.00    +0.000 OA
ENDBRANCH   2   5
BRANCH   1  14
ATOM     14  C   UNL     1       2.343   3.903  20.383  0.00  0.00    +0.000 C 
BRANCH  14  15
ATOM     15  C   UNL     1       1.462   2.699  19.992  0.00  0.00    +0.000 C 
ATOM     16  C   UNL     1       1.067   2.639  18.521  0.00  0.00    +0.000 C 
ENDBRANCH  14  15
BRANCH  14  17
ATOM     17  C   UNL     1       1.554   5.147  20.849  0.00  0.00    +0.000 C 
BRANCH  17  19
ATOM     18  C   UNL     1       1.407   7.672  20.897  0.00  0.00    +0.000 C 
ATOM     19  C   UNL     1       2.024   6.460  20.213  0.00  0.00    +0.000 C 
ENDBRANCH  17  19
ENDBRANCH  14  17
ENDBRANCH   1  14
TORSDOF 5
ENDMDL
MODEL 2
REMARK VINA RESULT:      -6.7      2.443      6.445
REMARK  Name = 
REMARK  7 active torsions:
REMARK  status: ('A' for Active; 'I' for Inactive)
REMARK    1  A    between atoms: C_1  and  C_2
REMARK    2  A    between atoms: C_2  and  C_3
REMARK    3  A    between atoms: C_3  and  C_4
REMARK    4  A    between atoms: C_4  and  C_5
REMARK    5  A    between atoms: C_4  and  N_7
REMARK    6  A    between atoms: C_5  and  C_6
REMARK    7  A    between atoms: C_8  and  C_10
REMARK                            x       y       z     vdW  Elec       q    Type
REMARK                         _______ _______ _______ _____ _____    ______ ____
ROOT
ATOM      1  N   UNL     1       5.531   5.401  17.372  0.00  0.00    +0.000 N 
ATOM      2  C   UNL     1       4.300   5.988  17.583  0.00  0.00    +0.000 C 
ATOM      3  O   UNL     1       4.023   7.127  17.217  0.00  0.00    +0.000 OA
ATOM      4  H   UNL     1       5.613   4.398  17.476  0.00  0.00    +0.000 HD
ENDROOT
BRANCH   2   5
ATOM      5  C   UNL     1       3.269   5.167  18.289  0.00  0.00    +0.000 A 
ATOM      6  C   UNL     1       2.211   4.543  17.591  0.00  0.00    +0.000 A 
ATOM      7  C   UNL     1       1.287   3.738  18.268  0.00  0.00    +0.000 A 
ATOM      8  C   UNL     1       1.456   3.556  19.624  0.00  0.00    +0.000 A 
ATOM      9  C   UNL     1       2.488   4.158  20.324  0.00  0.00    +0.000 A 
ATOM     10  C   UNL     1       3.405   4.971  19.675  0.00  0.00    +0.000 A 
ATOM     11  C   UNL     1       2.362   3.818  21.759  0.00  0.00    +0.000 C 
ATOM     12  C   UNL     1       1.384   2.648  21.641  0.00  0.00    +0.000 C 
ATOM     13  O   UNL     1       0.639   2.781  20.407  0.00  0.00    +0.000 OA
ENDBRANCH   2   5
BRANCH   1  14
ATOM     14  C   UNL     1       6.630   6.105  16.706  0.00  0.00    +0.000 C 
BRANCH  14  15
ATOM     15  C   UNL     1       7.395   5.176  15.742  0.00  0.00    +0.000 C 
ATOM     16  C   UNL     1       6.613   4.739  14.510  0.00  0.00    +0.000 C 
ENDBRANCH  14  15
BRANCH  14  17
ATOM     17  C   UNL     1       7.516   6.798  17.765  0.00  0.00    +0.000 C 
BRANCH  17  19
ATOM     18  C   UNL     1       8.614   8.924  18.584  0.00  0.00    +0.000 C 
ATOM     19  C   UNL     1       7.696   8.303  17.541  0.00  0.00    +0.000 C 
ENDBRANCH  17  19
ENDBRANCH  14  17
ENDBRANCH   1  14
TORSDOF 5
ENDMDL
MODEL 3
REMARK VINA RESULT:      -6.5      2.191      6.700
REMARK  Name = 
REMARK  7 active torsions:
REMARK  status: ('A' for Active; 'I' for Inactive)
REMARK    1  A    between atoms: C_1  and  C_2
REMARK    2  A    between atoms: C_2  and  C_3
REMARK    3  A    between atoms: C_3  and  C_4
REMARK    4  A    between atoms: C_4  and  C_5
REMARK    5  A    between atoms: C_4  and  N_7
REMARK    6  A    between atoms: C_5  and  C_6
REMARK    7  A    between atoms: C_8  and  C_10
REMARK                            x       y       z     vdW  Elec       q    Type
REMARK                         _______ _______ _______ _____ _____    ______ ____
ROOT
ATOM      1  N   UNL     1       5.894   4.577  17.228  0.00  0.00    +0.000 N 
ATOM      2  C   UNL     1       4.743   5.313  17.426  0.00  0.00    +0.000 C 
ATOM      3  O   UNL     1       4.611   6.475  17.051  0.00  0.00    +0.000 OA
ATOM      4  H   UNL     1       5.851   3.573  17.338  0.00  0.00    +0.000 HD
ENDROOT
BRANCH   2   5
ATOM      5  C   UNL     1       3.615   4.630  18.130  0.00  0.00    +0.000 A 
ATOM      6  C   UNL     1       2.598   3.953  17.420  0.00  0.00    +0.000 A 
ATOM      7  C   UNL     1       1.579   3.278  18.104  0.00  0.00    +0.000 A 
ATOM      8  C   UNL     1       1.613   3.277  19.482  0.00  0.00    +0.000 A 
ATOM      9  C   UNL     1       2.603   3.933  20.194  0.00  0.00    +0.000 A 
ATOM     10  C   UNL     1       3.612   4.619  19.536  0.00  0.00    +0.000 A 
ATOM     11  C   UNL     1       2.330   3.795  21.642  0.00  0.00    +0.000 C 
ATOM     12  C   UNL     1       1.314   2.653  21.584  0.00  0.00    +0.000 C 
ATOM     13  O   UNL     1       0.692   2.642  20.277  0.00  0.00    +0.000 OA
ENDBRANCH   2   5
BRANCH   1  14
ATOM     14  C   UNL     1       7.075   5.135  16.565  0.00  0.00    +0.000 C 
BRANCH  14  15
ATOM     15  C   UNL     1       7.437   6.524  17.129  0.00  0.00    +0.000 C 
ATOM     16  C   UNL     1       7.882   6.532  18.587  0.00  0.00    +0.000 C 
ENDBRANCH  14  15
BRANCH  14  17
ATOM     17  C   UNL     1       6.872   5.101  15.033  0.00  0.00    +0.000 C 
BRANCH  17  19
ATOM     18  C   UNL     1       6.248   3.719  13.010  0.00  0.00    +0.000 C 
ATOM     19  C   UNL     1       6.163   3.841  14.525  0.00  0.00    +0.000 C 
ENDBRANCH  17  19
ENDBRANCH  14  17
ENDBRANCH   1  14
TORSDOF 5
ENDMDL
MODEL 4
REMARK VINA RESULT:      -6.4      3.028      6.662
REMARK  Name = 
REMARK  7 active torsions:
REMARK  status: ('A' for Active; 'I' for Inactive)
REMARK    1  A    between atoms: C_1  and  C_2
REMARK    2  A    between atoms: C_2  and  C_3
REMARK    3  A    between atoms: C_3  and  C_4
REMARK    4  A    between atoms: C_4  and  C_5
REMARK    5  A    between atoms: C_4  and  N_7
REMARK    6  A    between atoms: C_5  and  C_6
REMARK    7  A    between atoms: C_8  and  C_10
REMARK                            x       y       z     vdW  Elec       q    Type
REMARK                         _______ _______ _______ _____ _____    ______ ____
ROOT
ATOM      1  N   UNL     1       3.234   5.564  17.743  0.00  0.00    +0.000 N 
ATOM      2  C   UNL     1       2.904   6.021  19.003  0.00  0.00    +0.000 C 
ATOM      3  O   UNL     1       3.096   5.372  20.028  0.00  0.00    +0.000 OA
ATOM      4  H   UNL     1       3.275   6.230  16.983  0.00  0.00    +0.000 HD
ENDROOT
BRANCH   2   5
ATOM      5  C   UNL     1       2.290   7.381  19.092  0.00  0.00    +0.000 A 
ATOM      6  C   UNL     1       2.218   8.237  17.970  0.00  0.00    +0.000 A 
ATOM      7  C   UNL     1       1.594   9.487  18.066  0.00  0.00    +0.000 A 
ATOM      8  C   UNL     1       1.035   9.842  19.276  0.00  0.00    +0.000 A 
ATOM      9  C   UNL     1       1.094   9.015  20.384  0.00  0.00    +0.000 A 
ATOM     10  C   UNL     1       1.721   7.780  20.314  0.00  0.00    +0.000 A 
ATOM     11  C   UNL     1       0.461   9.700  21.533  0.00  0.00    +0.000 C 
ATOM     12  C   UNL     1      -0.283  10.800  20.773  0.00  0.00    +0.000 C 
ATOM     13  O   UNL     1       0.378  11.025  19.506  0.00  0.00    +0.000 OA
ENDBRANCH   2   5
BRANCH   1  14
ATOM     14  C   UNL     1       3.827   4.243  17.520  0.00  0.00    +0.000 C 
BRANCH  14  15
ATOM     15  C   UNL     1       4.977   4.305  16.495  0.00  0.00    +0.000 C 
ATOM     16  C   UNL     1       5.236   5.683  15.897  0.00  0.00    +0.000 C 
ENDBRANCH  14  15
BRANCH  14  17
ATOM     17  C   UNL     1       2.714   3.229  17.173  0.00  0.00    +0.000 C 
BRANCH  17  19
ATOM     18  C   UNL     1       0.976   2.553  18.880  0.00  0.00    +0.000 C 
ATOM     19  C   UNL     1       2.361   2.272  18.316  0.00  0.00    +0.000 C 
ENDBRANCH  17  19
ENDBRANCH  14  17
ENDBRANCH   1  14
TORSDOF 5
ENDMDL
MODEL 5
REMARK VINA RESULT:      -6.4      1.705      2.381
REMARK  Name = 
REMARK  7 active torsions:
REMARK  status: ('A' for Active; 'I' for Inactive)
REMARK    1  A    between atoms: C_1  and  C_2
REMARK    2  A    between atoms: C_2  and  C_3
REMARK    3  A    between atoms: C_3  and  C_4
REMARK    4  A    between atoms: C_4  and  C_5
REMARK    5  A    between atoms: C_4  and  N_7
REMARK    6  A    between atoms: C_5  and  C_6
REMARK    7  A    between atoms: C_8  and  C_10
REMARK                            x       y       z     vdW  Elec       q    Type
REMARK                         _______ _______ _______ _____ _____    ______ ____
ROOT
ATOM      1  N   UNL     1       3.295   4.509  19.611  0.00  0.00    +0.000 N 
ATOM      2  C   UNL     1       3.662   5.717  19.053  0.00  0.00    +0.000 C 
ATOM      3  O   UNL     1       3.146   6.788  19.361  0.00  0.00    +0.000 OA
ATOM      4  H   UNL     1       3.911   3.716  19.498  0.00  0.00    +0.000 HD
ENDROOT
BRANCH   2   5
ATOM      5  C   UNL     1       4.751   5.687  18.030  0.00  0.00    +0.000 A 
ATOM      6  C   UNL     1       6.052   6.159  18.316  0.00  0.00    +0.000 A 
ATOM      7  C   UNL     1       7.069   6.074  17.357  0.00  0.00    +0.000 A 
ATOM      8  C   UNL     1       6.767   5.498  16.141  0.00  0.00    +0.000 A 
ATOM      9  C   UNL     1       5.498   5.028  15.844  0.00  0.00    +0.000 A 
ATOM     10  C   UNL     1       4.474   5.116  16.775  0.00  0.00    +0.000 A 
ATOM     11  C   UNL     1       5.481   4.526  14.452  0.00  0.00    +0.000 C 
ATOM     12  C   UNL     1       6.990   4.426  14.218  0.00  0.00    +0.000 C 
ATOM     13  O   UNL     1       7.667   5.334  15.119  0.00  0.00    +0.000 OA
ENDBRANCH   2   5
BRANCH   1  14
ATOM     14  C   UNL     1       2.231   4.402  20.613  0.00  0.00    +0.000 C 
BRANCH  14  15
ATOM     15  C   UNL     1       2.592   3.384  21.714  0.00  0.00    +0.000 C 
ATOM     16  C   UNL     1       1.504   2.366  22.034  0.00  0.00    +0.000 C 
ENDBRANCH  14  15
BRANCH  14  17
ATOM     17  C   UNL     1       0.883   4.131  19.909  0.00  0.00    +0.000 C 
BRANCH  17  19
ATOM     18  C   UNL     1       1.181   2.047  18.508  0.00  0.00    +0.000 C 
ATOM     19  C   UNL     1       1.021   3.560  18.494  0.00  0.00    +0.000 C 
ENDBRANCH  17  19
ENDBRANCH  14  17
ENDBRANCH   1  14
TORSDOF 5
ENDMDL
MODEL 6
REMARK VINA RESULT:      -6.4      2.777      6.930
REMARK  Name = 
REMARK  7 active torsions:
REMARK  status: ('A' for Active; 'I' for Inactive)
REMARK    1  A    between atoms: C_1  and  C_2
REMARK    2  A    between atoms: C_2  and  C_3
REMARK    3  A    between atoms: C_3  and  C_4
REMARK    4  A    between atoms: C_4  and  C_5
REMARK    5  A    between atoms: C_4  and  N_7
REMARK    6  A    between atoms: C_5  and  C_6
REMARK    7  A    between atoms: C_8  and  C_10
REMARK                            x       y       z     vdW  Elec       q    Type
REMARK                         _______ _______ _______ _____ _____    ______ ____
ROOT
ATOM      1  N   UNL     1       4.867   5.899  17.659  0.00  0.00    +0.000 N 
ATOM      2  C   UNL     1       3.650   5.734  18.288  0.00  0.00    +0.000 C 
ATOM      3  O   UNL     1       3.191   4.637  18.594  0.00  0.00    +0.000 OA
ATOM      4  H   UNL     1       5.290   6.818  17.657  0.00  0.00    +0.000 HD
ENDROOT
BRANCH   2   5
ATOM      5  C   UNL     1       2.878   6.974  18.608  0.00  0.00    +0.000 A 
ATOM      6  C   UNL     1       2.684   7.994  17.649  0.00  0.00    +0.000 A 
ATOM      7  C   UNL     1       1.915   9.124  17.956  0.00  0.00    +0.000 A 
ATOM      8  C   UNL     1       1.340   9.196  19.208  0.00  0.00    +0.000 A 
ATOM      9  C   UNL     1       1.519   8.205  20.158  0.00  0.00    +0.000 A 
ATOM     10  C   UNL     1       2.288   7.086  19.879  0.00  0.00    +0.000 A 
ATOM     11  C   UNL     1       0.829   8.601  21.406  0.00  0.00    +0.000 C 
ATOM     12  C   UNL     1      -0.056   9.716  20.844  0.00  0.00    +0.000 C 
ATOM     13  O   UNL     1       0.550  10.233  19.636  0.00  0.00    +0.000 OA
ENDBRANCH   2   5
BRANCH   1  14
ATOM     14  C   UNL     1       5.712   4.764  17.279  0.00  0.00    +0.000 C 
BRANCH  14  15
ATOM     15  C   UNL     1       7.210   5.111  17.389  0.00  0.00    +0.000 C 
ATOM     16  C   UNL     1       7.610   5.851  18.659  0.00  0.00    +0.000 C 
ENDBRANCH  14  15
BRANCH  14  17
ATOM     17  C   UNL     1       5.277   4.238  15.893  0.00  0.00    +0.000 C 
BRANCH  17  19
ATOM     18  C   UNL     1       6.154   3.863  13.551  0.00  0.00    +0.000 C 
ATOM     19  C   UNL     1       6.069   4.830  14.723  0.00  0.00    +0.000 C 
ENDBRANCH  17  19
ENDBRANCH  14  17
ENDBRANCH   1  14
TORSDOF 5
ENDMDL
MODEL 7
REMARK VINA RESULT:      -6.3      2.788      7.065
REMARK  Name = 
REMARK  7 active torsions:
REMARK  status: ('A' for Active; 'I' for Inactive)
REMARK    1  A    between atoms: C_1  and  C_2
REMARK    2  A    between atoms: C_2  and  C_3
REMARK    3  A    between atoms: C_3  and  C_4
REMARK    4  A    between atoms: C_4  and  C_5
REMARK    5  A    between atoms: C_4  and  N_7
REMARK    6  A    between atoms: C_5  and  C_6
REMARK    7  A    between atoms: C_8  and  C_10
REMARK                            x       y       z     vdW  Elec       q    Type
REMARK                         _______ _______ _______ _____ _____    ______ ____
ROOT
ATOM      1  N   UNL     1       5.428   3.352  13.257  0.00  0.00    +0.000 N 
ATOM      2  C   UNL     1       6.343   4.185  13.870  0.00  0.00    +0.000 C 
ATOM      3  O   UNL     1       7.176   4.843  13.253  0.00  0.00    +0.000 OA
ATOM      4  H   UNL     1       4.629   3.036  13.790  0.00  0.00    +0.000 HD
ENDROOT
BRANCH   2   5
ATOM      5  C   UNL     1       6.285   4.274  15.362  0.00  0.00    +0.000 A 
ATOM      6  C   UNL     1       7.437   4.548  16.133  0.00  0.00    +0.000 A 
ATOM      7  C   UNL     1       7.348   4.676  17.525  0.00  0.00    +0.000 A 
ATOM      8  C   UNL     1       6.106   4.549  18.110  0.00  0.00    +0.000 A 
ATOM      9  C   UNL     1       4.967   4.283  17.369  0.00  0.00    +0.000 A 
ATOM     10  C   UNL     1       5.036   4.138  15.992  0.00  0.00    +0.000 A 
ATOM     11  C   UNL     1       3.813   4.147  18.286  0.00  0.00    +0.000 C 
ATOM     12  C   UNL     1       4.430   4.777  19.537  0.00  0.00    +0.000 C 
ATOM     13  O   UNL     1       5.871   4.668  19.457  0.00  0.00    +0.000 OA
ENDBRANCH   2   5
BRANCH   1  14
ATOM     14  C   UNL     1       5.390   3.166  11.805  0.00  0.00    +0.000 C 
BRANCH  14  15
ATOM     15  C   UNL     1       4.246   3.974  11.160  0.00  0.00    +0.000 C 
ATOM     16  C   UNL     1       3.240   3.149  10.367  0.00  0.00    +0.000 C 
ENDBRANCH  14  15
BRANCH  14  17
ATOM     17  C   UNL     1       5.370   1.656  11.477  0.00  0.00    +0.000 C 
BRANCH  17  19
ATOM     18  C   UNL     1       7.768   2.172  10.861  0.00  0.00    +0.000 C 
ATOM     19  C   UNL     1       6.742   1.077  11.115  0.00  0.00    +0.000 C 
ENDBRANCH  17  19
ENDBRANCH  14  17
ENDBRANCH   1  14
TORSDOF 5
ENDMDL
MODEL 8
REMARK VINA RESULT:      -6.3      2.786      7.144
REMARK  Name = 
REMARK  7 active torsions:
REMARK  status: ('A' for Active; 'I' for Inactive)
REMARK    1  A    between atoms: C_1  and  C_2
REMARK    2  A    between atoms: C_2  and  C_3
REMARK    3  A    between atoms: C_3  and  C_4
REMARK    4  A    between atoms: C_4  and  C_5
REMARK    5  A    between atoms: C_4  and  N_7
REMARK    6  A    between atoms: C_5  and  C_6
REMARK    7  A    between atoms: C_8  and  C_10
REMARK                            x       y       z     vdW  Elec       q    Type
REMARK                         _______ _______ _______ _____ _____    ______ ____
ROOT
ATOM      1  N   UNL     1       6.138   3.427  13.347  0.00  0.00    +0.000 N 
ATOM      2  C   UNL     1       6.675   4.420  14.141  0.00  0.00    +0.000 C 
ATOM      3  O   UNL     1       7.428   5.292  13.716  0.00  0.00    +0.000 OA
ATOM      4  H   UNL     1       5.350   2.899  13.698  0.00  0.00    +0.000 HD
ENDROOT
BRANCH   2   5
ATOM      5  C   UNL     1       6.296   4.410  15.588  0.00  0.00    +0.000 A 
ATOM      6  C   UNL     1       7.249   4.635  16.606  0.00  0.00    +0.000 A 
ATOM      7  C   UNL     1       6.860   4.671  17.951  0.00  0.00    +0.000 A 
ATOM      8  C   UNL     1       5.523   4.503  18.244  0.00  0.00    +0.000 A 
ATOM      9  C   UNL     1       4.576   4.283  17.259  0.00  0.00    +0.000 A 
ATOM     10  C   UNL     1       4.942   4.230  15.923  0.00  0.00    +0.000 A 
ATOM     11  C   UNL     1       3.254   4.084  17.894  0.00  0.00    +0.000 C 
ATOM     12  C   UNL     1       3.575   4.632  19.286  0.00  0.00    +0.000 C 
ATOM     13  O   UNL     1       5.001   4.533  19.513  0.00  0.00    +0.000 OA
ENDBRANCH   2   5
BRANCH   1  14
ATOM     14  C   UNL     1       6.443   3.318  11.918  0.00  0.00    +0.000 C 
BRANCH  14  15
ATOM     15  C   UNL     1       5.168   3.430  11.057  0.00  0.00    +0.000 C 
ATOM     16  C   UNL     1       3.858   3.344  11.829  0.00  0.00    +0.000 C 
ENDBRANCH  14  15
BRANCH  14  17
ATOM     17  C   UNL     1       7.276   2.041  11.664  0.00  0.00    +0.000 C 
BRANCH  17  19
ATOM     18  C   UNL     1       6.177  -0.224  11.424  0.00  0.00    +0.000 C 
ATOM     19  C   UNL     1       6.615   1.045  10.706  0.00  0.00    +0.000 C 
ENDBRANCH  17  19
ENDBRANCH  14  17
ENDBRANCH   1  14
TORSDOF 5
ENDMDL
MODEL 9
REMARK VINA RESULT:      -6.2      2.568      6.501
REMARK  Name = 
REMARK  7 active torsions:
REMARK  status: ('A' for Active; 'I' for Inactive)
REMARK    1  A    between atoms: C_1  and  C_2
REMARK    2  A    between atoms: C_2  and  C_3
REMARK    3  A    between atoms: C_3  and  C_4
REMARK    4  A    between atoms: C_4  and  C_5
REMARK    5  A    between atoms: C_4  and  N_7
REMARK    6  A    between atoms: C_5  and  C_6
REMARK    7  A    between atoms: C_8  and  C_10
REMARK                            x       y       z     vdW  Elec       q    Type
REMARK                         _______ _______ _______ _____ _____    ______ ____
ROOT
ATOM      1  N   UNL     1       4.890   5.287  17.519  0.00  0.00    +0.000 N 
ATOM      2  C   UNL     1       4.096   5.072  18.628  0.00  0.00    +0.000 C 
ATOM      3  O   UNL     1       4.139   4.045  19.300  0.00  0.00    +0.000 OA
ATOM      4  H   UNL     1       4.980   6.230  17.164  0.00  0.00    +0.000 HD
ENDROOT
BRANCH   2   5
ATOM      5  C   UNL     1       3.152   6.167  19.007  0.00  0.00    +0.000 A 
ATOM      6  C   UNL     1       2.468   6.161  20.244  0.00  0.00    +0.000 A 
ATOM      7  C   UNL     1       1.627   7.224  20.598  0.00  0.00    +0.000 A 
ATOM      8  C   UNL     1       1.506   8.278  19.717  0.00  0.00    +0.000 A 
ATOM      9  C   UNL     1       2.171   8.300  18.502  0.00  0.00    +0.000 A 
ATOM     10  C   UNL     1       2.996   7.252  18.126  0.00  0.00    +0.000 A 
ATOM     11  C   UNL     1       1.791   9.527  17.766  0.00  0.00    +0.000 C 
ATOM     12  C   UNL     1       1.175  10.316  18.923  0.00  0.00    +0.000 C 
ATOM     13  O   UNL     1       0.734   9.389  19.943  0.00  0.00    +0.000 OA
ENDBRANCH   2   5
BRANCH   1  14
ATOM     14  C   UNL     1       5.845   4.287  17.035  0.00  0.00    +0.000 C 
BRANCH  14  15
ATOM     15  C   UNL     1       7.301   4.770  17.195  0.00  0.00    +0.000 C 
ATOM     16  C   UNL     1       7.460   6.128  17.868  0.00  0.00    +0.000 C 
ENDBRANCH  14  15
BRANCH  14  17
ATOM     17  C   UNL     1       5.466   3.864  15.598  0.00  0.00    +0.000 C 
BRANCH  17  19
ATOM     18  C   UNL     1       6.251   3.802  13.195  0.00  0.00    +0.000 C 
ATOM     19  C   UNL     1       6.267   4.578  14.504  0.00  0.00    +0.000 C 
ENDBRANCH  17  19
ENDBRANCH  14  17
ENDBRANCH   1  14
TORSDOF 5
ENDMDL
