MODEL 1
REMARK VINA RESULT:      -8.1      0.000      0.000
REMARK  Name = 
REMARK  4 active torsions:
REMARK  status: ('A' for Active; 'I' for Inactive)
REMARK    1  A    between atoms: N_3  and  C_4
REMARK    2  A    between atoms: C_4  and  C_5
REMARK    3  A    between atoms: N_11  and  C_12
REMARK    4  A    between atoms: C_15  and  C_16
REMARK                            x       y       z     vdW  Elec       q    Type
REMARK                         _______ _______ _______ _____ _____    ______ ____
ROOT
ATOM      1  O   UNL     1       8.225   7.355  18.723  0.00  0.00    +0.000 OA
ATOM      2  C   UNL     1       7.770   8.124  17.884  0.00  0.00    +0.000 C 
ATOM      3  N   UNL     1       8.286   9.393  17.701  0.00  0.00    +0.000 N 
ATOM      4  N   UNL     1       6.687   7.883  17.060  0.00  0.00    +0.000 N 
ATOM      5  H   UNL     1       8.094   9.863  16.831  0.00  0.00    +0.000 HD
ATOM      6  H   UNL     1       6.554   8.520  16.291  0.00  0.00    +0.000 HD
ENDROOT
BRANCH   4   7
ATOM      7  C   UNL     1       5.772   6.809  17.162  0.00  0.00    +0.000 A 
ATOM      8  C   UNL     1       6.094   5.495  16.825  0.00  0.00    +0.000 A 
ATOM      9  C   UNL     1       5.173   4.456  17.012  0.00  0.00    +0.000 A 
ATOM     10  C   UNL     1       3.902   4.706  17.541  0.00  0.00    +0.000 A 
ATOM     11  C   UNL     1       3.568   6.027  17.861  0.00  0.00    +0.000 A 
ATOM     12  C   UNL     1       4.496   7.068  17.676  0.00  0.00    +0.000 A 
BRANCH  10  13
ATOM     13  C   UNL     1       2.968   3.617  17.782  0.00  0.00    +0.000 A 
ATOM     14  C   UNL     1       1.574   3.623  18.020  0.00  0.00    +0.000 A 
ATOM     15  N   UNL     1       1.074   2.399  18.223  0.00  0.00    +0.000 NA
ATOM     16  N   UNL     1       2.149   1.602  18.119  0.00  0.00    +0.000 N 
ATOM     17  C   UNL     1       3.304   2.280  17.854  0.00  0.00    +0.000 A 
ATOM     18  H   UNL     1       2.021   0.603  18.243  0.00  0.00    +0.000 HD
ENDBRANCH  10  13
ENDBRANCH   4   7
BRANCH   3  19
ATOM     19  C   UNL     1       9.436   9.847  18.473  0.00  0.00    +0.000 C 
BRANCH  19  20
ATOM     20  C   UNL     1       9.274  11.294  18.978  0.00  0.00    +0.000 C 
ATOM     21  C   UNL     1      10.223  11.629  20.142  0.00  0.00    +0.000 C 
ATOM     22  C   UNL     1      11.684  11.729  19.707  0.00  0.00    +0.000 C 
ATOM     23  C   UNL     1      11.870  12.724  18.565  0.00  0.00    +0.000 C 
ATOM     24  C   UNL     1      10.928  12.447  17.396  0.00  0.00    +0.000 C 
ATOM     25  C   UNL     1       9.473  12.319  17.847  0.00  0.00    +0.000 C 
ENDBRANCH  19  20
ENDBRANCH   3  19
TORSDOF 4
ENDMDL
MODEL 2
REMARK VINA RESULT:      -7.9      0.672      1.165
REMARK  Name = 
REMARK  4 active torsions:
REMARK  status: ('A' for Active; 'I' for Inactive)
REMARK    1  A    between atoms: N_3  and  C_4
REMARK    2  A    between atoms: C_4  and  C_5
REMARK    3  A    between atoms: N_11  and  C_12
REMARK    4  A    between atoms: C_15  and  C_16
REMARK                            x       y       z     vdW  Elec       q    Type
REMARK                         _______ _______ _______ _____ _____    ______ ____
ROOT
ATOM      1  O   UNL     1       8.378   7.550  18.805  0.00  0.00    +0.000 OA
ATOM      2  C   UNL     1       7.913   8.277  17.935  0.00  0.00    +0.000 C 
ATOM      3  N   UNL     1       8.372   9.566  17.738  0.00  0.00    +0.000 N 
ATOM      4  N   UNL     1       6.870   7.965  17.085  0.00  0.00    +0.000 N 
ATOM      5  H   UNL     1       8.184  10.006  16.852  0.00  0.00    +0.000 HD
ATOM      6  H   UNL     1       6.730   8.577  16.297  0.00  0.00    +0.000 HD
ENDROOT
BRANCH   4   7
ATOM      7  C   UNL     1       6.005   6.849  17.183  0.00  0.00    +0.000 A 
ATOM      8  C   UNL     1       6.452   5.529  17.141  0.00  0.00    +0.000 A 
ATOM      9  C   UNL     1       5.562   4.461  17.316  0.00  0.00    +0.000 A 
ATOM     10  C   UNL     1       4.199   4.687  17.536  0.00  0.00    +0.000 A 
ATOM     11  C   UNL     1       3.744   6.010  17.559  0.00  0.00    +0.000 A 
ATOM     12  C   UNL     1       4.639   7.081  17.387  0.00  0.00    +0.000 A 
BRANCH  10  13
ATOM     13  C   UNL     1       3.289   3.576  17.769  0.00  0.00    +0.000 A 
ATOM     14  C   UNL     1       1.891   3.549  17.982  0.00  0.00    +0.000 A 
ATOM     15  N   UNL     1       1.418   2.315  18.185  0.00  0.00    +0.000 NA
ATOM     16  N   UNL     1       2.514   1.544  18.106  0.00  0.00    +0.000 N 
ATOM     17  C   UNL     1       3.656   2.248  17.857  0.00  0.00    +0.000 A 
ATOM     18  H   UNL     1       2.409   0.543  18.236  0.00  0.00    +0.000 HD
ENDBRANCH  10  13
ENDBRANCH   4   7
BRANCH   3  19
ATOM     19  C   UNL     1       9.474  10.093  18.533  0.00  0.00    +0.000 C 
BRANCH  19  20
ATOM     20  C   UNL     1      10.069  11.383  17.936  0.00  0.00    +0.000 C 
ATOM     21  C   UNL     1       9.317  12.649  18.383  0.00  0.00    +0.000 C 
ATOM     22  C   UNL     1       9.543  12.985  19.856  0.00  0.00    +0.000 C 
ATOM     23  C   UNL     1      11.028  13.100  20.192  0.00  0.00    +0.000 C 
ATOM     24  C   UNL     1      11.821  11.876  19.741  0.00  0.00    +0.000 C 
ATOM     25  C   UNL     1      11.564  11.532  18.274  0.00  0.00    +0.000 C 
ENDBRANCH  19  20
ENDBRANCH   3  19
TORSDOF 4
ENDMDL
MODEL 3
REMARK VINA RESULT:      -7.6      0.576      1.042
REMARK  Name = 
REMARK  4 active torsions:
REMARK  status: ('A' for Active; 'I' for Inactive)
REMARK    1  A    between atoms: N_3  and  C_4
REMARK    2  A    between atoms: C_4  and  C_5
REMARK    3  A    between atoms: N_11  and  C_12
REMARK    4  A    between atoms: C_15  and  C_16
REMARK                            x       y       z     vdW  Elec       q    Type
REMARK                         _______ _______ _______ _____ _____    ______ ____
ROOT
ATOM      1  O   UNL     1       8.415   7.569  18.736  0.00  0.00    +0.000 OA
ATOM      2  C   UNL     1       7.894   8.268  17.877  0.00  0.00    +0.000 C 
ATOM      3  N   UNL     1       8.301   9.570  17.648  0.00  0.00    +0.000 N 
ATOM      4  N   UNL     1       6.831   7.912  17.069  0.00  0.00    +0.000 N 
ATOM      5  H   UNL     1       8.066   9.993  16.765  0.00  0.00    +0.000 HD
ATOM      6  H   UNL     1       6.641   8.509  16.280  0.00  0.00    +0.000 HD
ENDROOT
BRANCH   4   7
ATOM      7  C   UNL     1       6.009   6.768  17.212  0.00  0.00    +0.000 A 
ATOM      8  C   UNL     1       6.487   5.463  17.099  0.00  0.00    +0.000 A 
ATOM      9  C   UNL     1       5.646   4.366  17.321  0.00  0.00    +0.000 A 
ATOM     10  C   UNL     1       4.300   4.546  17.662  0.00  0.00    +0.000 A 
ATOM     11  C   UNL     1       3.812   5.854  17.756  0.00  0.00    +0.000 A 
ATOM     12  C   UNL     1       4.660   6.955  17.537  0.00  0.00    +0.000 A 
BRANCH  10  13
ATOM     13  C   UNL     1       3.444   3.403  17.942  0.00  0.00    +0.000 A 
ATOM     14  C   UNL     1       3.747   2.115  18.443  0.00  0.00    +0.000 A 
ATOM     15  N   UNL     1       2.672   1.327  18.539  0.00  0.00    +0.000 NA
ATOM     16  N   UNL     1       1.672   2.107  18.096  0.00  0.00    +0.000 N 
ATOM     17  C   UNL     1       2.081   3.357  17.729  0.00  0.00    +0.000 A 
ATOM     18  H   UNL     1       0.735   1.719  18.068  0.00  0.00    +0.000 HD
ENDBRANCH  10  13
ENDBRANCH   4   7
BRANCH   3  19
ATOM     19  C   UNL     1       9.413  10.143  18.396  0.00  0.00    +0.000 C 
BRANCH  19  20
ATOM     20  C   UNL     1       9.371  11.684  18.427  0.00  0.00    +0.000 C 
ATOM     21  C   UNL     1       9.353  12.251  19.857  0.00  0.00    +0.000 C 
ATOM     22  C   UNL     1      10.684  12.070  20.585  0.00  0.00    +0.000 C 
ATOM     23  C   UNL     1      11.849  12.656  19.793  0.00  0.00    +0.000 C 
ATOM     24  C   UNL     1      11.892  12.142  18.357  0.00  0.00    +0.000 C 
ATOM     25  C   UNL     1      10.547  12.302  17.648  0.00  0.00    +0.000 C 
ENDBRANCH  19  20
ENDBRANCH   3  19
TORSDOF 4
ENDMDL
MODEL 4
REMARK VINA RESULT:      -7.5      1.054      1.634
REMARK  Name = 
REMARK  4 active torsions:
REMARK  status: ('A' for Active; 'I' for Inactive)
REMARK    1  A    between atoms: N_3  and  C_4
REMARK    2  A    between atoms: C_4  and  C_5
REMARK    3  A    between atoms: N_11  and  C_12
REMARK    4  A    between atoms: C_15  and  C_16
REMARK                            x       y       z     vdW  Elec       q    Type
REMARK                         _______ _______ _______ _____ _____    ______ ____
ROOT
ATOM      1  O   UNL     1       8.675   8.141  18.919  0.00  0.00    +0.000 OA
ATOM      2  C   UNL     1       8.142   8.785  18.025  0.00  0.00    +0.000 C 
ATOM      3  N   UNL     1       8.441  10.117  17.806  0.00  0.00    +0.000 N 
ATOM      4  N   UNL     1       7.163   8.327  17.164  0.00  0.00    +0.000 N 
ATOM      5  H   UNL     1       8.218  10.511  16.906  0.00  0.00    +0.000 HD
ATOM      6  H   UNL     1       6.964   8.900  16.359  0.00  0.00    +0.000 HD
ENDROOT
BRANCH   4   7
ATOM      7  C   UNL     1       6.442   7.115  17.273  0.00  0.00    +0.000 A 
ATOM      8  C   UNL     1       7.055   5.865  17.361  0.00  0.00    +0.000 A 
ATOM      9  C   UNL     1       6.297   4.701  17.541  0.00  0.00    +0.000 A 
ATOM     10  C   UNL     1       4.902   4.757  17.636  0.00  0.00    +0.000 A 
ATOM     11  C   UNL     1       4.282   6.007  17.528  0.00  0.00    +0.000 A 
ATOM     12  C   UNL     1       5.045   7.175  17.352  0.00  0.00    +0.000 A 
BRANCH  10  13
ATOM     13  C   UNL     1       4.124   3.551  17.875  0.00  0.00    +0.000 A 
ATOM     14  C   UNL     1       4.260   2.534  18.849  0.00  0.00    +0.000 A 
ATOM     15  N   UNL     1       3.349   1.564  18.721  0.00  0.00    +0.000 NA
ATOM     16  N   UNL     1       2.624   1.955  17.661  0.00  0.00    +0.000 N 
ATOM     17  C   UNL     1       3.045   3.136  17.121  0.00  0.00    +0.000 A 
ATOM     18  H   UNL     1       1.857   1.364  17.359  0.00  0.00    +0.000 HD
ENDBRANCH  10  13
ENDBRANCH   4   7
BRANCH   3  19
ATOM     19  C   UNL     1       9.451  10.794  18.608  0.00  0.00    +0.000 C 
BRANCH  19  20
ATOM     20  C   UNL     1      10.400  11.658  17.755  0.00  0.00    +0.000 C 
ATOM     21  C   UNL     1      10.064  13.158  17.822  0.00  0.00    +0.000 C 
ATOM     22  C   UNL     1      10.389  13.779  19.179  0.00  0.00    +0.000 C 
ATOM     23  C   UNL     1      11.842  13.541  19.580  0.00  0.00    +0.000 C 
ATOM     24  C   UNL     1      12.231  12.067  19.502  0.00  0.00    +0.000 C 
ATOM     25  C   UNL     1      11.874  11.448  18.151  0.00  0.00    +0.000 C 
ENDBRANCH  19  20
ENDBRANCH   3  19
TORSDOF 4
ENDMDL
MODEL 5
REMARK VINA RESULT:      -7.5      2.265      9.239
REMARK  Name = 
REMARK  4 active torsions:
REMARK  status: ('A' for Active; 'I' for Inactive)
REMARK    1  A    between atoms: N_3  and  C_4
REMARK    2  A    between atoms: C_4  and  C_5
REMARK    3  A    between atoms: N_11  and  C_12
REMARK    4  A    between atoms: C_15  and  C_16
REMARK                            x       y       z     vdW  Elec       q    Type
REMARK                         _______ _______ _______ _____ _____    ______ ____
ROOT
ATOM      1  O   UNL     1       4.189   5.589  17.691  0.00  0.00    +0.000 OA
ATOM      2  C   UNL     1       5.051   4.724  17.599  0.00  0.00    +0.000 C 
ATOM      3  N   UNL     1       4.737   3.377  17.596  0.00  0.00    +0.000 N 
ATOM      4  N   UNL     1       6.415   4.935  17.541  0.00  0.00    +0.000 N 
ATOM      5  H   UNL     1       5.417   2.732  17.226  0.00  0.00    +0.000 HD
ATOM      6  H   UNL     1       6.984   4.150  17.268  0.00  0.00    +0.000 HD
ENDROOT
BRANCH   4   7
ATOM      7  C   UNL     1       7.091   6.155  17.784  0.00  0.00    +0.000 A 
ATOM      8  C   UNL     1       6.923   7.293  16.996  0.00  0.00    +0.000 A 
ATOM      9  C   UNL     1       7.561   8.496  17.323  0.00  0.00    +0.000 A 
ATOM     10  C   UNL     1       8.387   8.592  18.448  0.00  0.00    +0.000 A 
ATOM     11  C   UNL     1       8.575   7.446  19.229  0.00  0.00    +0.000 A 
ATOM     12  C   UNL     1       7.930   6.240  18.902  0.00  0.00    +0.000 A 
BRANCH  10  13
ATOM     13  C   UNL     1       9.006   9.858  18.812  0.00  0.00    +0.000 A 
ATOM     14  C   UNL     1       9.325  10.407  20.076  0.00  0.00    +0.000 A 
ATOM     15  N   UNL     1       9.871  11.624  19.992  0.00  0.00    +0.000 NA
ATOM     16  N   UNL     1       9.902  11.863  18.671  0.00  0.00    +0.000 N 
ATOM     17  C   UNL     1       9.398  10.839  17.923  0.00  0.00    +0.000 A 
ATOM     18  H   UNL     1      10.278  12.749  18.351  0.00  0.00    +0.000 HD
ENDBRANCH  10  13
ENDBRANCH   4   7
BRANCH   3  19
ATOM     19  C   UNL     1       3.349   2.937  17.649  0.00  0.00    +0.000 C 
BRANCH  19  20
ATOM     20  C   UNL     1       3.031   2.138  18.928  0.00  0.00    +0.000 C 
ATOM     21  C   UNL     1       3.480   2.860  20.210  0.00  0.00    +0.000 C 
ATOM     22  C   UNL     1       2.633   4.092  20.525  0.00  0.00    +0.000 C 
ATOM     23  C   UNL     1       1.146   3.756  20.595  0.00  0.00    +0.000 C 
ATOM     24  C   UNL     1       0.660   3.012  19.354  0.00  0.00    +0.000 C 
ATOM     25  C   UNL     1       1.533   1.800  19.031  0.00  0.00    +0.000 C 
ENDBRANCH  19  20
ENDBRANCH   3  19
TORSDOF 4
ENDMDL
MODEL 6
REMARK VINA RESULT:      -7.5      0.442      1.188
REMARK  Name = 
REMARK  4 active torsions:
REMARK  status: ('A' for Active; 'I' for Inactive)
REMARK    1  A    between atoms: N_3  and  C_4
REMARK    2  A    between atoms: C_4  and  C_5
REMARK    3  A    between atoms: N_11  and  C_12
REMARK    4  A    between atoms: C_15  and  C_16
REMARK                            x       y       z     vdW  Elec       q    Type
REMARK                         _______ _______ _______ _____ _____    ______ ____
ROOT
ATOM      1  O   UNL     1       8.296   7.622  18.807  0.00  0.00    +0.000 OA
ATOM      2  C   UNL     1       7.832   8.264  17.874  0.00  0.00    +0.000 C 
ATOM      3  N   UNL     1       8.344   9.495  17.507  0.00  0.00    +0.000 N 
ATOM      4  N   UNL     1       6.739   7.911  17.105  0.00  0.00    +0.000 N 
ATOM      5  H   UNL     1       8.141   9.837  16.582  0.00  0.00    +0.000 HD
ATOM      6  H   UNL     1       6.597   8.432  16.255  0.00  0.00    +0.000 HD
ENDROOT
BRANCH   4   7
ATOM      7  C   UNL     1       5.826   6.862  17.368  0.00  0.00    +0.000 A 
ATOM      8  C   UNL     1       4.474   7.074  17.636  0.00  0.00    +0.000 A 
ATOM      9  C   UNL     1       3.598   5.997  17.818  0.00  0.00    +0.000 A 
ATOM     10  C   UNL     1       4.053   4.676  17.739  0.00  0.00    +0.000 A 
ATOM     11  C   UNL     1       5.413   4.460  17.491  0.00  0.00    +0.000 A 
ATOM     12  C   UNL     1       6.290   5.543  17.304  0.00  0.00    +0.000 A 
BRANCH  10  13
ATOM     13  C   UNL     1       3.128   3.561  17.878  0.00  0.00    +0.000 A 
ATOM     14  C   UNL     1       1.721   3.532  18.019  0.00  0.00    +0.000 A 
ATOM     15  N   UNL     1       1.235   2.292  18.145  0.00  0.00    +0.000 NA
ATOM     16  N   UNL     1       2.332   1.520  18.087  0.00  0.00    +0.000 N 
ATOM     17  C   UNL     1       3.487   2.229  17.927  0.00  0.00    +0.000 A 
ATOM     18  H   UNL     1       2.217   0.515  18.168  0.00  0.00    +0.000 HD
ENDBRANCH  10  13
ENDBRANCH   4   7
BRANCH   3  19
ATOM     19  C   UNL     1       9.502  10.053  18.194  0.00  0.00    +0.000 C 
BRANCH  19  20
ATOM     20  C   UNL     1       9.406  11.581  18.368  0.00  0.00    +0.000 C 
ATOM     21  C   UNL     1       9.398  12.013  19.844  0.00  0.00    +0.000 C 
ATOM     22  C   UNL     1      10.749  11.816  20.529  0.00  0.00    +0.000 C 
ATOM     23  C   UNL     1      11.876  12.516  19.775  0.00  0.00    +0.000 C 
ATOM     24  C   UNL     1      11.907  12.138  18.296  0.00  0.00    +0.000 C 
ATOM     25  C   UNL     1      10.543  12.311  17.629  0.00  0.00    +0.000 C 
ENDBRANCH  19  20
ENDBRANCH   3  19
TORSDOF 4
ENDMDL
MODEL 7
REMARK VINA RESULT:      -7.3      6.203      9.641
REMARK  Name = 
REMARK  4 active torsions:
REMARK  status: ('A' for Active; 'I' for Inactive)
REMARK    1  A    between atoms: N_3  and  C_4
REMARK    2  A    between atoms: C_4  and  C_5
REMARK    3  A    between atoms: N_11  and  C_12
REMARK    4  A    between atoms: C_15  and  C_16
REMARK                            x       y       z     vdW  Elec       q    Type
REMARK                         _______ _______ _______ _____ _____    ______ ____
ROOT
ATOM      1  O   UNL     1       2.346   6.423  18.326  0.00  0.00    +0.000 OA
ATOM      2  C   UNL     1       2.730   6.484  19.487  0.00  0.00    +0.000 C 
ATOM      3  N   UNL     1       3.497   5.485  20.056  0.00  0.00    +0.000 N 
ATOM      4  N   UNL     1       2.433   7.484  20.393  0.00  0.00    +0.000 N 
ATOM      5  H   UNL     1       4.028   5.706  20.883  0.00  0.00    +0.000 HD
ATOM      6  H   UNL     1       2.977   7.504  21.241  0.00  0.00    +0.000 HD
ENDROOT
BRANCH   4   7
ATOM      7  C   UNL     1       1.471   8.510  20.231  0.00  0.00    +0.000 A 
ATOM      8  C   UNL     1       1.345   9.264  19.065  0.00  0.00    +0.000 A 
ATOM      9  C   UNL     1       0.329  10.219  18.930  0.00  0.00    +0.000 A 
ATOM     10  C   UNL     1      -0.588  10.447  19.963  0.00  0.00    +0.000 A 
ATOM     11  C   UNL     1      -0.451   9.708  21.143  0.00  0.00    +0.000 A 
ATOM     12  C   UNL     1       0.567   8.746  21.274  0.00  0.00    +0.000 A 
BRANCH  10  13
ATOM     13  C   UNL     1      -1.672  11.403  19.797  0.00  0.00    +0.000 A 
ATOM     14  C   UNL     1      -2.205  12.367  20.685  0.00  0.00    +0.000 A 
ATOM     15  N   UNL     1      -3.231  13.047  20.163  0.00  0.00    +0.000 NA
ATOM     16  N   UNL     1      -3.362  12.519  18.935  0.00  0.00    +0.000 N 
ATOM     17  C   UNL     1      -2.454  11.535  18.668  0.00  0.00    +0.000 A 
ATOM     18  H   UNL     1      -4.097  12.876  18.334  0.00  0.00    +0.000 HD
ENDBRANCH  10  13
ENDBRANCH   4   7
BRANCH   3  19
ATOM     19  C   UNL     1       3.924   4.335  19.269  0.00  0.00    +0.000 C 
BRANCH  19  20
ATOM     20  C   UNL     1       3.509   2.995  19.907  0.00  0.00    +0.000 C 
ATOM     21  C   UNL     1       2.222   3.106  20.743  0.00  0.00    +0.000 C 
ATOM     22  C   UNL     1       0.974   3.316  19.888  0.00  0.00    +0.000 C 
ATOM     23  C   UNL     1       0.827   2.234  18.822  0.00  0.00    +0.000 C 
ATOM     24  C   UNL     1       2.091   2.069  17.983  0.00  0.00    +0.000 C 
ATOM     25  C   UNL     1       3.337   1.889  18.850  0.00  0.00    +0.000 C 
ENDBRANCH  19  20
ENDBRANCH   3  19
TORSDOF 4
ENDMDL
MODEL 8
REMARK VINA RESULT:      -7.3      2.207      9.266
REMARK  Name = 
REMARK  4 active torsions:
REMARK  status: ('A' for Active; 'I' for Inactive)
REMARK    1  A    between atoms: N_3  and  C_4
REMARK    2  A    between atoms: C_4  and  C_5
REMARK    3  A    between atoms: N_11  and  C_12
REMARK    4  A    between atoms: C_15  and  C_16
REMARK                            x       y       z     vdW  Elec       q    Type
REMARK                         _______ _______ _______ _____ _____    ______ ____
ROOT
ATOM      1  O   UNL     1       5.051   5.015  19.573  0.00  0.00    +0.000 OA
ATOM      2  C   UNL     1       5.271   4.662  18.421  0.00  0.00    +0.000 C 
ATOM      3  N   UNL     1       4.851   3.436  17.939  0.00  0.00    +0.000 N 
ATOM      4  N   UNL     1       5.987   5.369  17.474  0.00  0.00    +0.000 N 
ATOM      5  H   UNL     1       4.786   3.315  16.942  0.00  0.00    +0.000 HD
ATOM      6  H   UNL     1       5.917   5.050  16.521  0.00  0.00    +0.000 HD
ENDROOT
BRANCH   4   7
ATOM      7  C   UNL     1       6.774   6.524  17.700  0.00  0.00    +0.000 A 
ATOM      8  C   UNL     1       6.534   7.747  17.076  0.00  0.00    +0.000 A 
ATOM      9  C   UNL     1       7.299   8.879  17.390  0.00  0.00    +0.000 A 
ATOM     10  C   UNL     1       8.327   8.814  18.337  0.00  0.00    +0.000 A 
ATOM     11  C   UNL     1       8.584   7.583  18.950  0.00  0.00    +0.000 A 
ATOM     12  C   UNL     1       7.812   6.449  18.637  0.00  0.00    +0.000 A 
BRANCH  10  13
ATOM     13  C   UNL     1       9.083  10.004  18.696  0.00  0.00    +0.000 A 
ATOM     14  C   UNL     1       9.743  10.964  17.894  0.00  0.00    +0.000 A 
ATOM     15  N   UNL     1      10.356  11.911  18.612  0.00  0.00    +0.000 NA
ATOM     16  N   UNL     1      10.094  11.559  19.881  0.00  0.00    +0.000 N 
ATOM     17  C   UNL     1       9.336  10.429  19.985  0.00  0.00    +0.000 A 
ATOM     18  H   UNL     1      10.468  12.136  20.627  0.00  0.00    +0.000 HD
ENDBRANCH  10  13
ENDBRANCH   4   7
BRANCH   3  19
ATOM     19  C   UNL     1       4.076   2.533  18.780  0.00  0.00    +0.000 C 
BRANCH  19  20
ATOM     20  C   UNL     1       2.619   2.383  18.301  0.00  0.00    +0.000 C 
ATOM     21  C   UNL     1       1.705   1.741  19.359  0.00  0.00    +0.000 C 
ATOM     22  C   UNL     1       1.434   2.663  20.547  0.00  0.00    +0.000 C 
ATOM     23  C   UNL     1       0.871   4.010  20.103  0.00  0.00    +0.000 C 
ATOM     24  C   UNL     1       1.731   4.674  19.031  0.00  0.00    +0.000 C 
ATOM     25  C   UNL     1       2.022   3.733  17.862  0.00  0.00    +0.000 C 
ENDBRANCH  19  20
ENDBRANCH   3  19
TORSDOF 4
ENDMDL
MODEL 9
REMARK VINA RESULT:      -7.3      2.336      9.170
REMARK  Name = 
REMARK  4 active torsions:
REMARK  status: ('A' for Active; 'I' for Inactive)
REMARK    1  A    between atoms: N_3  and  C_4
REMARK    2  A    between atoms: C_4  and  C_5
REMARK    3  A    between atoms: N_11  and  C_12
REMARK    4  A    between atoms: C_15  and  C_16
REMARK                            x       y       z     vdW  Elec       q    Type
REMARK                         _______ _______ _______ _____ _____    ______ ____
ROOT
ATOM      1  O   UNL     1       4.690   5.027  19.735  0.00  0.00    +0.000 OA
ATOM      2  C   UNL     1       5.279   4.345  18.906  0.00  0.00    +0.000 C 
ATOM      3  N   UNL     1       5.055   2.986  18.786  0.00  0.00    +0.000 N 
ATOM      4  N   UNL     1       6.255   4.785  18.033  0.00  0.00    +0.000 N 
ATOM      5  H   UNL     1       5.321   2.535  17.926  0.00  0.00    +0.000 HD
ATOM      6  H   UNL     1       6.504   4.163  17.281  0.00  0.00    +0.000 HD
ENDROOT
BRANCH   4   7
ATOM      7  C   UNL     1       6.910   6.040  18.062  0.00  0.00    +0.000 A 
ATOM      8  C   UNL     1       6.552   7.109  17.243  0.00  0.00    +0.000 A 
ATOM      9  C   UNL     1       7.185   8.353  17.362  0.00  0.00    +0.000 A 
ATOM     10  C   UNL     1       8.198   8.559  18.305  0.00  0.00    +0.000 A 
ATOM     11  C   UNL     1       8.574   7.481  19.116  0.00  0.00    +0.000 A 
ATOM     12  C   UNL     1       7.934   6.235  18.998  0.00  0.00    +0.000 A 
BRANCH  10  13
ATOM     13  C   UNL     1       8.816   9.866  18.461  0.00  0.00    +0.000 A 
ATOM     14  C   UNL     1       8.965  10.938  17.549  0.00  0.00    +0.000 A 
ATOM     15  N   UNL     1       9.624  11.978  18.071  0.00  0.00    +0.000 NA
ATOM     16  N   UNL     1       9.903  11.576  19.321  0.00  0.00    +0.000 N 
ATOM     17  C   UNL     1       9.441  10.323  19.604  0.00  0.00    +0.000 A 
ATOM     18  H   UNL     1      10.416  12.208  19.927  0.00  0.00    +0.000 HD
ENDBRANCH  10  13
ENDBRANCH   4   7
BRANCH   3  19
ATOM     19  C   UNL     1       4.060   2.320  19.617  0.00  0.00    +0.000 C 
BRANCH  19  20
ATOM     20  C   UNL     1       2.854   1.814  18.803  0.00  0.00    +0.000 C 
ATOM     21  C   UNL     1       1.504   2.205  19.429  0.00  0.00    +0.000 C 
ATOM     22  C   UNL     1       1.209   3.700  19.319  0.00  0.00    +0.000 C 
ATOM     23  C   UNL     1       1.289   4.191  17.876  0.00  0.00    +0.000 C 
ATOM     24  C   UNL     1       2.602   3.801  17.203  0.00  0.00    +0.000 C 
ATOM     25  C   UNL     1       2.901   2.309  17.345  0.00  0.00    +0.000 C 
ENDBRANCH  19  20
ENDBRANCH   3  19
TORSDOF 4
ENDMDL
