MODEL 1
REMARK VINA RESULT:      -7.3      0.000      0.000
REMARK  Name = 
REMARK  9 active torsions:
REMARK  status: ('A' for Active; 'I' for Inactive)
REMARK    1  A    between atoms: C_1  and  C_2
REMARK    2  A    between atoms: C_2  and  C_3
REMARK    3  A    between atoms: C_3  and  C_4
REMARK    4  A    between atoms: C_4  and  N_5
REMARK    5  A    between atoms: C_6  and  C_8
REMARK    6  A    between atoms: C_12  and  O_13
REMARK    7  A    between atoms: O_13  and  C_14
REMARK    8  A    between atoms: C_17  and  C_18
REMARK    9  A    between atoms: C_20  and  N_21
REMARK                            x       y       z     vdW  Elec       q    Type
REMARK                         _______ _______ _______ _____ _____    ______ ____
ROOT
ATOM      1  C   UNL     1       5.497   4.962  15.996  0.00  0.00    +0.000 A 
ATOM      2  S   UNL     1       5.259   3.734  17.161  0.00  0.00    +0.000 S 
ATOM      3  C   UNL     1       4.236   4.718  18.095  0.00  0.00    +0.000 A 
ATOM      4  N   UNL     1       3.732   4.226  19.241  0.00  0.00    +0.000 NA
ATOM      5  C   UNL     1       2.959   5.094  19.922  0.00  0.00    +0.000 A 
ATOM      6  C   UNL     1       2.672   6.400  19.515  0.00  0.00    +0.000 A 
ATOM      7 CL   UNL     1       1.669   7.400  20.521  0.00  0.00    +0.000 Cl
ATOM      8  C   UNL     1       3.208   6.888  18.302  0.00  0.00    +0.000 A 
ATOM      9  C   UNL     1       2.938   8.288  17.818  0.00  0.00    +0.000 C 
ATOM     10  C   UNL     1       4.034   5.987  17.555  0.00  0.00    +0.000 A 
ATOM     11  C   UNL     1       4.760   6.093  16.308  0.00  0.00    +0.000 A 
ENDROOT
BRANCH   1  13
ATOM     12  N   UNL     1       5.812   4.056  13.794  0.00  0.00    +0.000 N 
ATOM     13  C   UNL     1       6.370   4.756  14.844  0.00  0.00    +0.000 C 
ATOM     14  O   UNL     1       7.540   5.136  14.815  0.00  0.00    +0.000 OA
ATOM     15  H   UNL     1       4.880   3.681  13.923  0.00  0.00    +0.000 HD
BRANCH  12  16
ATOM     16  C   UNL     1       6.578   3.625  12.644  0.00  0.00    +0.000 C 
BRANCH  16  17
ATOM     17  C   UNL     1       5.720   2.934  11.582  0.00  0.00    +0.000 C 
BRANCH  17  19
ATOM     18  C   UNL     1       3.610   3.598  10.366  0.00  0.00    +0.000 C 
ATOM     19  C   UNL     1       4.232   3.267  11.714  0.00  0.00    +0.000 C 
ENDBRANCH  17  19
ENDBRANCH  16  17
ENDBRANCH  12  16
ENDBRANCH   1  13
BRANCH  11  20
ATOM     20  N   UNL     1       4.777   7.190  15.515  0.00  0.00    +0.000 N 
ATOM     21  H   UNL     1       4.614   7.165  14.518  0.00  0.00    +0.000 HD
ATOM     22  H   UNL     1       5.338   8.002  15.796  0.00  0.00    +0.000 HD
ENDBRANCH  11  20
BRANCH   5  23
ATOM     23  O   UNL     1       2.407   4.667  21.121  0.00  0.00    +0.000 OA
ATOM     24  C   UNL     1       1.359   3.717  20.973  0.00  0.00    +0.000 C 
ENDBRANCH   5  23
TORSDOF 6
ENDMDL
MODEL 2
REMARK VINA RESULT:      -7.2      0.818      1.235
REMARK  Name = 
REMARK  9 active torsions:
REMARK  status: ('A' for Active; 'I' for Inactive)
REMARK    1  A    between atoms: C_1  and  C_2
REMARK    2  A    between atoms: C_2  and  C_3
REMARK    3  A    between atoms: C_3  and  C_4
REMARK    4  A    between atoms: C_4  and  N_5
REMARK    5  A    between atoms: C_6  and  C_8
REMARK    6  A    between atoms: C_12  and  O_13
REMARK    7  A    between atoms: O_13  and  C_14
REMARK    8  A    between atoms: C_17  and  C_18
REMARK    9  A    between atoms: C_20  and  N_21
REMARK                            x       y       z     vdW  Elec       q    Type
REMARK                         _______ _______ _______ _____ _____    ______ ____
ROOT
ATOM      1  C   UNL     1       5.481   4.917  15.761  0.00  0.00    +0.000 A 
ATOM      2  S   UNL     1       5.204   3.654  16.878  0.00  0.00    +0.000 S 
ATOM      3  C   UNL     1       4.237   4.642  17.866  0.00  0.00    +0.000 A 
ATOM      4  N   UNL     1       3.725   4.126  18.999  0.00  0.00    +0.000 NA
ATOM      5  C   UNL     1       3.000   4.997  19.724  0.00  0.00    +0.000 A 
ATOM      6  C   UNL     1       2.764   6.330  19.374  0.00  0.00    +0.000 A 
ATOM      7 CL   UNL     1       1.818   7.329  20.434  0.00  0.00    +0.000 Cl
ATOM      8  C   UNL     1       3.306   6.844  18.174  0.00  0.00    +0.000 A 
ATOM      9  C   UNL     1       3.090   8.272  17.752  0.00  0.00    +0.000 C 
ATOM     10  C   UNL     1       4.083   5.939  17.380  0.00  0.00    +0.000 A 
ATOM     11  C   UNL     1       4.797   6.065  16.129  0.00  0.00    +0.000 A 
ENDROOT
BRANCH   1  13
ATOM     12  N   UNL     1       5.805   3.909  13.605  0.00  0.00    +0.000 N 
ATOM     13  C   UNL     1       6.330   4.722  14.589  0.00  0.00    +0.000 C 
ATOM     14  O   UNL     1       7.456   5.205  14.491  0.00  0.00    +0.000 OA
ATOM     15  H   UNL     1       4.918   3.459  13.792  0.00  0.00    +0.000 HD
BRANCH  12  16
ATOM     16  C   UNL     1       6.569   3.481  12.453  0.00  0.00    +0.000 C 
BRANCH  16  17
ATOM     17  C   UNL     1       5.824   2.457  11.593  0.00  0.00    +0.000 C 
BRANCH  17  19
ATOM     18  C   UNL     1       6.145  -0.029  11.292  0.00  0.00    +0.000 C 
ATOM     19  C   UNL     1       6.740   1.352  11.062  0.00  0.00    +0.000 C 
ENDBRANCH  17  19
ENDBRANCH  16  17
ENDBRANCH  12  16
ENDBRANCH   1  13
BRANCH  11  20
ATOM     20  N   UNL     1       4.852   7.192  15.381  0.00  0.00    +0.000 N 
ATOM     21  H   UNL     1       5.547   7.358  14.666  0.00  0.00    +0.000 HD
ATOM     22  H   UNL     1       4.471   8.066  15.762  0.00  0.00    +0.000 HD
ENDBRANCH  11  20
BRANCH   5  23
ATOM     23  O   UNL     1       2.445   4.545  20.913  0.00  0.00    +0.000 OA
ATOM     24  C   UNL     1       1.251   3.790  20.748  0.00  0.00    +0.000 C 
ENDBRANCH   5  23
TORSDOF 6
ENDMDL
MODEL 3
REMARK VINA RESULT:      -7.2      1.747      2.545
REMARK  Name = 
REMARK  9 active torsions:
REMARK  status: ('A' for Active; 'I' for Inactive)
REMARK    1  A    between atoms: C_1  and  C_2
REMARK    2  A    between atoms: C_2  and  C_3
REMARK    3  A    between atoms: C_3  and  C_4
REMARK    4  A    between atoms: C_4  and  N_5
REMARK    5  A    between atoms: C_6  and  C_8
REMARK    6  A    between atoms: C_12  and  O_13
REMARK    7  A    between atoms: O_13  and  C_14
REMARK    8  A    between atoms: C_17  and  C_18
REMARK    9  A    between atoms: C_20  and  N_21
REMARK                            x       y       z     vdW  Elec       q    Type
REMARK                         _______ _______ _______ _____ _____    ______ ____
ROOT
ATOM      1  C   UNL     1       5.299   5.044  16.273  0.00  0.00    +0.000 A 
ATOM      2  S   UNL     1       4.844   6.552  16.937  0.00  0.00    +0.000 S 
ATOM      3  C   UNL     1       3.831   5.820  18.089  0.00  0.00    +0.000 A 
ATOM      4  N   UNL     1       3.140   6.603  18.937  0.00  0.00    +0.000 NA
ATOM      5  C   UNL     1       2.345   5.929  19.789  0.00  0.00    +0.000 A 
ATOM      6  C   UNL     1       2.217   4.538  19.833  0.00  0.00    +0.000 A 
ATOM      7 CL   UNL     1       1.129   3.824  20.985  0.00  0.00    +0.000 Cl
ATOM      8  C   UNL     1       2.961   3.738  18.937  0.00  0.00    +0.000 A 
ATOM      9  C   UNL     1       2.856   2.237  18.935  0.00  0.00    +0.000 C 
ATOM     10  C   UNL     1       3.816   4.428  18.018  0.00  0.00    +0.000 A 
ATOM     11  C   UNL     1       4.710   3.998  16.965  0.00  0.00    +0.000 A 
ENDROOT
BRANCH   1  13
ATOM     12  N   UNL     1       5.723   4.276  14.037  0.00  0.00    +0.000 N 
ATOM     13  C   UNL     1       6.208   4.959  15.134  0.00  0.00    +0.000 C 
ATOM     14  O   UNL     1       7.348   5.420  15.151  0.00  0.00    +0.000 OA
ATOM     15  H   UNL     1       4.817   3.831  14.125  0.00  0.00    +0.000 HD
BRANCH  12  16
ATOM     16  C   UNL     1       6.541   3.959  12.886  0.00  0.00    +0.000 C 
BRANCH  16  17
ATOM     17  C   UNL     1       5.810   3.094  11.857  0.00  0.00    +0.000 C 
BRANCH  17  19
ATOM     18  C   UNL     1       3.713   3.430  10.493  0.00  0.00    +0.000 C 
ATOM     19  C   UNL     1       4.292   3.286  11.891  0.00  0.00    +0.000 C 
ENDBRANCH  17  19
ENDBRANCH  16  17
ENDBRANCH  12  16
ENDBRANCH   1  13
BRANCH  11  20
ATOM     20  N   UNL     1       4.942   2.707  16.628  0.00  0.00    +0.000 N 
ATOM     21  H   UNL     1       4.594   2.276  15.782  0.00  0.00    +0.000 HD
ATOM     22  H   UNL     1       5.118   2.019  17.370  0.00  0.00    +0.000 HD
ENDBRANCH  11  20
BRANCH   5  23
ATOM     23  O   UNL     1       1.590   6.666  20.691  0.00  0.00    +0.000 OA
ATOM     24  C   UNL     1       1.619   8.070  20.462  0.00  0.00    +0.000 C 
ENDBRANCH   5  23
TORSDOF 6
ENDMDL
MODEL 4
REMARK VINA RESULT:      -7.0      1.856      2.804
REMARK  Name = 
REMARK  9 active torsions:
REMARK  status: ('A' for Active; 'I' for Inactive)
REMARK    1  A    between atoms: C_1  and  C_2
REMARK    2  A    between atoms: C_2  and  C_3
REMARK    3  A    between atoms: C_3  and  C_4
REMARK    4  A    between atoms: C_4  and  N_5
REMARK    5  A    between atoms: C_6  and  C_8
REMARK    6  A    between atoms: C_12  and  O_13
REMARK    7  A    between atoms: O_13  and  C_14
REMARK    8  A    between atoms: C_17  and  C_18
REMARK    9  A    between atoms: C_20  and  N_21
REMARK                            x       y       z     vdW  Elec       q    Type
REMARK                         _______ _______ _______ _____ _____    ______ ____
ROOT
ATOM      1  C   UNL     1       5.457   5.177  15.748  0.00  0.00    +0.000 A 
ATOM      2  S   UNL     1       5.012   6.791  16.092  0.00  0.00    +0.000 S 
ATOM      3  C   UNL     1       4.049   6.320  17.411  0.00  0.00    +0.000 A 
ATOM      4  N   UNL     1       3.381   7.265  18.098  0.00  0.00    +0.000 NA
ATOM      5  C   UNL     1       2.624   6.786  19.103  0.00  0.00    +0.000 A 
ATOM      6  C   UNL     1       2.510   5.436  19.447  0.00  0.00    +0.000 A 
ATOM      7 CL   UNL     1       1.472   4.983  20.764  0.00  0.00    +0.000 Cl
ATOM      8  C   UNL     1       3.229   4.465  18.714  0.00  0.00    +0.000 A 
ATOM      9  C   UNL     1       3.138   2.997  19.036  0.00  0.00    +0.000 C 
ATOM     10  C   UNL     1       4.044   4.945  17.638  0.00  0.00    +0.000 A 
ATOM     11  C   UNL     1       4.903   4.301  16.668  0.00  0.00    +0.000 A 
ENDROOT
BRANCH   1  13
ATOM     12  N   UNL     1       5.740   4.106  13.616  0.00  0.00    +0.000 N 
ATOM     13  C   UNL     1       6.325   4.853  14.619  0.00  0.00    +0.000 C 
ATOM     14  O   UNL     1       7.510   5.177  14.572  0.00  0.00    +0.000 OA
ATOM     15  H   UNL     1       4.791   3.783  13.764  0.00  0.00    +0.000 HD
BRANCH  12  16
ATOM     16  C   UNL     1       6.490   3.563  12.505  0.00  0.00    +0.000 C 
BRANCH  16  17
ATOM     17  C   UNL     1       5.730   2.468  11.753  0.00  0.00    +0.000 C 
BRANCH  17  19
ATOM     18  C   UNL     1       6.119   0.022  11.264  0.00  0.00    +0.000 C 
ATOM     19  C   UNL     1       6.660   1.435  11.112  0.00  0.00    +0.000 C 
ENDBRANCH  17  19
ENDBRANCH  16  17
ENDBRANCH  12  16
ENDBRANCH   1  13
BRANCH  11  20
ATOM     20  N   UNL     1       5.134   2.968  16.605  0.00  0.00    +0.000 N 
ATOM     21  H   UNL     1       4.644   2.286  17.168  0.00  0.00    +0.000 HD
ATOM     22  H   UNL     1       6.057   2.634  16.305  0.00  0.00    +0.000 HD
ENDBRANCH  11  20
BRANCH   5  23
ATOM     23  O   UNL     1       1.896   7.697  19.855  0.00  0.00    +0.000 OA
ATOM     24  C   UNL     1       1.546   8.884  19.153  0.00  0.00    +0.000 C 
ENDBRANCH   5  23
TORSDOF 6
ENDMDL
MODEL 5
REMARK VINA RESULT:      -7.0      1.695      2.578
REMARK  Name = 
REMARK  9 active torsions:
REMARK  status: ('A' for Active; 'I' for Inactive)
REMARK    1  A    between atoms: C_1  and  C_2
REMARK    2  A    between atoms: C_2  and  C_3
REMARK    3  A    between atoms: C_3  and  C_4
REMARK    4  A    between atoms: C_4  and  N_5
REMARK    5  A    between atoms: C_6  and  C_8
REMARK    6  A    between atoms: C_12  and  O_13
REMARK    7  A    between atoms: O_13  and  C_14
REMARK    8  A    between atoms: C_17  and  C_18
REMARK    9  A    between atoms: C_20  and  N_21
REMARK                            x       y       z     vdW  Elec       q    Type
REMARK                         _______ _______ _______ _____ _____    ______ ____
ROOT
ATOM      1  C   UNL     1       5.427   5.261  15.853  0.00  0.00    +0.000 A 
ATOM      2  S   UNL     1       4.956   6.892  16.050  0.00  0.00    +0.000 S 
ATOM      3  C   UNL     1       3.998   6.526  17.405  0.00  0.00    +0.000 A 
ATOM      4  N   UNL     1       3.314   7.518  18.004  0.00  0.00    +0.000 NA
ATOM      5  C   UNL     1       2.562   7.120  19.048  0.00  0.00    +0.000 A 
ATOM      6  C   UNL     1       2.469   5.805  19.512  0.00  0.00    +0.000 A 
ATOM      7 CL   UNL     1       1.435   5.455  20.863  0.00  0.00    +0.000 Cl
ATOM      8  C   UNL     1       3.204   4.783  18.869  0.00  0.00    +0.000 A 
ATOM      9  C   UNL     1       3.136   3.349  19.322  0.00  0.00    +0.000 C 
ATOM     10  C   UNL     1       4.014   5.177  17.755  0.00  0.00    +0.000 A 
ATOM     11  C   UNL     1       4.885   4.463  16.848  0.00  0.00    +0.000 A 
ENDROOT
BRANCH   1  13
ATOM     12  N   UNL     1       5.710   4.071  13.785  0.00  0.00    +0.000 N 
ATOM     13  C   UNL     1       6.302   4.850  14.758  0.00  0.00    +0.000 C 
ATOM     14  O   UNL     1       7.498   5.134  14.716  0.00  0.00    +0.000 OA
ATOM     15  H   UNL     1       4.749   3.787  13.933  0.00  0.00    +0.000 HD
BRANCH  12  16
ATOM     16  C   UNL     1       6.460   3.446  12.718  0.00  0.00    +0.000 C 
BRANCH  16  17
ATOM     17  C   UNL     1       5.709   3.445  11.384  0.00  0.00    +0.000 C 
BRANCH  17  19
ATOM     18  C   UNL     1       3.417   3.670  10.352  0.00  0.00    +0.000 C 
ATOM     19  C   UNL     1       4.213   3.169  11.547  0.00  0.00    +0.000 C 
ENDBRANCH  17  19
ENDBRANCH  16  17
ENDBRANCH  12  16
ENDBRANCH   1  13
BRANCH  11  20
ATOM     20  N   UNL     1       5.137   3.133  16.905  0.00  0.00    +0.000 N 
ATOM     21  H   UNL     1       5.621   2.622  16.178  0.00  0.00    +0.000 HD
ATOM     22  H   UNL     1       4.521   2.530  17.460  0.00  0.00    +0.000 HD
ENDBRANCH  11  20
BRANCH   5  23
ATOM     23  O   UNL     1       1.818   8.083  19.714  0.00  0.00    +0.000 OA
ATOM     24  C   UNL     1       1.450   9.195  18.907  0.00  0.00    +0.000 C 
ENDBRANCH   5  23
TORSDOF 6
ENDMDL
MODEL 6
REMARK VINA RESULT:      -6.3      4.030      6.335
REMARK  Name = 
REMARK  9 active torsions:
REMARK  status: ('A' for Active; 'I' for Inactive)
REMARK    1  A    between atoms: C_1  and  C_2
REMARK    2  A    between atoms: C_2  and  C_3
REMARK    3  A    between atoms: C_3  and  C_4
REMARK    4  A    between atoms: C_4  and  N_5
REMARK    5  A    between atoms: C_6  and  C_8
REMARK    6  A    between atoms: C_12  and  O_13
REMARK    7  A    between atoms: O_13  and  C_14
REMARK    8  A    between atoms: C_17  and  C_18
REMARK    9  A    between atoms: C_20  and  N_21
REMARK                            x       y       z     vdW  Elec       q    Type
REMARK                         _______ _______ _______ _____ _____    ______ ____
ROOT
ATOM      1  C   UNL     1       2.597   7.046  18.970  0.00  0.00    +0.000 A 
ATOM      2  S   UNL     1       2.494   8.294  17.806  0.00  0.00    +0.000 S 
ATOM      3  C   UNL     1       1.499   9.242  18.806  0.00  0.00    +0.000 A 
ATOM      4  N   UNL     1       1.056  10.426  18.346  0.00  0.00    +0.000 NA
ATOM      5  C   UNL     1       0.252  11.086  19.201  0.00  0.00    +0.000 A 
ATOM      6  C   UNL     1      -0.117  10.626  20.469  0.00  0.00    +0.000 A 
ATOM      7 CL   UNL     1      -1.182  11.593  21.443  0.00  0.00    +0.000 Cl
ATOM      8  C   UNL     1       0.369   9.383  20.931  0.00  0.00    +0.000 A 
ATOM      9  C   UNL     1      -0.001   8.836  22.283  0.00  0.00    +0.000 C 
ATOM     10  C   UNL     1       1.229   8.658  20.042  0.00  0.00    +0.000 A 
ATOM     11  C   UNL     1       1.910   7.385  20.124  0.00  0.00    +0.000 A 
ENDROOT
BRANCH   1  13
ATOM     12  N   UNL     1       2.812   4.997  17.734  0.00  0.00    +0.000 N 
ATOM     13  C   UNL     1       3.346   5.821  18.705  0.00  0.00    +0.000 C 
ATOM     14  O   UNL     1       4.360   5.509  19.327  0.00  0.00    +0.000 OA
ATOM     15  H   UNL     1       1.920   5.262  17.334  0.00  0.00    +0.000 HD
BRANCH  12  16
ATOM     16  C   UNL     1       3.331   3.676  17.456  0.00  0.00    +0.000 C 
BRANCH  16  17
ATOM     17  C   UNL     1       2.422   2.558  17.972  0.00  0.00    +0.000 C 
BRANCH  17  19
ATOM     18  C   UNL     1       1.053   2.979  20.051  0.00  0.00    +0.000 C 
ATOM     19  C   UNL     1       1.099   3.083  18.535  0.00  0.00    +0.000 C 
ENDBRANCH  17  19
ENDBRANCH  16  17
ENDBRANCH  12  16
ENDBRANCH   1  13
BRANCH  11  20
ATOM     20  N   UNL     1       1.869   6.554  21.193  0.00  0.00    +0.000 N 
ATOM     21  H   UNL     1       1.669   6.862  22.136  0.00  0.00    +0.000 HD
ATOM     22  H   UNL     1       2.420   5.688  21.176  0.00  0.00    +0.000 HD
ENDBRANCH  11  20
BRANCH   5  23
ATOM     23  O   UNL     1      -0.256  12.312  18.798  0.00  0.00    +0.000 OA
ATOM     24  C   UNL     1      -1.418  12.220  17.981  0.00  0.00    +0.000 C 
ENDBRANCH   5  23
TORSDOF 6
ENDMDL
MODEL 7
REMARK VINA RESULT:      -6.3      1.949      2.766
REMARK  Name = 
REMARK  9 active torsions:
REMARK  status: ('A' for Active; 'I' for Inactive)
REMARK    1  A    between atoms: C_1  and  C_2
REMARK    2  A    between atoms: C_2  and  C_3
REMARK    3  A    between atoms: C_3  and  C_4
REMARK    4  A    between atoms: C_4  and  N_5
REMARK    5  A    between atoms: C_6  and  C_8
REMARK    6  A    between atoms: C_12  and  O_13
REMARK    7  A    between atoms: O_13  and  C_14
REMARK    8  A    between atoms: C_17  and  C_18
REMARK    9  A    between atoms: C_20  and  N_21
REMARK                            x       y       z     vdW  Elec       q    Type
REMARK                         _______ _______ _______ _____ _____    ______ ____
ROOT
ATOM      1  C   UNL     1       5.654   5.683  16.972  0.00  0.00    +0.000 A 
ATOM      2  S   UNL     1       4.562   6.960  17.286  0.00  0.00    +0.000 S 
ATOM      3  C   UNL     1       3.788   6.090  18.524  0.00  0.00    +0.000 A 
ATOM      4  N   UNL     1       2.745   6.654  19.161  0.00  0.00    +0.000 NA
ATOM      5  C   UNL     1       2.184   5.872  20.102  0.00  0.00    +0.000 A 
ATOM      6  C   UNL     1       2.612   4.582  20.431  0.00  0.00    +0.000 A 
ATOM      7 CL   UNL     1       1.764   3.697  21.662  0.00  0.00    +0.000 Cl
ATOM      8  C   UNL     1       3.716   4.017  19.753  0.00  0.00    +0.000 A 
ATOM      9  C   UNL     1       4.214   2.631  20.061  0.00  0.00    +0.000 C 
ATOM     10  C   UNL     1       4.334   4.827  18.745  0.00  0.00    +0.000 A 
ATOM     11  C   UNL     1       5.446   4.626  17.843  0.00  0.00    +0.000 A 
ENDROOT
BRANCH   1  13
ATOM     12  N   UNL     1       6.364   5.089  14.755  0.00  0.00    +0.000 N 
ATOM     13  C   UNL     1       6.654   5.783  15.912  0.00  0.00    +0.000 C 
ATOM     14  O   UNL     1       7.709   6.402  16.044  0.00  0.00    +0.000 OA
ATOM     15  H   UNL     1       5.529   4.516  14.749  0.00  0.00    +0.000 HD
BRANCH  12  16
ATOM     16  C   UNL     1       7.309   4.948  13.669  0.00  0.00    +0.000 C 
BRANCH  16  17
ATOM     17  C   UNL     1       6.725   4.204  12.465  0.00  0.00    +0.000 C 
BRANCH  17  19
ATOM     18  C   UNL     1       4.572   3.251  11.556  0.00  0.00    +0.000 C 
ATOM     19  C   UNL     1       5.425   3.469  12.796  0.00  0.00    +0.000 C 
ENDBRANCH  17  19
ENDBRANCH  16  17
ENDBRANCH  12  16
ENDBRANCH   1  13
BRANCH  11  20
ATOM     20  N   UNL     1       6.209   3.508  17.793  0.00  0.00    +0.000 N 
ATOM     21  H   UNL     1       7.214   3.508  17.910  0.00  0.00    +0.000 HD
ATOM     22  H   UNL     1       5.882   2.702  17.249  0.00  0.00    +0.000 HD
ENDBRANCH  11  20
BRANCH   5  23
ATOM     23  O   UNL     1       1.096   6.377  20.799  0.00  0.00    +0.000 OA
ATOM     24  C   UNL     1       1.151   7.780  21.025  0.00  0.00    +0.000 C 
ENDBRANCH   5  23
TORSDOF 6
ENDMDL
MODEL 8
REMARK VINA RESULT:      -6.2      4.551      6.751
REMARK  Name = 
REMARK  9 active torsions:
REMARK  status: ('A' for Active; 'I' for Inactive)
REMARK    1  A    between atoms: C_1  and  C_2
REMARK    2  A    between atoms: C_2  and  C_3
REMARK    3  A    between atoms: C_3  and  C_4
REMARK    4  A    between atoms: C_4  and  N_5
REMARK    5  A    between atoms: C_6  and  C_8
REMARK    6  A    between atoms: C_12  and  O_13
REMARK    7  A    between atoms: O_13  and  C_14
REMARK    8  A    between atoms: C_17  and  C_18
REMARK    9  A    between atoms: C_20  and  N_21
REMARK                            x       y       z     vdW  Elec       q    Type
REMARK                         _______ _______ _______ _____ _____    ______ ____
ROOT
ATOM      1  C   UNL     1       2.170   7.991  18.826  0.00  0.00    +0.000 A 
ATOM      2  S   UNL     1       1.854   9.392  17.899  0.00  0.00    +0.000 S 
ATOM      3  C   UNL     1       1.039  10.147  19.185  0.00  0.00    +0.000 A 
ATOM      4  N   UNL     1       0.511  11.369  18.991  0.00  0.00    +0.000 NA
ATOM      5  C   UNL     1      -0.140  11.866  20.059  0.00  0.00    +0.000 A 
ATOM      6  C   UNL     1      -0.279  11.213  21.287  0.00  0.00    +0.000 A 
ATOM      7 CL   UNL     1      -1.167  11.987  22.563  0.00  0.00    +0.000 Cl
ATOM      8  C   UNL     1       0.293   9.933  21.467  0.00  0.00    +0.000 A 
ATOM      9  C   UNL     1       0.168   9.180  22.765  0.00  0.00    +0.000 C 
ATOM     10  C   UNL     1       0.992   9.378  20.346  0.00  0.00    +0.000 A 
ATOM     11  C   UNL     1       1.690   8.132  20.118  0.00  0.00    +0.000 A 
ENDROOT
BRANCH   1  13
ATOM     12  N   UNL     1       3.971   7.152  17.475  0.00  0.00    +0.000 N 
ATOM     13  C   UNL     1       2.874   6.846  18.255  0.00  0.00    +0.000 C 
ATOM     14  O   UNL     1       2.499   5.685  18.412  0.00  0.00    +0.000 OA
ATOM     15  H   UNL     1       4.164   8.130  17.301  0.00  0.00    +0.000 HD
BRANCH  12  16
ATOM     16  C   UNL     1       4.687   6.157  16.707  0.00  0.00    +0.000 C 
BRANCH  16  17
ATOM     17  C   UNL     1       5.940   5.643  17.420  0.00  0.00    +0.000 C 
BRANCH  17  19
ATOM     18  C   UNL     1       7.927   6.583  18.661  0.00  0.00    +0.000 C 
ATOM     19  C   UNL     1       7.093   6.650  17.391  0.00  0.00    +0.000 C 
ENDBRANCH  17  19
ENDBRANCH  16  17
ENDBRANCH  12  16
ENDBRANCH   1  13
BRANCH  11  20
ATOM     20  N   UNL     1       1.844   7.152  21.041  0.00  0.00    +0.000 N 
ATOM     21  H   UNL     1       2.647   7.076  21.651  0.00  0.00    +0.000 HD
ATOM     22  H   UNL     1       1.382   6.248  20.893  0.00  0.00    +0.000 HD
ENDBRANCH  11  20
BRANCH   5  23
ATOM     23  O   UNL     1      -0.722  13.120  19.938  0.00  0.00    +0.000 OA
ATOM     24  C   UNL     1      -0.393  13.799  18.732  0.00  0.00    +0.000 C 
ENDBRANCH   5  23
TORSDOF 6
ENDMDL
MODEL 9
REMARK VINA RESULT:      -6.1      4.015      6.054
REMARK  Name = 
REMARK  9 active torsions:
REMARK  status: ('A' for Active; 'I' for Inactive)
REMARK    1  A    between atoms: C_1  and  C_2
REMARK    2  A    between atoms: C_2  and  C_3
REMARK    3  A    between atoms: C_3  and  C_4
REMARK    4  A    between atoms: C_4  and  N_5
REMARK    5  A    between atoms: C_6  and  C_8
REMARK    6  A    between atoms: C_12  and  O_13
REMARK    7  A    between atoms: O_13  and  C_14
REMARK    8  A    between atoms: C_17  and  C_18
REMARK    9  A    between atoms: C_20  and  N_21
REMARK                            x       y       z     vdW  Elec       q    Type
REMARK                         _______ _______ _______ _____ _____    ______ ____
ROOT
ATOM      1  C   UNL     1       2.380   7.276  18.789  0.00  0.00    +0.000 A 
ATOM      2  S   UNL     1       2.289   8.623  17.742  0.00  0.00    +0.000 S 
ATOM      3  C   UNL     1       1.532   9.582  18.923  0.00  0.00    +0.000 A 
ATOM      4  N   UNL     1       1.180  10.842  18.609  0.00  0.00    +0.000 NA
ATOM      5  C   UNL     1       0.560  11.506  19.603  0.00  0.00    +0.000 A 
ATOM      6  C   UNL     1       0.287  10.981  20.869  0.00  0.00    +0.000 A 
ATOM      7 CL   UNL     1      -0.540  11.968  22.035  0.00  0.00    +0.000 Cl
ATOM      8  C   UNL     1       0.676   9.657  21.175  0.00  0.00    +0.000 A 
ATOM      9  C   UNL     1       0.401   9.038  22.520  0.00  0.00    +0.000 C 
ATOM     10  C   UNL     1       1.339   8.925  20.137  0.00  0.00    +0.000 A 
ATOM     11  C   UNL     1       1.873   7.584  20.042  0.00  0.00    +0.000 A 
ENDROOT
BRANCH   1  13
ATOM     12  N   UNL     1       4.036   6.104  17.502  0.00  0.00    +0.000 N 
ATOM     13  C   UNL     1       2.946   6.005  18.345  0.00  0.00    +0.000 C 
ATOM     14  O   UNL     1       2.469   4.915  18.654  0.00  0.00    +0.000 OA
ATOM     15  H   UNL     1       4.315   7.030  17.203  0.00  0.00    +0.000 HD
BRANCH  12  16
ATOM     16  C   UNL     1       4.621   4.958  16.843  0.00  0.00    +0.000 C 
BRANCH  16  17
ATOM     17  C   UNL     1       5.491   5.341  15.643  0.00  0.00    +0.000 C 
BRANCH  17  19
ATOM     18  C   UNL     1       7.368   4.578  17.147  0.00  0.00    +0.000 C 
ATOM     19  C   UNL     1       6.895   4.737  15.711  0.00  0.00    +0.000 C 
ENDBRANCH  17  19
ENDBRANCH  16  17
ENDBRANCH  12  16
ENDBRANCH   1  13
BRANCH  11  20
ATOM     20  N   UNL     1       1.858   6.673  21.043  0.00  0.00    +0.000 N 
ATOM     21  H   UNL     1       2.274   6.831  21.952  0.00  0.00    +0.000 HD
ATOM     22  H   UNL     1       1.798   5.675  20.812  0.00  0.00    +0.000 HD
ENDBRANCH  11  20
BRANCH   5  23
ATOM     23  O   UNL     1       0.155  12.810  19.356  0.00  0.00    +0.000 OA
ATOM     24  C   UNL     1      -0.834  12.929  18.340  0.00  0.00    +0.000 C 
ENDBRANCH   5  23
TORSDOF 6
ENDMDL
