MODEL 1
REMARK VINA RESULT:      -7.4      0.000      0.000
REMARK  Name = 
REMARK  9 active torsions:
REMARK  status: ('A' for Active; 'I' for Inactive)
REMARK    1  A    between atoms: C_2  and  O_3
REMARK    2  A    between atoms: C_2  and  C_4
REMARK    3  A    between atoms: C_4  and  C_5
REMARK    4  A    between atoms: C_5  and  N_6
REMARK    5  A    between atoms: C_7  and  C_9
REMARK    6  A    between atoms: N_16  and  C_17
REMARK    7  A    between atoms: C_17  and  C_18
REMARK    8  A    between atoms: C_18  and  C_19
REMARK    9  A    between atoms: C_19  and  N_20
REMARK                            x       y       z     vdW  Elec       q    Type
REMARK                         _______ _______ _______ _____ _____    ______ ____
ROOT
ATOM      1  C   UNL     1       2.109   6.977  19.146  0.00  0.00    +0.000 A 
ATOM      2  C   UNL     1       2.084   7.937  18.126  0.00  0.00    +0.000 A 
ATOM      3  C   UNL     1       1.676   9.256  18.372  0.00  0.00    +0.000 A 
ATOM      4  C   UNL     1       1.303   9.587  19.685  0.00  0.00    +0.000 A 
ATOM      5  C   UNL     1       1.326   8.646  20.715  0.00  0.00    +0.000 A 
ATOM      6  C   UNL     1       0.890   9.347  21.856  0.00  0.00    +0.000 A 
ATOM      7  N   UNL     1       0.609  10.624  21.598  0.00  0.00    +0.000 NA
ATOM      8  N   UNL     1       0.871  10.753  20.280  0.00  0.00    +0.000 N 
ATOM      9  C   UNL     1       1.737   7.326  20.453  0.00  0.00    +0.000 A 
ENDROOT
BRANCH   1  11
ATOM     10  N   UNL     1       3.281   4.949  19.817  0.00  0.00    +0.000 N 
ATOM     11  C   UNL     1       2.570   5.597  18.830  0.00  0.00    +0.000 C 
ATOM     12  O   UNL     1       2.317   5.091  17.741  0.00  0.00    +0.000 OA
ATOM     13  H   UNL     1       3.386   5.373  20.731  0.00  0.00    +0.000 HD
BRANCH  10  14
ATOM     14  C   UNL     1       3.807   3.607  19.651  0.00  0.00    +0.000 C 
BRANCH  14  15
ATOM     15  C   UNL     1       2.785   2.524  19.977  0.00  0.00    +0.000 C 
BRANCH  15  17
ATOM     16  O   UNL     1       2.333   3.004  22.309  0.00  0.00    +0.000 OA
ATOM     17  C   UNL     1       1.930   2.907  21.160  0.00  0.00    +0.000 C 
BRANCH  17  18
ATOM     18  O   UNL     1       0.649   3.178  20.822  0.00  0.00    +0.000 OA
ATOM     19  H   UNL     1       0.114   2.389  20.608  0.00  0.00    +0.000 HD
ENDBRANCH  17  18
ENDBRANCH  15  17
ENDBRANCH  14  15
ENDBRANCH  10  14
ENDBRANCH   1  11
BRANCH   8  20
ATOM     20  C   UNL     1       0.646  12.046  19.657  0.00  0.00    +0.000 C 
BRANCH  20  21
ATOM     21  C   UNL     1      -0.809  12.518  19.696  0.00  0.00    +0.000 C 
BRANCH  21  22
ATOM     22  C   UNL     1      -1.793  11.451  19.219  0.00  0.00    +0.000 C 
BRANCH  22  23
ATOM     23  N   UNL     1      -2.560  11.936  18.079  0.00  0.00    +0.000 N 
ATOM     24  C   UNL     1      -2.686  11.171  16.981  0.00  0.00    +0.000 A 
ATOM     25  N   UNL     1      -2.129  10.017  16.705  0.00  0.00    +0.000 NA
ATOM     26  C   UNL     1      -2.557   9.687  15.444  0.00  0.00    +0.000 A 
ATOM     27  C   UNL     1      -3.397  10.652  14.945  0.00  0.00    +0.000 A 
ATOM     28  N   UNL     1      -3.483  11.584  15.944  0.00  0.00    +0.000 N 
ATOM     29  H   UNL     1      -3.173  12.721  18.269  0.00  0.00    +0.000 HD
ATOM     30  H   UNL     1      -4.009  12.444  15.925  0.00  0.00    +0.000 HD
ENDBRANCH  22  23
ENDBRANCH  21  22
ENDBRANCH  20  21
ENDBRANCH   8  20
TORSDOF 9
ENDMDL
MODEL 2
REMARK VINA RESULT:      -7.4      4.682      7.681
REMARK  Name = 
REMARK  9 active torsions:
REMARK  status: ('A' for Active; 'I' for Inactive)
REMARK    1  A    between atoms: C_2  and  O_3
REMARK    2  A    between atoms: C_2  and  C_4
REMARK    3  A    between atoms: C_4  and  C_5
REMARK    4  A    between atoms: C_5  and  N_6
REMARK    5  A    between atoms: C_7  and  C_9
REMARK    6  A    between atoms: N_16  and  C_17
REMARK    7  A    between atoms: C_17  and  C_18
REMARK    8  A    between atoms: C_18  and  C_19
REMARK    9  A    between atoms: C_19  and  N_20
REMARK                            x       y       z     vdW  Elec       q    Type
REMARK                         _______ _______ _______ _____ _____    ______ ____
ROOT
ATOM      1  C   UNL     1       5.801   4.461  16.750  0.00  0.00    +0.000 A 
ATOM      2  C   UNL     1       6.072   4.706  18.102  0.00  0.00    +0.000 A 
ATOM      3  C   UNL     1       5.257   4.184  19.118  0.00  0.00    +0.000 A 
ATOM      4  C   UNL     1       4.162   3.393  18.731  0.00  0.00    +0.000 A 
ATOM      5  C   UNL     1       3.880   3.134  17.390  0.00  0.00    +0.000 A 
ATOM      6  C   UNL     1       2.727   2.325  17.412  0.00  0.00    +0.000 A 
ATOM      7  N   UNL     1       2.297   2.077  18.649  0.00  0.00    +0.000 NA
ATOM      8  N   UNL     1       3.182   2.727  19.435  0.00  0.00    +0.000 N 
ATOM      9  C   UNL     1       4.706   3.666  16.381  0.00  0.00    +0.000 A 
ENDROOT
BRANCH   1  11
ATOM     10  N   UNL     1       6.679   4.422  14.477  0.00  0.00    +0.000 N 
ATOM     11  C   UNL     1       6.712   5.025  15.717  0.00  0.00    +0.000 C 
ATOM     12  O   UNL     1       7.442   5.976  15.982  0.00  0.00    +0.000 OA
ATOM     13  H   UNL     1       5.996   3.700  14.280  0.00  0.00    +0.000 HD
BRANCH  10  14
ATOM     14  C   UNL     1       7.519   4.851  13.375  0.00  0.00    +0.000 C 
BRANCH  14  15
ATOM     15  C   UNL     1       7.044   4.321  12.026  0.00  0.00    +0.000 C 
BRANCH  15  17
ATOM     16  O   UNL     1       4.749   3.643  12.412  0.00  0.00    +0.000 OA
ATOM     17  C   UNL     1       5.910   3.338  12.185  0.00  0.00    +0.000 C 
BRANCH  17  18
ATOM     18  O   UNL     1       6.294   2.053  12.011  0.00  0.00    +0.000 OA
ATOM     19  H   UNL     1       5.684   1.523  11.464  0.00  0.00    +0.000 HD
ENDBRANCH  17  18
ENDBRANCH  15  17
ENDBRANCH  14  15
ENDBRANCH  10  14
ENDBRANCH   1  11
BRANCH   8  20
ATOM     20  C   UNL     1       2.989   2.678  20.874  0.00  0.00    +0.000 C 
BRANCH  20  21
ATOM     21  C   UNL     1       2.561   4.009  21.497  0.00  0.00    +0.000 C 
BRANCH  21  22
ATOM     22  C   UNL     1       1.419   4.680  20.735  0.00  0.00    +0.000 C 
BRANCH  22  23
ATOM     23  N   UNL     1       1.606   6.125  20.702  0.00  0.00    +0.000 N 
ATOM     24  C   UNL     1       2.022   6.722  19.572  0.00  0.00    +0.000 A 
ATOM     25  N   UNL     1       2.397   6.182  18.437  0.00  0.00    +0.000 NA
ATOM     26  C   UNL     1       2.762   7.228  17.628  0.00  0.00    +0.000 A 
ATOM     27  C   UNL     1       2.600   8.427  18.276  0.00  0.00    +0.000 A 
ATOM     28  N   UNL     1       2.111   8.089  19.510  0.00  0.00    +0.000 N 
ATOM     29  H   UNL     1       1.168   6.638  21.459  0.00  0.00    +0.000 HD
ATOM     30  H   UNL     1       1.881   8.719  20.263  0.00  0.00    +0.000 HD
ENDBRANCH  22  23
ENDBRANCH  21  22
ENDBRANCH  20  21
ENDBRANCH   8  20
TORSDOF 9
ENDMDL
MODEL 3
REMARK VINA RESULT:      -7.2      1.555      2.102
REMARK  Name = 
REMARK  9 active torsions:
REMARK  status: ('A' for Active; 'I' for Inactive)
REMARK    1  A    between atoms: C_2  and  O_3
REMARK    2  A    between atoms: C_2  and  C_4
REMARK    3  A    between atoms: C_4  and  C_5
REMARK    4  A    between atoms: C_5  and  N_6
REMARK    5  A    between atoms: C_7  and  C_9
REMARK    6  A    between atoms: N_16  and  C_17
REMARK    7  A    between atoms: C_17  and  C_18
REMARK    8  A    between atoms: C_18  and  C_19
REMARK    9  A    between atoms: C_19  and  N_20
REMARK                            x       y       z     vdW  Elec       q    Type
REMARK                         _______ _______ _______ _____ _____    ______ ____
ROOT
ATOM      1  C   UNL     1       2.413   6.967  18.812  0.00  0.00    +0.000 A 
ATOM      2  C   UNL     1       1.863   7.076  20.096  0.00  0.00    +0.000 A 
ATOM      3  C   UNL     1       1.343   8.291  20.567  0.00  0.00    +0.000 A 
ATOM      4  C   UNL     1       1.380   9.395  19.700  0.00  0.00    +0.000 A 
ATOM      5  C   UNL     1       1.919   9.303  18.416  0.00  0.00    +0.000 A 
ATOM      6  C   UNL     1       1.779  10.595  17.872  0.00  0.00    +0.000 A 
ATOM      7  N   UNL     1       1.203  11.449  18.717  0.00  0.00    +0.000 NA
ATOM      8  N   UNL     1       0.964  10.703  19.817  0.00  0.00    +0.000 N 
ATOM      9  C   UNL     1       2.438   8.079  17.957  0.00  0.00    +0.000 A 
ENDROOT
BRANCH   1  11
ATOM     10  N   UNL     1       2.266   4.535  18.826  0.00  0.00    +0.000 N 
ATOM     11  C   UNL     1       2.932   5.647  18.358  0.00  0.00    +0.000 C 
ATOM     12  O   UNL     1       3.902   5.584  17.608  0.00  0.00    +0.000 OA
ATOM     13  H   UNL     1       1.417   4.640  19.369  0.00  0.00    +0.000 HD
BRANCH  10  14
ATOM     14  C   UNL     1       2.663   3.182  18.483  0.00  0.00    +0.000 C 
BRANCH  14  15
ATOM     15  C   UNL     1       3.063   2.354  19.699  0.00  0.00    +0.000 C 
BRANCH  15  17
ATOM     16  O   UNL     1       5.151   1.661  20.714  0.00  0.00    +0.000 OA
ATOM     17  C   UNL     1       4.558   2.357  19.905  0.00  0.00    +0.000 C 
BRANCH  17  18
ATOM     18  O   UNL     1       5.207   3.193  19.063  0.00  0.00    +0.000 OA
ATOM     19  H   UNL     1       5.713   2.741  18.360  0.00  0.00    +0.000 HD
ENDBRANCH  17  18
ENDBRANCH  15  17
ENDBRANCH  14  15
ENDBRANCH  10  14
ENDBRANCH   1  11
BRANCH   8  20
ATOM     20  C   UNL     1       0.346  11.347  20.964  0.00  0.00    +0.000 C 
BRANCH  20  21
ATOM     21  C   UNL     1      -0.667  12.436  20.603  0.00  0.00    +0.000 C 
BRANCH  21  22
ATOM     22  C   UNL     1      -1.911  11.882  19.911  0.00  0.00    +0.000 C 
BRANCH  22  23
ATOM     23  N   UNL     1      -1.912  12.240  18.498  0.00  0.00    +0.000 N 
ATOM     24  C   UNL     1      -2.331  11.351  17.581  0.00  0.00    +0.000 A 
ATOM     25  N   UNL     1      -2.686  10.099  17.740  0.00  0.00    +0.000 NA
ATOM     26  C   UNL     1      -2.988   9.633  16.485  0.00  0.00    +0.000 A 
ATOM     27  C   UNL     1      -2.824  10.620  15.545  0.00  0.00    +0.000 A 
ATOM     28  N   UNL     1      -2.420  11.715  16.262  0.00  0.00    +0.000 N 
ATOM     29  H   UNL     1      -1.836  13.231  18.300  0.00  0.00    +0.000 HD
ATOM     30  H   UNL     1      -2.194  12.627  15.896  0.00  0.00    +0.000 HD
ENDBRANCH  22  23
ENDBRANCH  21  22
ENDBRANCH  20  21
ENDBRANCH   8  20
TORSDOF 9
ENDMDL
MODEL 4
REMARK VINA RESULT:      -7.2      1.225      1.312
REMARK  Name = 
REMARK  9 active torsions:
REMARK  status: ('A' for Active; 'I' for Inactive)
REMARK    1  A    between atoms: C_2  and  O_3
REMARK    2  A    between atoms: C_2  and  C_4
REMARK    3  A    between atoms: C_4  and  C_5
REMARK    4  A    between atoms: C_5  and  N_6
REMARK    5  A    between atoms: C_7  and  C_9
REMARK    6  A    between atoms: N_16  and  C_17
REMARK    7  A    between atoms: C_17  and  C_18
REMARK    8  A    between atoms: C_18  and  C_19
REMARK    9  A    between atoms: C_19  and  N_20
REMARK                            x       y       z     vdW  Elec       q    Type
REMARK                         _______ _______ _______ _____ _____    ______ ____
ROOT
ATOM      1  C   UNL     1       2.572   6.830  18.680  0.00  0.00    +0.000 A 
ATOM      2  C   UNL     1       2.457   7.936  17.828  0.00  0.00    +0.000 A 
ATOM      3  C   UNL     1       1.883   9.139  18.264  0.00  0.00    +0.000 A 
ATOM      4  C   UNL     1       1.436   9.202  19.594  0.00  0.00    +0.000 A 
ATOM      5  C   UNL     1       1.547   8.113  20.459  0.00  0.00    +0.000 A 
ATOM      6  C   UNL     1       0.996   8.559  21.676  0.00  0.00    +0.000 A 
ATOM      7  N   UNL     1       0.567   9.819  21.615  0.00  0.00    +0.000 NA
ATOM      8  N   UNL     1       0.847  10.194  20.348  0.00  0.00    +0.000 N 
ATOM      9  C   UNL     1       2.124   6.911  20.008  0.00  0.00    +0.000 A 
ENDROOT
BRANCH   1  11
ATOM     10  N   UNL     1       2.357   4.629  17.657  0.00  0.00    +0.000 N 
ATOM     11  C   UNL     1       3.208   5.585  18.168  0.00  0.00    +0.000 C 
ATOM     12  O   UNL     1       4.427   5.446  18.210  0.00  0.00    +0.000 OA
ATOM     13  H   UNL     1       1.368   4.826  17.561  0.00  0.00    +0.000 HD
BRANCH  10  14
ATOM     14  C   UNL     1       2.827   3.360  17.135  0.00  0.00    +0.000 C 
BRANCH  14  15
ATOM     15  C   UNL     1       2.518   2.187  18.058  0.00  0.00    +0.000 C 
BRANCH  15  17
ATOM     16  O   UNL     1       1.647   2.996  20.170  0.00  0.00    +0.000 OA
ATOM     17  C   UNL     1       1.442   2.536  19.057  0.00  0.00    +0.000 C 
BRANCH  17  18
ATOM     18  O   UNL     1       0.193   2.325  18.585  0.00  0.00    +0.000 OA
ATOM     19  H   UNL     1       0.016   1.404  18.312  0.00  0.00    +0.000 HD
ENDBRANCH  17  18
ENDBRANCH  15  17
ENDBRANCH  14  15
ENDBRANCH  10  14
ENDBRANCH   1  11
BRANCH   8  20
ATOM     20  C   UNL     1       0.482  11.537  19.931  0.00  0.00    +0.000 C 
BRANCH  20  21
ATOM     21  C   UNL     1      -0.384  11.592  18.671  0.00  0.00    +0.000 C 
BRANCH  21  22
ATOM     22  C   UNL     1      -1.879  11.630  18.980  0.00  0.00    +0.000 C 
BRANCH  22  23
ATOM     23  N   UNL     1      -2.632  12.062  17.810  0.00  0.00    +0.000 N 
ATOM     24  C   UNL     1      -2.842  11.208  16.793  0.00  0.00    +0.000 A 
ATOM     25  N   UNL     1      -2.381   9.992  16.623  0.00  0.00    +0.000 NA
ATOM     26  C   UNL     1      -2.861   9.577  15.406  0.00  0.00    +0.000 A 
ATOM     27  C   UNL     1      -3.635  10.553  14.828  0.00  0.00    +0.000 A 
ATOM     28  N   UNL     1      -3.627  11.581  15.733  0.00  0.00    +0.000 N 
ATOM     29  H   UNL     1      -3.179  12.907  17.931  0.00  0.00    +0.000 HD
ATOM     30  H   UNL     1      -4.086  12.473  15.638  0.00  0.00    +0.000 HD
ENDBRANCH  22  23
ENDBRANCH  21  22
ENDBRANCH  20  21
ENDBRANCH   8  20
TORSDOF 9
ENDMDL
MODEL 5
REMARK VINA RESULT:      -7.2      6.580      8.675
REMARK  Name = 
REMARK  9 active torsions:
REMARK  status: ('A' for Active; 'I' for Inactive)
REMARK    1  A    between atoms: C_2  and  O_3
REMARK    2  A    between atoms: C_2  and  C_4
REMARK    3  A    between atoms: C_4  and  C_5
REMARK    4  A    between atoms: C_5  and  N_6
REMARK    5  A    between atoms: C_7  and  C_9
REMARK    6  A    between atoms: N_16  and  C_17
REMARK    7  A    between atoms: C_17  and  C_18
REMARK    8  A    between atoms: C_18  and  C_19
REMARK    9  A    between atoms: C_19  and  N_20
REMARK                            x       y       z     vdW  Elec       q    Type
REMARK                         _______ _______ _______ _____ _____    ______ ____
ROOT
ATOM      1  C   UNL     1       4.571   3.805  18.337  0.00  0.00    +0.000 A 
ATOM      2  C   UNL     1       4.972   4.579  19.433  0.00  0.00    +0.000 A 
ATOM      3  C   UNL     1       5.954   5.573  19.306  0.00  0.00    +0.000 A 
ATOM      4  C   UNL     1       6.515   5.774  18.034  0.00  0.00    +0.000 A 
ATOM      5  C   UNL     1       6.124   5.017  16.930  0.00  0.00    +0.000 A 
ATOM      6  C   UNL     1       6.901   5.505  15.862  0.00  0.00    +0.000 A 
ATOM      7  N   UNL     1       7.721   6.489  16.231  0.00  0.00    +0.000 NA
ATOM      8  N   UNL     1       7.469   6.642  17.549  0.00  0.00    +0.000 N 
ATOM      9  C   UNL     1       5.138   4.022  17.073  0.00  0.00    +0.000 A 
ENDROOT
BRANCH   1  11
ATOM     10  N   UNL     1       2.207   3.222  18.444  0.00  0.00    +0.000 N 
ATOM     11  C   UNL     1       3.509   2.778  18.528  0.00  0.00    +0.000 C 
ATOM     12  O   UNL     1       3.807   1.607  18.746  0.00  0.00    +0.000 OA
ATOM     13  H   UNL     1       2.012   4.179  18.172  0.00  0.00    +0.000 HD
BRANCH  10  14
ATOM     14  C   UNL     1       1.066   2.343  18.621  0.00  0.00    +0.000 C 
BRANCH  14  15
ATOM     15  C   UNL     1       0.409   2.493  19.988  0.00  0.00    +0.000 C 
BRANCH  15  17
ATOM     16  O   UNL     1       1.213   4.622  20.819  0.00  0.00    +0.000 OA
ATOM     17  C   UNL     1       1.206   3.403  20.890  0.00  0.00    +0.000 C 
BRANCH  17  18
ATOM     18  O   UNL     1       1.901   2.734  21.837  0.00  0.00    +0.000 OA
ATOM     19  H   UNL     1       2.637   2.194  21.489  0.00  0.00    +0.000 HD
ENDBRANCH  17  18
ENDBRANCH  15  17
ENDBRANCH  14  15
ENDBRANCH  10  14
ENDBRANCH   1  11
BRANCH   8  20
ATOM     20  C   UNL     1       8.225   7.644  18.281  0.00  0.00    +0.000 C 
BRANCH  20  21
ATOM     21  C   UNL     1       8.047   9.071  17.760  0.00  0.00    +0.000 C 
BRANCH  21  22
ATOM     22  C   UNL     1       8.744  10.113  18.634  0.00  0.00    +0.000 C 
BRANCH  22  23
ATOM     23  N   UNL     1      10.103  10.347  18.164  0.00  0.00    +0.000 N 
ATOM     24  C   UNL     1      10.495  11.591  17.839  0.00  0.00    +0.000 A 
ATOM     25  N   UNL     1       9.792  12.697  17.788  0.00  0.00    +0.000 NA
ATOM     26  C   UNL     1      10.659  13.673  17.364  0.00  0.00    +0.000 A 
ATOM     27  C   UNL     1      11.915  13.156  17.161  0.00  0.00    +0.000 A 
ATOM     28  N   UNL     1      11.799  11.830  17.484  0.00  0.00    +0.000 N 
ATOM     29  H   UNL     1      10.763   9.600  18.347  0.00  0.00    +0.000 HD
ATOM     30  H   UNL     1      12.525  11.132  17.444  0.00  0.00    +0.000 HD
ENDBRANCH  22  23
ENDBRANCH  21  22
ENDBRANCH  20  21
ENDBRANCH   8  20
TORSDOF 9
ENDMDL
MODEL 6
REMARK VINA RESULT:      -7.1      1.445      1.741
REMARK  Name = 
REMARK  9 active torsions:
REMARK  status: ('A' for Active; 'I' for Inactive)
REMARK    1  A    between atoms: C_2  and  O_3
REMARK    2  A    between atoms: C_2  and  C_4
REMARK    3  A    between atoms: C_4  and  C_5
REMARK    4  A    between atoms: C_5  and  N_6
REMARK    5  A    between atoms: C_7  and  C_9
REMARK    6  A    between atoms: N_16  and  C_17
REMARK    7  A    between atoms: C_17  and  C_18
REMARK    8  A    between atoms: C_18  and  C_19
REMARK    9  A    between atoms: C_19  and  N_20
REMARK                            x       y       z     vdW  Elec       q    Type
REMARK                         _______ _______ _______ _____ _____    ______ ____
ROOT
ATOM      1  C   UNL     1       2.356   7.264  18.621  0.00  0.00    +0.000 A 
ATOM      2  C   UNL     1       2.019   8.420  17.905  0.00  0.00    +0.000 A 
ATOM      3  C   UNL     1       1.462   9.538  18.542  0.00  0.00    +0.000 A 
ATOM      4  C   UNL     1       1.264   9.464  19.931  0.00  0.00    +0.000 A 
ATOM      5  C   UNL     1       1.597   8.323  20.661  0.00  0.00    +0.000 A 
ATOM      6  C   UNL     1       1.252   8.631  21.991  0.00  0.00    +0.000 A 
ATOM      7  N   UNL     1       0.743   9.855  22.120  0.00  0.00    +0.000 NA
ATOM      8  N   UNL     1       0.763  10.348  20.862  0.00  0.00    +0.000 N 
ATOM      9  C   UNL     1       2.155   7.208  20.008  0.00  0.00    +0.000 A 
ENDROOT
BRANCH   1  11
ATOM     10  N   UNL     1       2.368   4.886  18.087  0.00  0.00    +0.000 N 
ATOM     11  C   UNL     1       2.963   6.114  17.894  0.00  0.00    +0.000 C 
ATOM     12  O   UNL     1       3.938   6.282  17.168  0.00  0.00    +0.000 OA
ATOM     13  H   UNL     1       1.511   4.813  18.623  0.00  0.00    +0.000 HD
BRANCH  10  14
ATOM     14  C   UNL     1       2.854   3.672  17.459  0.00  0.00    +0.000 C 
BRANCH  14  15
ATOM     15  C   UNL     1       4.158   3.170  18.068  0.00  0.00    +0.000 C 
BRANCH  15  17
ATOM     16  O   UNL     1       2.859   2.514  20.005  0.00  0.00    +0.000 OA
ATOM     17  C   UNL     1       3.937   2.566  19.433  0.00  0.00    +0.000 C 
BRANCH  17  18
ATOM     18  O   UNL     1       5.061   2.038  19.968  0.00  0.00    +0.000 OA
ATOM     19  H   UNL     1       5.148   2.171  20.931  0.00  0.00    +0.000 HD
ENDBRANCH  17  18
ENDBRANCH  15  17
ENDBRANCH  14  15
ENDBRANCH  10  14
ENDBRANCH   1  11
BRANCH   8  20
ATOM     20  C   UNL     1       0.246  11.687  20.639  0.00  0.00    +0.000 C 
BRANCH  20  21
ATOM     21  C   UNL     1      -1.225  11.732  20.219  0.00  0.00    +0.000 C 
BRANCH  21  22
ATOM     22  C   UNL     1      -1.484  12.708  19.073  0.00  0.00    +0.000 C 
BRANCH  22  23
ATOM     23  N   UNL     1      -1.333  12.039  17.787  0.00  0.00    +0.000 N 
ATOM     24  C   UNL     1      -2.419  11.611  17.121  0.00  0.00    +0.000 A 
ATOM     25  N   UNL     1      -3.677  11.617  17.494  0.00  0.00    +0.000 NA
ATOM     26  C   UNL     1      -4.374  11.034  16.465  0.00  0.00    +0.000 A 
ATOM     27  C   UNL     1      -3.530  10.675  15.444  0.00  0.00    +0.000 A 
ATOM     28  N   UNL     1      -2.288  11.064  15.870  0.00  0.00    +0.000 N 
ATOM     29  H   UNL     1      -0.431  12.156  17.338  0.00  0.00    +0.000 HD
ATOM     30  H   UNL     1      -1.416  10.949  15.378  0.00  0.00    +0.000 HD
ENDBRANCH  22  23
ENDBRANCH  21  22
ENDBRANCH  20  21
ENDBRANCH   8  20
TORSDOF 9
ENDMDL
MODEL 7
REMARK VINA RESULT:      -7.1      0.900      1.030
REMARK  Name = 
REMARK  9 active torsions:
REMARK  status: ('A' for Active; 'I' for Inactive)
REMARK    1  A    between atoms: C_2  and  O_3
REMARK    2  A    between atoms: C_2  and  C_4
REMARK    3  A    between atoms: C_4  and  C_5
REMARK    4  A    between atoms: C_5  and  N_6
REMARK    5  A    between atoms: C_7  and  C_9
REMARK    6  A    between atoms: N_16  and  C_17
REMARK    7  A    between atoms: C_17  and  C_18
REMARK    8  A    between atoms: C_18  and  C_19
REMARK    9  A    between atoms: C_19  and  N_20
REMARK                            x       y       z     vdW  Elec       q    Type
REMARK                         _______ _______ _______ _____ _____    ______ ____
ROOT
ATOM      1  C   UNL     1       2.071   7.291  19.416  0.00  0.00    +0.000 A 
ATOM      2  C   UNL     1       1.879   8.329  18.495  0.00  0.00    +0.000 A 
ATOM      3  C   UNL     1       1.332   9.561  18.885  0.00  0.00    +0.000 A 
ATOM      4  C   UNL     1       0.993   9.723  20.239  0.00  0.00    +0.000 A 
ATOM      5  C   UNL     1       1.182   8.702  21.171  0.00  0.00    +0.000 A 
ATOM      6  C   UNL     1       0.728   9.238  22.392  0.00  0.00    +0.000 A 
ATOM      7  N   UNL     1       0.285  10.489  22.271  0.00  0.00    +0.000 NA
ATOM      8  N   UNL     1       0.459  10.768  20.961  0.00  0.00    +0.000 N 
ATOM      9  C   UNL     1       1.731   7.471  20.765  0.00  0.00    +0.000 A 
ENDROOT
BRANCH   1  11
ATOM     10  N   UNL     1       2.716   4.985  19.866  0.00  0.00    +0.000 N 
ATOM     11  C   UNL     1       2.674   6.013  18.948  0.00  0.00    +0.000 C 
ATOM     12  O   UNL     1       3.103   5.909  17.803  0.00  0.00    +0.000 OA
ATOM     13  H   UNL     1       2.269   5.090  20.769  0.00  0.00    +0.000 HD
BRANCH  10  14
ATOM     14  C   UNL     1       3.286   3.686  19.562  0.00  0.00    +0.000 C 
BRANCH  14  15
ATOM     15  C   UNL     1       3.009   2.648  20.644  0.00  0.00    +0.000 C 
BRANCH  15  17
ATOM     16  O   UNL     1       1.319   2.696  22.380  0.00  0.00    +0.000 OA
ATOM     17  C   UNL     1       1.611   2.784  21.197  0.00  0.00    +0.000 C 
BRANCH  17  18
ATOM     18  O   UNL     1       0.689   3.058  20.247  0.00  0.00    +0.000 OA
ATOM     19  H   UNL     1      -0.100   3.528  20.577  0.00  0.00    +0.000 HD
ENDBRANCH  17  18
ENDBRANCH  15  17
ENDBRANCH  14  15
ENDBRANCH  10  14
ENDBRANCH   1  11
BRANCH   8  20
ATOM     20  C   UNL     1       0.051  12.075  20.476  0.00  0.00    +0.000 C 
BRANCH  20  21
ATOM     21  C   UNL     1      -1.324  12.528  20.972  0.00  0.00    +0.000 C 
BRANCH  21  22
ATOM     22  C   UNL     1      -2.415  12.381  19.912  0.00  0.00    +0.000 C 
BRANCH  22  23
ATOM     23  N   UNL     1      -1.832  12.031  18.624  0.00  0.00    +0.000 N 
ATOM     24  C   UNL     1      -2.625  11.638  17.612  0.00  0.00    +0.000 A 
ATOM     25  N   UNL     1      -3.918  11.418  17.609  0.00  0.00    +0.000 NA
ATOM     26  C   UNL     1      -4.223  10.999  16.338  0.00  0.00    +0.000 A 
ATOM     27  C   UNL     1      -3.099  10.970  15.551  0.00  0.00    +0.000 A 
ATOM     28  N   UNL     1      -2.090  11.397  16.373  0.00  0.00    +0.000 N 
ATOM     29  H   UNL     1      -0.879  12.346  18.476  0.00  0.00    +0.000 HD
ATOM     30  H   UNL     1      -1.116  11.492  16.134  0.00  0.00    +0.000 HD
ENDBRANCH  22  23
ENDBRANCH  21  22
ENDBRANCH  20  21
ENDBRANCH   8  20
TORSDOF 9
ENDMDL
MODEL 8
REMARK VINA RESULT:      -7.0      2.885      3.586
REMARK  Name = 
REMARK  9 active torsions:
REMARK  status: ('A' for Active; 'I' for Inactive)
REMARK    1  A    between atoms: C_2  and  O_3
REMARK    2  A    between atoms: C_2  and  C_4
REMARK    3  A    between atoms: C_4  and  C_5
REMARK    4  A    between atoms: C_5  and  N_6
REMARK    5  A    between atoms: C_7  and  C_9
REMARK    6  A    between atoms: N_16  and  C_17
REMARK    7  A    between atoms: C_17  and  C_18
REMARK    8  A    between atoms: C_18  and  C_19
REMARK    9  A    between atoms: C_19  and  N_20
REMARK                            x       y       z     vdW  Elec       q    Type
REMARK                         _______ _______ _______ _____ _____    ______ ____
ROOT
ATOM      1  C   UNL     1       3.037   7.012  18.303  0.00  0.00    +0.000 A 
ATOM      2  C   UNL     1       2.708   8.089  17.470  0.00  0.00    +0.000 A 
ATOM      3  C   UNL     1       1.853   9.113  17.903  0.00  0.00    +0.000 A 
ATOM      4  C   UNL     1       1.346   9.029  19.210  0.00  0.00    +0.000 A 
ATOM      5  C   UNL     1       1.667   7.967  20.056  0.00  0.00    +0.000 A 
ATOM      6  C   UNL     1       0.976   8.235  21.253  0.00  0.00    +0.000 A 
ATOM      7  N   UNL     1       0.271   9.364  21.197  0.00  0.00    +0.000 NA
ATOM      8  N   UNL     1       0.512   9.835  19.955  0.00  0.00    +0.000 N 
ATOM      9  C   UNL     1       2.525   6.945  19.608  0.00  0.00    +0.000 A 
ENDROOT
BRANCH   1  11
ATOM     10  N   UNL     1       5.280   6.341  17.626  0.00  0.00    +0.000 N 
ATOM     11  C   UNL     1       3.965   5.964  17.796  0.00  0.00    +0.000 C 
ATOM     12  O   UNL     1       3.554   4.833  17.552  0.00  0.00    +0.000 OA
ATOM     13  H   UNL     1       5.589   7.258  17.927  0.00  0.00    +0.000 HD
BRANCH  10  14
ATOM     14  C   UNL     1       6.298   5.436  17.128  0.00  0.00    +0.000 C 
BRANCH  14  15
ATOM     15  C   UNL     1       7.130   4.808  18.240  0.00  0.00    +0.000 C 
BRANCH  15  17
ATOM     16  O   UNL     1       8.156   6.960  18.678  0.00  0.00    +0.000 OA
ATOM     17  C   UNL     1       7.814   5.859  19.081  0.00  0.00    +0.000 C 
BRANCH  17  18
ATOM     18  O   UNL     1       7.986   5.479  20.367  0.00  0.00    +0.000 OA
ATOM     19  H   UNL     1       7.971   4.512  20.505  0.00  0.00    +0.000 HD
ENDBRANCH  17  18
ENDBRANCH  15  17
ENDBRANCH  14  15
ENDBRANCH  10  14
ENDBRANCH   1  11
BRANCH   8  20
ATOM     20  C   UNL     1      -0.135  11.071  19.550  0.00  0.00    +0.000 C 
BRANCH  20  21
ATOM     21  C   UNL     1      -1.356  10.876  18.648  0.00  0.00    +0.000 C 
BRANCH  21  22
ATOM     22  C   UNL     1      -2.354  12.029  18.744  0.00  0.00    +0.000 C 
BRANCH  22  23
ATOM     23  N   UNL     1      -3.395  11.890  17.734  0.00  0.00    +0.000 N 
ATOM     24  C   UNL     1      -4.689  11.915  18.096  0.00  0.00    +0.000 A 
ATOM     25  N   UNL     1      -5.214  11.963  19.296  0.00  0.00    +0.000 NA
ATOM     26  C   UNL     1      -6.574  11.929  19.111  0.00  0.00    +0.000 A 
ATOM     27  C   UNL     1      -6.884  11.868  17.775  0.00  0.00    +0.000 A 
ATOM     28  N   UNL     1      -5.671  11.877  17.139  0.00  0.00    +0.000 N 
ATOM     29  H   UNL     1      -3.095  12.035  16.776  0.00  0.00    +0.000 HD
ATOM     30  H   UNL     1      -5.510  11.832  16.145  0.00  0.00    +0.000 HD
ENDBRANCH  22  23
ENDBRANCH  21  22
ENDBRANCH  20  21
ENDBRANCH   8  20
TORSDOF 9
ENDMDL
MODEL 9
REMARK VINA RESULT:      -6.9      2.966      3.919
REMARK  Name = 
REMARK  9 active torsions:
REMARK  status: ('A' for Active; 'I' for Inactive)
REMARK    1  A    between atoms: C_2  and  O_3
REMARK    2  A    between atoms: C_2  and  C_4
REMARK    3  A    between atoms: C_4  and  C_5
REMARK    4  A    between atoms: C_5  and  N_6
REMARK    5  A    between atoms: C_7  and  C_9
REMARK    6  A    between atoms: N_16  and  C_17
REMARK    7  A    between atoms: C_17  and  C_18
REMARK    8  A    between atoms: C_18  and  C_19
REMARK    9  A    between atoms: C_19  and  N_20
REMARK                            x       y       z     vdW  Elec       q    Type
REMARK                         _______ _______ _______ _____ _____    ______ ____
ROOT
ATOM      1  C   UNL     1       3.468   6.778  18.424  0.00  0.00    +0.000 A 
ATOM      2  C   UNL     1       3.203   7.835  17.543  0.00  0.00    +0.000 A 
ATOM      3  C   UNL     1       2.279   8.840  17.865  0.00  0.00    +0.000 A 
ATOM      4  C   UNL     1       1.634   8.757  19.110  0.00  0.00    +0.000 A 
ATOM      5  C   UNL     1       1.889   7.715  20.001  0.00  0.00    +0.000 A 
ATOM      6  C   UNL     1       1.063   7.978  21.112  0.00  0.00    +0.000 A 
ATOM      7  N   UNL     1       0.339   9.087  20.962  0.00  0.00    +0.000 NA
ATOM      8  N   UNL     1       0.702   9.548  19.746  0.00  0.00    +0.000 N 
ATOM      9  C   UNL     1       2.818   6.713  19.666  0.00  0.00    +0.000 A 
ENDROOT
BRANCH   1  11
ATOM     10  N   UNL     1       4.126   4.913  17.000  0.00  0.00    +0.000 N 
ATOM     11  C   UNL     1       4.474   5.750  18.038  0.00  0.00    +0.000 C 
ATOM     12  O   UNL     1       5.548   5.677  18.629  0.00  0.00    +0.000 OA
ATOM     13  H   UNL     1       3.268   5.071  16.484  0.00  0.00    +0.000 HD
BRANCH  10  14
ATOM     14  C   UNL     1       4.995   3.855  16.520  0.00  0.00    +0.000 C 
BRANCH  14  15
ATOM     15  C   UNL     1       5.723   4.224  15.233  0.00  0.00    +0.000 C 
BRANCH  15  17
ATOM     16  O   UNL     1       7.764   4.446  16.521  0.00  0.00    +0.000 OA
ATOM     17  C   UNL     1       7.131   4.695  15.507  0.00  0.00    +0.000 C 
BRANCH  17  18
ATOM     18  O   UNL     1       7.660   5.405  14.485  0.00  0.00    +0.000 OA
ATOM     19  H   UNL     1       7.026   6.000  14.038  0.00  0.00    +0.000 HD
ENDBRANCH  17  18
ENDBRANCH  15  17
ENDBRANCH  14  15
ENDBRANCH  10  14
ENDBRANCH   1  11
BRANCH   8  20
ATOM     20  C   UNL     1       0.071  10.760  19.253  0.00  0.00    +0.000 C 
BRANCH  20  21
ATOM     21  C   UNL     1      -1.067  10.518  18.259  0.00  0.00    +0.000 C 
BRANCH  21  22
ATOM     22  C   UNL     1      -2.007  11.715  18.130  0.00  0.00    +0.000 C 
BRANCH  22  23
ATOM     23  N   UNL     1      -3.217  11.341  17.409  0.00  0.00    +0.000 N 
ATOM     24  C   UNL     1      -4.423  11.619  17.932  0.00  0.00    +0.000 A 
ATOM     25  N   UNL     1      -4.723  12.131  19.101  0.00  0.00    +0.000 NA
ATOM     26  C   UNL     1      -6.094  12.171  19.152  0.00  0.00    +0.000 A 
ATOM     27  C   UNL     1      -6.640  11.684  17.990  0.00  0.00    +0.000 A 
ATOM     28  N   UNL     1      -5.562  11.351  17.215  0.00  0.00    +0.000 N 
ATOM     29  H   UNL     1      -3.088  11.116  16.429  0.00  0.00    +0.000 HD
ATOM     30  H   UNL     1      -5.582  10.950  16.290  0.00  0.00    +0.000 HD
ENDBRANCH  22  23
ENDBRANCH  21  22
ENDBRANCH  20  21
ENDBRANCH   8  20
TORSDOF 9
ENDMDL
