MODEL 1
REMARK VINA RESULT:      -7.7      0.000      0.000
REMARK  Name = 
REMARK  12 active torsions:
REMARK  status: ('A' for Active; 'I' for Inactive)
REMARK    1  A    between atoms: C_1  and  C_2
REMARK    2  A    between atoms: C_4  and  O_5
REMARK    3  A    between atoms: C_7  and  O_8
REMARK    4  A    between atoms: C_9  and  C_10
REMARK    5  A    between atoms: C_10  and  O_12
REMARK    6  A    between atoms: O_12  and  C_13
REMARK    7  A    between atoms: C_17  and  C_18
REMARK    8  A    between atoms: C_18  and  C_19
REMARK    9  A    between atoms: C_19  and  C_20
REMARK   10  A    between atoms: C_19  and  O_21
REMARK   11  A    between atoms: C_27  and  C_28
REMARK   12  A    between atoms: C_27  and  O_29
REMARK                            x       y       z     vdW  Elec       q    Type
REMARK                         _______ _______ _______ _____ _____    ______ ____
ROOT
ATOM      1  C   UNL     1       3.397   4.462  19.957  0.00  0.00    +0.000 C 
ATOM      2  C   UNL     1       3.177   5.860  19.313  0.00  0.00    +0.000 C 
ATOM      3  C   UNL     1       2.508   6.845  20.289  0.00  0.00    +0.000 C 
ATOM      4  O   UNL     1       2.293   8.144  19.716  0.00  0.00    +0.000 OA
ATOM      5  C   UNL     1       1.793   8.152  18.426  0.00  0.00    +0.000 C 
ATOM      6  C   UNL     1       1.847   7.087  17.596  0.00  0.00    +0.000 C 
ATOM      7  C   UNL     1       2.346   5.806  18.038  0.00  0.00    +0.000 C 
ATOM      8  C   UNL     1       1.946   4.665  17.438  0.00  0.00    +0.000 C 
ATOM      9  C   UNL     1       2.057   3.398  18.201  0.00  0.00    +0.000 C 
ATOM     10  O   UNL     1       1.980   2.312  17.625  0.00  0.00    +0.000 OA
ATOM     11  C   UNL     1       2.171   3.540  19.730  0.00  0.00    +0.000 C 
ATOM     12  C   UNL     1       0.806   4.038  20.247  0.00  0.00    +0.000 C 
ENDROOT
BRANCH  11  13
ATOM     13  O   UNL     1       2.380   2.311  20.429  0.00  0.00    +0.000 OA
ATOM     14  H   UNL     1       2.331   1.605  19.754  0.00  0.00    +0.000 HD
ENDBRANCH  11  13
BRANCH   1  15
ATOM     15  O   UNL     1       4.569   3.764  19.368  0.00  0.00    +0.000 OA
BRANCH  15  16
ATOM     16  C   UNL     1       5.685   4.512  19.131  0.00  0.00    +0.000 C 
ATOM     17  O   UNL     1       6.286   5.079  20.030  0.00  0.00    +0.000 OA
BRANCH  16  24
ATOM     18  C   UNL     1       7.658   6.586  18.282  0.00  0.00    +0.000 C 
ATOM     19  C   UNL     1       7.013   5.650  17.292  0.00  0.00    +0.000 A 
ATOM     20  C   UNL     1       7.310   5.864  15.927  0.00  0.00    +0.000 A 
ATOM     21  C   UNL     1       6.795   5.019  14.959  0.00  0.00    +0.000 A 
ATOM     22  C   UNL     1       6.008   3.934  15.325  0.00  0.00    +0.000 A 
ATOM     23  C   UNL     1       5.674   3.728  16.676  0.00  0.00    +0.000 A 
ATOM     24  C   UNL     1       6.143   4.591  17.687  0.00  0.00    +0.000 A 
BRANCH  21  25
ATOM     25  O   UNL     1       7.032   5.227  13.634  0.00  0.00    +0.000 OA
ATOM     26  H   UNL     1       6.338   4.788  13.111  0.00  0.00    +0.000 HD
ENDBRANCH  21  25
BRANCH  23  27
ATOM     27  O   UNL     1       4.849   2.678  16.973  0.00  0.00    +0.000 OA
ATOM     28  H   UNL     1       4.232   2.942  17.678  0.00  0.00    +0.000 HD
ENDBRANCH  23  27
ENDBRANCH  16  24
ENDBRANCH  15  16
ENDBRANCH   1  15
BRANCH   5  29
ATOM     29  C   UNL     1       1.066   9.421  18.053  0.00  0.00    +0.000 C 
BRANCH  29  30
ATOM     30  C   UNL     1       0.704  10.356  19.213  0.00  0.00    +0.000 C 
ATOM     31  C   UNL     1      -0.029  11.613  18.766  0.00  0.00    +0.000 C 
BRANCH  30  32
ATOM     32  O   UNL     1      -0.137   9.646  20.131  0.00  0.00    +0.000 OA
ATOM     33  H   UNL     1      -0.778   9.129  19.613  0.00  0.00    +0.000 HD
ENDBRANCH  30  32
ENDBRANCH  29  30
ENDBRANCH   5  29
TORSDOF 9
ENDMDL
MODEL 2
REMARK VINA RESULT:      -7.2      1.989      7.158
REMARK  Name = 
REMARK  12 active torsions:
REMARK  status: ('A' for Active; 'I' for Inactive)
REMARK    1  A    between atoms: C_1  and  C_2
REMARK    2  A    between atoms: C_4  and  O_5
REMARK    3  A    between atoms: C_7  and  O_8
REMARK    4  A    between atoms: C_9  and  C_10
REMARK    5  A    between atoms: C_10  and  O_12
REMARK    6  A    between atoms: O_12  and  C_13
REMARK    7  A    between atoms: C_17  and  C_18
REMARK    8  A    between atoms: C_18  and  C_19
REMARK    9  A    between atoms: C_19  and  C_20
REMARK   10  A    between atoms: C_19  and  O_21
REMARK   11  A    between atoms: C_27  and  C_28
REMARK   12  A    between atoms: C_27  and  O_29
REMARK                            x       y       z     vdW  Elec       q    Type
REMARK                         _______ _______ _______ _____ _____    ______ ____
ROOT
ATOM      1  C   UNL     1       5.729   5.014  18.356  0.00  0.00    +0.000 C 
ATOM      2  C   UNL     1       5.492   4.838  16.830  0.00  0.00    +0.000 C 
ATOM      3  C   UNL     1       5.710   3.383  16.377  0.00  0.00    +0.000 C 
ATOM      4  O   UNL     1       5.498   3.195  14.969  0.00  0.00    +0.000 OA
ATOM      5  C   UNL     1       6.048   4.163  14.148  0.00  0.00    +0.000 C 
ATOM      6  C   UNL     1       6.424   5.387  14.581  0.00  0.00    +0.000 C 
ATOM      7  C   UNL     1       6.373   5.744  15.979  0.00  0.00    +0.000 C 
ATOM      8  C   UNL     1       7.184   6.701  16.478  0.00  0.00    +0.000 C 
ATOM      9  C   UNL     1       7.469   6.689  17.933  0.00  0.00    +0.000 C 
ATOM     10  O   UNL     1       7.957   7.676  18.483  0.00  0.00    +0.000 OA
ATOM     11  C   UNL     1       7.211   5.355  18.659  0.00  0.00    +0.000 C 
ATOM     12  C   UNL     1       8.280   4.354  18.173  0.00  0.00    +0.000 C 
ENDROOT
BRANCH  11  13
ATOM     13  O   UNL     1       7.396   5.401  20.075  0.00  0.00    +0.000 OA
ATOM     14  H   UNL     1       6.547   5.712  20.447  0.00  0.00    +0.000 HD
ENDBRANCH  11  13
BRANCH   1  15
ATOM     15  O   UNL     1       4.914   6.125  18.914  0.00  0.00    +0.000 OA
BRANCH  15  16
ATOM     16  C   UNL     1       3.594   5.874  19.146  0.00  0.00    +0.000 C 
ATOM     17  O   UNL     1       3.178   4.745  19.354  0.00  0.00    +0.000 OA
BRANCH  16  24
ATOM     18  C   UNL     1       3.418   7.634  16.741  0.00  0.00    +0.000 C 
ATOM     19  C   UNL     1       2.681   7.955  18.016  0.00  0.00    +0.000 A 
ATOM     20  C   UNL     1       1.980   9.182  18.056  0.00  0.00    +0.000 A 
ATOM     21  C   UNL     1       1.240   9.528  19.173  0.00  0.00    +0.000 A 
ATOM     22  C   UNL     1       1.154   8.658  20.252  0.00  0.00    +0.000 A 
ATOM     23  C   UNL     1       1.874   7.449  20.243  0.00  0.00    +0.000 A 
ATOM     24  C   UNL     1       2.673   7.080  19.143  0.00  0.00    +0.000 A 
BRANCH  21  25
ATOM     25  O   UNL     1       0.590  10.722  19.253  0.00  0.00    +0.000 OA
ATOM     26  H   UNL     1       0.110  10.882  18.421  0.00  0.00    +0.000 HD
ENDBRANCH  21  25
BRANCH  23  27
ATOM     27  O   UNL     1       1.799   6.656  21.356  0.00  0.00    +0.000 OA
ATOM     28  H   UNL     1       1.982   5.733  21.108  0.00  0.00    +0.000 HD
ENDBRANCH  23  27
ENDBRANCH  16  24
ENDBRANCH  15  16
ENDBRANCH   1  15
BRANCH   5  29
ATOM     29  C   UNL     1       6.313   3.698  12.737  0.00  0.00    +0.000 C 
BRANCH  29  30
ATOM     30  C   UNL     1       5.333   2.662  12.173  0.00  0.00    +0.000 C 
ATOM     31  C   UNL     1       4.284   3.265  11.251  0.00  0.00    +0.000 C 
BRANCH  30  32
ATOM     32  O   UNL     1       6.075   1.683  11.435  0.00  0.00    +0.000 OA
ATOM     33  H   UNL     1       6.614   1.175  12.066  0.00  0.00    +0.000 HD
ENDBRANCH  30  32
ENDBRANCH  29  30
ENDBRANCH   5  29
TORSDOF 9
ENDMDL
MODEL 3
REMARK VINA RESULT:      -7.2      2.222      7.136
REMARK  Name = 
REMARK  12 active torsions:
REMARK  status: ('A' for Active; 'I' for Inactive)
REMARK    1  A    between atoms: C_1  and  C_2
REMARK    2  A    between atoms: C_4  and  O_5
REMARK    3  A    between atoms: C_7  and  O_8
REMARK    4  A    between atoms: C_9  and  C_10
REMARK    5  A    between atoms: C_10  and  O_12
REMARK    6  A    between atoms: O_12  and  C_13
REMARK    7  A    between atoms: C_17  and  C_18
REMARK    8  A    between atoms: C_18  and  C_19
REMARK    9  A    between atoms: C_19  and  C_20
REMARK   10  A    between atoms: C_19  and  O_21
REMARK   11  A    between atoms: C_27  and  C_28
REMARK   12  A    between atoms: C_27  and  O_29
REMARK                            x       y       z     vdW  Elec       q    Type
REMARK                         _______ _______ _______ _____ _____    ______ ____
ROOT
ATOM      1  C   UNL     1       5.617   5.224  18.049  0.00  0.00    +0.000 C 
ATOM      2  C   UNL     1       5.506   4.987  16.516  0.00  0.00    +0.000 C 
ATOM      3  C   UNL     1       5.670   3.501  16.150  0.00  0.00    +0.000 C 
ATOM      4  O   UNL     1       5.572   3.256  14.738  0.00  0.00    +0.000 OA
ATOM      5  C   UNL     1       6.254   4.148  13.929  0.00  0.00    +0.000 C 
ATOM      6  C   UNL     1       6.667   5.367  14.341  0.00  0.00    +0.000 C 
ATOM      7  C   UNL     1       6.515   5.796  15.711  0.00  0.00    +0.000 C 
ATOM      8  C   UNL     1       7.338   6.726  16.239  0.00  0.00    +0.000 C 
ATOM      9  C   UNL     1       7.492   6.769  17.713  0.00  0.00    +0.000 C 
ATOM     10  O   UNL     1       7.991   7.752  18.263  0.00  0.00    +0.000 OA
ATOM     11  C   UNL     1       7.086   5.490  18.471  0.00  0.00    +0.000 C 
ATOM     12  C   UNL     1       8.127   4.405  18.129  0.00  0.00    +0.000 C 
ENDROOT
BRANCH  11  13
ATOM     13  O   UNL     1       7.147   5.595  19.895  0.00  0.00    +0.000 OA
ATOM     14  H   UNL     1       7.235   6.549  20.091  0.00  0.00    +0.000 HD
ENDBRANCH  11  13
BRANCH   1  15
ATOM     15  O   UNL     1       4.829   6.408  18.480  0.00  0.00    +0.000 OA
BRANCH  15  16
ATOM     16  C   UNL     1       3.523   6.460  18.093  0.00  0.00    +0.000 C 
ATOM     17  O   UNL     1       3.133   7.237  17.236  0.00  0.00    +0.000 OA
BRANCH  16  24
ATOM     18  C   UNL     1       2.263   7.170  20.706  0.00  0.00    +0.000 C 
ATOM     19  C   UNL     1       2.070   5.815  20.072  0.00  0.00    +0.000 A 
ATOM     20  C   UNL     1       1.347   4.859  20.821  0.00  0.00    +0.000 A 
ATOM     21  C   UNL     1       1.086   3.607  20.290  0.00  0.00    +0.000 A 
ATOM     22  C   UNL     1       1.507   3.292  19.004  0.00  0.00    +0.000 A 
ATOM     23  C   UNL     1       2.259   4.219  18.260  0.00  0.00    +0.000 A 
ATOM     24  C   UNL     1       2.582   5.488  18.782  0.00  0.00    +0.000 A 
BRANCH  21  25
ATOM     25  O   UNL     1       0.427   2.655  21.006  0.00  0.00    +0.000 OA
ATOM     26  H   UNL     1       0.900   1.807  20.924  0.00  0.00    +0.000 HD
ENDBRANCH  21  25
BRANCH  23  27
ATOM     27  O   UNL     1       2.697   3.834  17.022  0.00  0.00    +0.000 OA
ATOM     28  H   UNL     1       2.150   3.096  16.702  0.00  0.00    +0.000 HD
ENDBRANCH  23  27
ENDBRANCH  16  24
ENDBRANCH  15  16
ENDBRANCH   1  15
BRANCH   5  29
ATOM     29  C   UNL     1       6.611   3.599  12.570  0.00  0.00    +0.000 C 
BRANCH  29  30
ATOM     30  C   UNL     1       5.692   2.501  12.022  0.00  0.00    +0.000 C 
ATOM     31  C   UNL     1       4.521   3.044  11.215  0.00  0.00    +0.000 C 
BRANCH  30  32
ATOM     32  O   UNL     1       6.462   1.637  11.177  0.00  0.00    +0.000 OA
ATOM     33  H   UNL     1       7.311   1.462  11.619  0.00  0.00    +0.000 HD
ENDBRANCH  30  32
ENDBRANCH  29  30
ENDBRANCH   5  29
TORSDOF 9
ENDMDL
MODEL 4
REMARK VINA RESULT:      -6.8      7.739      9.882
REMARK  Name = 
REMARK  12 active torsions:
REMARK  status: ('A' for Active; 'I' for Inactive)
REMARK    1  A    between atoms: C_1  and  C_2
REMARK    2  A    between atoms: C_4  and  O_5
REMARK    3  A    between atoms: C_7  and  O_8
REMARK    4  A    between atoms: C_9  and  C_10
REMARK    5  A    between atoms: C_10  and  O_12
REMARK    6  A    between atoms: O_12  and  C_13
REMARK    7  A    between atoms: C_17  and  C_18
REMARK    8  A    between atoms: C_18  and  C_19
REMARK    9  A    between atoms: C_19  and  C_20
REMARK   10  A    between atoms: C_19  and  O_21
REMARK   11  A    between atoms: C_27  and  C_28
REMARK   12  A    between atoms: C_27  and  O_29
REMARK                            x       y       z     vdW  Elec       q    Type
REMARK                         _______ _______ _______ _____ _____    ______ ____
ROOT
ATOM      1  C   UNL     1      -0.232  13.198  21.047  0.00  0.00    +0.000 C 
ATOM      2  C   UNL     1      -0.365  12.397  19.722  0.00  0.00    +0.000 C 
ATOM      3  C   UNL     1      -1.538  12.899  18.861  0.00  0.00    +0.000 C 
ATOM      4  O   UNL     1      -1.683  12.174  17.630  0.00  0.00    +0.000 OA
ATOM      5  C   UNL     1      -1.564  10.798  17.730  0.00  0.00    +0.000 C 
ATOM      6  C   UNL     1      -0.987  10.172  18.779  0.00  0.00    +0.000 C 
ATOM      7  C   UNL     1      -0.537  10.899  19.943  0.00  0.00    +0.000 C 
ATOM      8  C   UNL     1      -0.450  10.294  21.145  0.00  0.00    +0.000 C 
ATOM      9  C   UNL     1      -0.486  11.143  22.361  0.00  0.00    +0.000 C 
ATOM     10  O   UNL     1      -0.131  10.691  23.450  0.00  0.00    +0.000 OA
ATOM     11  C   UNL     1      -1.074  12.555  22.179  0.00  0.00    +0.000 C 
ATOM     12  C   UNL     1      -2.587  12.392  21.929  0.00  0.00    +0.000 C 
ENDROOT
BRANCH  11  13
ATOM     13  O   UNL     1      -1.002  13.385  23.340  0.00  0.00    +0.000 OA
ATOM     14  H   UNL     1      -1.012  12.778  24.107  0.00  0.00    +0.000 HD
ENDBRANCH  11  13
BRANCH   1  15
ATOM     15  O   UNL     1       1.174  13.232  21.530  0.00  0.00    +0.000 OA
BRANCH  15  16
ATOM     16  C   UNL     1       1.775  14.453  21.611  0.00  0.00    +0.000 C 
ATOM     17  O   UNL     1       2.365  14.818  22.615  0.00  0.00    +0.000 OA
BRANCH  16  24
ATOM     18  C   UNL     1       3.122  13.642  19.072  0.00  0.00    +0.000 C 
ATOM     19  C   UNL     1       2.408  14.964  19.206  0.00  0.00    +0.000 A 
ATOM     20  C   UNL     1       2.491  15.847  18.106  0.00  0.00    +0.000 A 
ATOM     21  C   UNL     1       1.824  17.060  18.131  0.00  0.00    +0.000 A 
ATOM     22  C   UNL     1       1.042  17.404  19.227  0.00  0.00    +0.000 A 
ATOM     23  C   UNL     1       0.978  16.553  20.345  0.00  0.00    +0.000 A 
ATOM     24  C   UNL     1       1.677  15.330  20.375  0.00  0.00    +0.000 A 
BRANCH  21  25
ATOM     25  O   UNL     1       1.920  17.946  17.102  0.00  0.00    +0.000 OA
ATOM     26  H   UNL     1       1.396  17.620  16.349  0.00  0.00    +0.000 HD
ENDBRANCH  21  25
BRANCH  23  27
ATOM     27  O   UNL     1       0.239  16.969  21.419  0.00  0.00    +0.000 OA
ATOM     28  H   UNL     1      -0.348  16.248  21.705  0.00  0.00    +0.000 HD
ENDBRANCH  23  27
ENDBRANCH  16  24
ENDBRANCH  15  16
ENDBRANCH   1  15
BRANCH   5  29
ATOM     29  C   UNL     1      -2.244  10.037  16.620  0.00  0.00    +0.000 C 
BRANCH  29  30
ATOM     30  C   UNL     1      -2.895  10.885  15.520  0.00  0.00    +0.000 C 
ATOM     31  C   UNL     1      -3.433  10.058  14.362  0.00  0.00    +0.000 C 
BRANCH  30  32
ATOM     32  O   UNL     1      -3.982  11.623  16.092  0.00  0.00    +0.000 OA
ATOM     33  H   UNL     1      -3.616  12.419  16.516  0.00  0.00    +0.000 HD
ENDBRANCH  30  32
ENDBRANCH  29  30
ENDBRANCH   5  29
TORSDOF 9
ENDMDL
MODEL 5
REMARK VINA RESULT:      -6.8      7.504      8.951
REMARK  Name = 
REMARK  12 active torsions:
REMARK  status: ('A' for Active; 'I' for Inactive)
REMARK    1  A    between atoms: C_1  and  C_2
REMARK    2  A    between atoms: C_4  and  O_5
REMARK    3  A    between atoms: C_7  and  O_8
REMARK    4  A    between atoms: C_9  and  C_10
REMARK    5  A    between atoms: C_10  and  O_12
REMARK    6  A    between atoms: O_12  and  C_13
REMARK    7  A    between atoms: C_17  and  C_18
REMARK    8  A    between atoms: C_18  and  C_19
REMARK    9  A    between atoms: C_19  and  C_20
REMARK   10  A    between atoms: C_19  and  O_21
REMARK   11  A    between atoms: C_27  and  C_28
REMARK   12  A    between atoms: C_27  and  O_29
REMARK                            x       y       z     vdW  Elec       q    Type
REMARK                         _______ _______ _______ _____ _____    ______ ____
ROOT
ATOM      1  C   UNL     1       0.086  12.903  20.958  0.00  0.00    +0.000 C 
ATOM      2  C   UNL     1      -0.190  12.152  19.625  0.00  0.00    +0.000 C 
ATOM      3  C   UNL     1      -1.411  12.724  18.884  0.00  0.00    +0.000 C 
ATOM      4  O   UNL     1      -1.687  12.046  17.648  0.00  0.00    +0.000 OA
ATOM      5  C   UNL     1      -1.613  10.665  17.696  0.00  0.00    +0.000 C 
ATOM      6  C   UNL     1      -0.974   9.983  18.673  0.00  0.00    +0.000 C 
ATOM      7  C   UNL     1      -0.400  10.655  19.814  0.00  0.00    +0.000 C 
ATOM      8  C   UNL     1      -0.235  10.007  20.986  0.00  0.00    +0.000 C 
ATOM      9  C   UNL     1      -0.135  10.815  22.226  0.00  0.00    +0.000 C 
ATOM     10  O   UNL     1       0.292  10.315  23.267  0.00  0.00    +0.000 OA
ATOM     11  C   UNL     1      -0.682  12.252  22.138  0.00  0.00    +0.000 C 
ATOM     12  C   UNL     1      -2.216  12.152  22.014  0.00  0.00    +0.000 C 
ENDROOT
BRANCH  11  13
ATOM     13  O   UNL     1      -0.480  13.040  23.313  0.00  0.00    +0.000 OA
ATOM     14  H   UNL     1      -0.175  13.916  23.001  0.00  0.00    +0.000 HD
ENDBRANCH  11  13
BRANCH   1  15
ATOM     15  O   UNL     1       1.527  12.870  21.319  0.00  0.00    +0.000 OA
BRANCH  15  16
ATOM     16  C   UNL     1       2.148  14.069  21.512  0.00  0.00    +0.000 C 
ATOM     17  O   UNL     1       1.784  14.854  22.374  0.00  0.00    +0.000 OA
BRANCH  16  24
ATOM     18  C   UNL     1       4.920  14.183  22.616  0.00  0.00    +0.000 C 
ATOM     19  C   UNL     1       4.624  14.507  21.173  0.00  0.00    +0.000 A 
ATOM     20  C   UNL     1       5.707  14.966  20.389  0.00  0.00    +0.000 A 
ATOM     21  C   UNL     1       5.529  15.240  19.044  0.00  0.00    +0.000 A 
ATOM     22  C   UNL     1       4.292  15.036  18.447  0.00  0.00    +0.000 A 
ATOM     23  C   UNL     1       3.195  14.614  19.221  0.00  0.00    +0.000 A 
ATOM     24  C   UNL     1       3.325  14.367  20.602  0.00  0.00    +0.000 A 
BRANCH  21  25
ATOM     25  O   UNL     1       6.545  15.722  18.276  0.00  0.00    +0.000 OA
ATOM     26  H   UNL     1       6.799  16.605  18.597  0.00  0.00    +0.000 HD
ENDBRANCH  21  25
BRANCH  23  27
ATOM     27  O   UNL     1       1.986  14.486  18.593  0.00  0.00    +0.000 OA
ATOM     28  H   UNL     1       1.369  14.010  19.176  0.00  0.00    +0.000 HD
ENDBRANCH  23  27
ENDBRANCH  16  24
ENDBRANCH  15  16
ENDBRANCH   1  15
BRANCH   5  29
ATOM     29  C   UNL     1      -2.414   9.966  16.626  0.00  0.00    +0.000 C 
BRANCH  29  30
ATOM     30  C   UNL     1      -2.921  10.848  15.478  0.00  0.00    +0.000 C 
ATOM     31  C   UNL     1      -3.468  10.051  14.303  0.00  0.00    +0.000 C 
BRANCH  30  32
ATOM     32  O   UNL     1      -3.966  11.693  15.977  0.00  0.00    +0.000 OA
ATOM     33  H   UNL     1      -3.678  12.617  15.879  0.00  0.00    +0.000 HD
ENDBRANCH  30  32
ENDBRANCH  29  30
ENDBRANCH   5  29
TORSDOF 9
ENDMDL
MODEL 6
REMARK VINA RESULT:      -6.7      2.627      7.327
REMARK  Name = 
REMARK  12 active torsions:
REMARK  status: ('A' for Active; 'I' for Inactive)
REMARK    1  A    between atoms: C_1  and  C_2
REMARK    2  A    between atoms: C_4  and  O_5
REMARK    3  A    between atoms: C_7  and  O_8
REMARK    4  A    between atoms: C_9  and  C_10
REMARK    5  A    between atoms: C_10  and  O_12
REMARK    6  A    between atoms: O_12  and  C_13
REMARK    7  A    between atoms: C_17  and  C_18
REMARK    8  A    between atoms: C_18  and  C_19
REMARK    9  A    between atoms: C_19  and  C_20
REMARK   10  A    between atoms: C_19  and  O_21
REMARK   11  A    between atoms: C_27  and  C_28
REMARK   12  A    between atoms: C_27  and  O_29
REMARK                            x       y       z     vdW  Elec       q    Type
REMARK                         _______ _______ _______ _____ _____    ______ ____
ROOT
ATOM      1  C   UNL     1       5.186   4.807  17.731  0.00  0.00    +0.000 C 
ATOM      2  C   UNL     1       5.194   4.584  16.192  0.00  0.00    +0.000 C 
ATOM      3  C   UNL     1       5.681   3.172  15.817  0.00  0.00    +0.000 C 
ATOM      4  O   UNL     1       5.698   2.942  14.400  0.00  0.00    +0.000 OA
ATOM      5  C   UNL     1       6.213   3.973  13.633  0.00  0.00    +0.000 C 
ATOM      6  C   UNL     1       6.344   5.242  14.078  0.00  0.00    +0.000 C 
ATOM      7  C   UNL     1       6.046   5.601  15.444  0.00  0.00    +0.000 C 
ATOM      8  C   UNL     1       6.631   6.672  16.021  0.00  0.00    +0.000 C 
ATOM      9  C   UNL     1       6.709   6.715  17.501  0.00  0.00    +0.000 C 
ATOM     10  O   UNL     1       6.966   7.769  18.084  0.00  0.00    +0.000 OA
ATOM     11  C   UNL     1       6.546   5.365  18.224  0.00  0.00    +0.000 C 
ATOM     12  C   UNL     1       7.806   4.528  17.920  0.00  0.00    +0.000 C 
ENDROOT
BRANCH  11  13
ATOM     13  O   UNL     1       6.522   5.451  19.650  0.00  0.00    +0.000 OA
ATOM     14  H   UNL     1       7.006   4.665  19.975  0.00  0.00    +0.000 HD
ENDBRANCH  11  13
BRANCH   1  15
ATOM     15  O   UNL     1       4.150   5.791  18.137  0.00  0.00    +0.000 OA
BRANCH  15  16
ATOM     16  C   UNL     1       2.864   5.343  18.219  0.00  0.00    +0.000 C 
ATOM     17  O   UNL     1       2.018   5.651  17.395  0.00  0.00    +0.000 OA
BRANCH  16  24
ATOM     18  C   UNL     1       2.572   2.401  17.802  0.00  0.00    +0.000 C 
ATOM     19  C   UNL     1       2.322   3.042  19.144  0.00  0.00    +0.000 A 
ATOM     20  C   UNL     1       1.845   2.199  20.173  0.00  0.00    +0.000 A 
ATOM     21  C   UNL     1       1.635   2.701  21.446  0.00  0.00    +0.000 A 
ATOM     22  C   UNL     1       1.923   4.031  21.729  0.00  0.00    +0.000 A 
ATOM     23  C   UNL     1       2.364   4.891  20.707  0.00  0.00    +0.000 A 
ATOM     24  C   UNL     1       2.548   4.429  19.389  0.00  0.00    +0.000 A 
BRANCH  21  25
ATOM     25  O   UNL     1       1.138   1.921  22.445  0.00  0.00    +0.000 OA
ATOM     26  H   UNL     1       1.736   1.963  23.213  0.00  0.00    +0.000 HD
ENDBRANCH  21  25
BRANCH  23  27
ATOM     27  O   UNL     1       2.577   6.204  21.030  0.00  0.00    +0.000 OA
ATOM     28  H   UNL     1       1.720   6.642  21.178  0.00  0.00    +0.000 HD
ENDBRANCH  23  27
ENDBRANCH  16  24
ENDBRANCH  15  16
ENDBRANCH   1  15
BRANCH   5  29
ATOM     29  C   UNL     1       6.737   3.539  12.287  0.00  0.00    +0.000 C 
BRANCH  29  30
ATOM     30  C   UNL     1       5.731   2.842  11.364  0.00  0.00    +0.000 C 
ATOM     31  C   UNL     1       5.905   1.331  11.315  0.00  0.00    +0.000 C 
BRANCH  30  32
ATOM     32  O   UNL     1       4.406   3.129  11.829  0.00  0.00    +0.000 OA
ATOM     33  H   UNL     1       3.889   2.306  11.793  0.00  0.00    +0.000 HD
ENDBRANCH  30  32
ENDBRANCH  29  30
ENDBRANCH   5  29
TORSDOF 9
ENDMDL
MODEL 7
REMARK VINA RESULT:      -6.7      2.520      7.183
REMARK  Name = 
REMARK  12 active torsions:
REMARK  status: ('A' for Active; 'I' for Inactive)
REMARK    1  A    between atoms: C_1  and  C_2
REMARK    2  A    between atoms: C_4  and  O_5
REMARK    3  A    between atoms: C_7  and  O_8
REMARK    4  A    between atoms: C_9  and  C_10
REMARK    5  A    between atoms: C_10  and  O_12
REMARK    6  A    between atoms: O_12  and  C_13
REMARK    7  A    between atoms: C_17  and  C_18
REMARK    8  A    between atoms: C_18  and  C_19
REMARK    9  A    between atoms: C_19  and  C_20
REMARK   10  A    between atoms: C_19  and  O_21
REMARK   11  A    between atoms: C_27  and  C_28
REMARK   12  A    between atoms: C_27  and  O_29
REMARK                            x       y       z     vdW  Elec       q    Type
REMARK                         _______ _______ _______ _____ _____    ______ ____
ROOT
ATOM      1  C   UNL     1       5.760   5.008  18.245  0.00  0.00    +0.000 C 
ATOM      2  C   UNL     1       5.594   4.836  16.709  0.00  0.00    +0.000 C 
ATOM      3  C   UNL     1       5.866   3.389  16.260  0.00  0.00    +0.000 C 
ATOM      4  O   UNL     1       5.720   3.204  14.843  0.00  0.00    +0.000 OA
ATOM      5  C   UNL     1       6.284   4.189  14.051  0.00  0.00    +0.000 C 
ATOM      6  C   UNL     1       6.612   5.418  14.507  0.00  0.00    +0.000 C 
ATOM      7  C   UNL     1       6.491   5.767  15.903  0.00  0.00    +0.000 C 
ATOM      8  C   UNL     1       7.256   6.739  16.441  0.00  0.00    +0.000 C 
ATOM      9  C   UNL     1       7.478   6.725  17.907  0.00  0.00    +0.000 C 
ATOM     10  O   UNL     1       7.918   7.720  18.483  0.00  0.00    +0.000 OA
ATOM     11  C   UNL     1       7.219   5.381  18.615  0.00  0.00    +0.000 C 
ATOM     12  C   UNL     1       8.331   4.408  18.172  0.00  0.00    +0.000 C 
ENDROOT
BRANCH  11  13
ATOM     13  O   UNL     1       7.341   5.423  20.038  0.00  0.00    +0.000 OA
ATOM     14  H   UNL     1       7.908   6.195  20.237  0.00  0.00    +0.000 HD
ENDBRANCH  11  13
BRANCH   1  15
ATOM     15  O   UNL     1       4.896   6.097  18.772  0.00  0.00    +0.000 OA
BRANCH  15  16
ATOM     16  C   UNL     1       3.603   6.130  18.340  0.00  0.00    +0.000 C 
ATOM     17  O   UNL     1       3.202   6.982  17.563  0.00  0.00    +0.000 OA
BRANCH  16  24
ATOM     18  C   UNL     1       2.761   3.872  16.576  0.00  0.00    +0.000 C 
ATOM     19  C   UNL     1       2.232   4.024  17.980  0.00  0.00    +0.000 A 
ATOM     20  C   UNL     1       1.242   3.104  18.390  0.00  0.00    +0.000 A 
ATOM     21  C   UNL     1       0.739   3.146  19.680  0.00  0.00    +0.000 A 
ATOM     22  C   UNL     1       1.229   4.074  20.590  0.00  0.00    +0.000 A 
ATOM     23  C   UNL     1       2.189   5.020  20.187  0.00  0.00    +0.000 A 
ATOM     24  C   UNL     1       2.693   5.038  18.872  0.00  0.00    +0.000 A 
BRANCH  21  25
ATOM     25  O   UNL     1      -0.244   2.298  20.088  0.00  0.00    +0.000 OA
ATOM     26  H   UNL     1       0.158   1.532  20.535  0.00  0.00    +0.000 HD
ENDBRANCH  21  25
BRANCH  23  27
ATOM     27  O   UNL     1       2.593   5.948  21.109  0.00  0.00    +0.000 OA
ATOM     28  H   UNL     1       2.872   5.493  21.923  0.00  0.00    +0.000 HD
ENDBRANCH  23  27
ENDBRANCH  16  24
ENDBRANCH  15  16
ENDBRANCH   1  15
BRANCH   5  29
ATOM     29  C   UNL     1       6.620   3.739  12.651  0.00  0.00    +0.000 C 
BRANCH  29  30
ATOM     30  C   UNL     1       5.772   2.592  12.089  0.00  0.00    +0.000 C 
ATOM     31  C   UNL     1       4.577   3.069  11.277  0.00  0.00    +0.000 C 
BRANCH  30  32
ATOM     32  O   UNL     1       6.599   1.781  11.244  0.00  0.00    +0.000 OA
ATOM     33  H   UNL     1       7.135   1.202  11.813  0.00  0.00    +0.000 HD
ENDBRANCH  30  32
ENDBRANCH  29  30
ENDBRANCH   5  29
TORSDOF 9
ENDMDL
MODEL 8
REMARK VINA RESULT:      -6.7      7.522      9.179
REMARK  Name = 
REMARK  12 active torsions:
REMARK  status: ('A' for Active; 'I' for Inactive)
REMARK    1  A    between atoms: C_1  and  C_2
REMARK    2  A    between atoms: C_4  and  O_5
REMARK    3  A    between atoms: C_7  and  O_8
REMARK    4  A    between atoms: C_9  and  C_10
REMARK    5  A    between atoms: C_10  and  O_12
REMARK    6  A    between atoms: O_12  and  C_13
REMARK    7  A    between atoms: C_17  and  C_18
REMARK    8  A    between atoms: C_18  and  C_19
REMARK    9  A    between atoms: C_19  and  C_20
REMARK   10  A    between atoms: C_19  and  O_21
REMARK   11  A    between atoms: C_27  and  C_28
REMARK   12  A    between atoms: C_27  and  O_29
REMARK                            x       y       z     vdW  Elec       q    Type
REMARK                         _______ _______ _______ _____ _____    ______ ____
ROOT
ATOM      1  C   UNL     1      -0.063  13.008  21.060  0.00  0.00    +0.000 C 
ATOM      2  C   UNL     1      -0.268  12.267  19.709  0.00  0.00    +0.000 C 
ATOM      3  C   UNL     1      -1.516  12.769  18.960  0.00  0.00    +0.000 C 
ATOM      4  O   UNL     1      -1.728  12.098  17.708  0.00  0.00    +0.000 OA
ATOM      5  C   UNL     1      -1.559  10.725  17.731  0.00  0.00    +0.000 C 
ATOM      6  C   UNL     1      -0.888  10.069  18.703  0.00  0.00    +0.000 C 
ATOM      7  C   UNL     1      -0.377  10.755  19.866  0.00  0.00    +0.000 C 
ATOM      8  C   UNL     1      -0.183  10.096  21.028  0.00  0.00    +0.000 C 
ATOM      9  C   UNL     1      -0.156  10.885  22.284  0.00  0.00    +0.000 C 
ATOM     10  O   UNL     1       0.290  10.394  23.321  0.00  0.00    +0.000 OA
ATOM     11  C   UNL     1      -0.800  12.282  22.216  0.00  0.00    +0.000 C 
ATOM     12  C   UNL     1      -2.322  12.079  22.067  0.00  0.00    +0.000 C 
ENDROOT
BRANCH  11  13
ATOM     13  O   UNL     1      -0.669  13.058  23.409  0.00  0.00    +0.000 OA
ATOM     14  H   UNL     1      -0.623  12.416  24.144  0.00  0.00    +0.000 HD
ENDBRANCH  11  13
BRANCH   1  15
ATOM     15  O   UNL     1       1.372  13.067  21.441  0.00  0.00    +0.000 OA
BRANCH  15  16
ATOM     16  C   UNL     1       1.881  14.291  21.760  0.00  0.00    +0.000 C 
ATOM     17  O   UNL     1       1.284  15.071  22.486  0.00  0.00    +0.000 OA
BRANCH  16  24
ATOM     18  C   UNL     1       2.129  15.087  18.893  0.00  0.00    +0.000 C 
ATOM     19  C   UNL     1       3.338  14.909  19.777  0.00  0.00    +0.000 A 
ATOM     20  C   UNL     1       4.603  15.040  19.159  0.00  0.00    +0.000 A 
ATOM     21  C   UNL     1       5.761  14.938  19.910  0.00  0.00    +0.000 A 
ATOM     22  C   UNL     1       5.689  14.738  21.283  0.00  0.00    +0.000 A 
ATOM     23  C   UNL     1       4.439  14.571  21.907  0.00  0.00    +0.000 A 
ATOM     24  C   UNL     1       3.239  14.625  21.171  0.00  0.00    +0.000 A 
BRANCH  21  25
ATOM     25  O   UNL     1       6.992  15.019  19.333  0.00  0.00    +0.000 OA
ATOM     26  H   UNL     1       6.987  14.523  18.495  0.00  0.00    +0.000 HD
ENDBRANCH  21  25
BRANCH  23  27
ATOM     27  O   UNL     1       4.430  14.320  23.253  0.00  0.00    +0.000 OA
ATOM     28  H   UNL     1       4.031  13.448  23.415  0.00  0.00    +0.000 HD
ENDBRANCH  23  27
ENDBRANCH  16  24
ENDBRANCH  15  16
ENDBRANCH   1  15
BRANCH   5  29
ATOM     29  C   UNL     1      -2.296   9.994  16.635  0.00  0.00    +0.000 C 
BRANCH  29  30
ATOM     30  C   UNL     1      -2.874  10.865  15.514  0.00  0.00    +0.000 C 
ATOM     31  C   UNL     1      -3.376  10.059  14.324  0.00  0.00    +0.000 C 
BRANCH  30  32
ATOM     32  O   UNL     1      -3.971  11.623  16.041  0.00  0.00    +0.000 OA
ATOM     33  H   UNL     1      -4.681  11.626  15.377  0.00  0.00    +0.000 HD
ENDBRANCH  30  32
ENDBRANCH  29  30
ENDBRANCH   5  29
TORSDOF 9
ENDMDL
MODEL 9
REMARK VINA RESULT:      -6.7      2.145      7.501
REMARK  Name = 
REMARK  12 active torsions:
REMARK  status: ('A' for Active; 'I' for Inactive)
REMARK    1  A    between atoms: C_1  and  C_2
REMARK    2  A    between atoms: C_4  and  O_5
REMARK    3  A    between atoms: C_7  and  O_8
REMARK    4  A    between atoms: C_9  and  C_10
REMARK    5  A    between atoms: C_10  and  O_12
REMARK    6  A    between atoms: O_12  and  C_13
REMARK    7  A    between atoms: C_17  and  C_18
REMARK    8  A    between atoms: C_18  and  C_19
REMARK    9  A    between atoms: C_19  and  C_20
REMARK   10  A    between atoms: C_19  and  O_21
REMARK   11  A    between atoms: C_27  and  C_28
REMARK   12  A    between atoms: C_27  and  O_29
REMARK                            x       y       z     vdW  Elec       q    Type
REMARK                         _______ _______ _______ _____ _____    ______ ____
ROOT
ATOM      1  C   UNL     1       5.329   5.174  17.904  0.00  0.00    +0.000 C 
ATOM      2  C   UNL     1       5.270   4.926  16.371  0.00  0.00    +0.000 C 
ATOM      3  C   UNL     1       5.448   3.437  16.022  0.00  0.00    +0.000 C 
ATOM      4  O   UNL     1       5.399   3.181  14.610  0.00  0.00    +0.000 OA
ATOM      5  C   UNL     1       6.107   4.067  13.817  0.00  0.00    +0.000 C 
ATOM      6  C   UNL     1       6.505   5.290  14.233  0.00  0.00    +0.000 C 
ATOM      7  C   UNL     1       6.306   5.729  15.595  0.00  0.00    +0.000 C 
ATOM      8  C   UNL     1       7.110   6.664  16.143  0.00  0.00    +0.000 C 
ATOM      9  C   UNL     1       7.213   6.718  17.621  0.00  0.00    +0.000 C 
ATOM     10  O   UNL     1       7.692   7.706  18.180  0.00  0.00    +0.000 OA
ATOM     11  C   UNL     1       6.782   5.445  18.374  0.00  0.00    +0.000 C 
ATOM     12  C   UNL     1       7.835   4.358  18.077  0.00  0.00    +0.000 C 
ENDROOT
BRANCH  11  13
ATOM     13  O   UNL     1       6.794   5.561  19.799  0.00  0.00    +0.000 OA
ATOM     14  H   UNL     1       6.062   4.999  20.121  0.00  0.00    +0.000 HD
ENDBRANCH  11  13
BRANCH   1  15
ATOM     15  O   UNL     1       4.526   6.361  18.299  0.00  0.00    +0.000 OA
BRANCH  15  16
ATOM     16  C   UNL     1       3.170   6.215  18.320  0.00  0.00    +0.000 C 
ATOM     17  O   UNL     1       2.611   5.277  17.775  0.00  0.00    +0.000 OA
BRANCH  16  24
ATOM     18  C   UNL     1       2.173   5.694  21.086  0.00  0.00    +0.000 C 
ATOM     19  C   UNL     1       1.851   6.971  20.353  0.00  0.00    +0.000 A 
ATOM     20  C   UNL     1       0.971   7.870  20.997  0.00  0.00    +0.000 A 
ATOM     21  C   UNL     1       0.663   9.087  20.411  0.00  0.00    +0.000 A 
ATOM     22  C   UNL     1       1.241   9.446  19.200  0.00  0.00    +0.000 A 
ATOM     23  C   UNL     1       2.091   8.547  18.529  0.00  0.00    +0.000 A 
ATOM     24  C   UNL     1       2.395   7.283  19.072  0.00  0.00    +0.000 A 
BRANCH  21  25
ATOM     25  O   UNL     1      -0.213   9.953  20.990  0.00  0.00    +0.000 OA
ATOM     26  H   UNL     1      -0.636   9.520  21.753  0.00  0.00    +0.000 HD
ENDBRANCH  21  25
BRANCH  23  27
ATOM     27  O   UNL     1       2.587   8.930  17.312  0.00  0.00    +0.000 OA
ATOM     28  H   UNL     1       2.386   9.870  17.164  0.00  0.00    +0.000 HD
ENDBRANCH  23  27
ENDBRANCH  16  24
ENDBRANCH  15  16
ENDBRANCH   1  15
BRANCH   5  29
ATOM     29  C   UNL     1       6.512   3.508  12.475  0.00  0.00    +0.000 C 
BRANCH  29  30
ATOM     30  C   UNL     1       5.629   2.385  11.918  0.00  0.00    +0.000 C 
ATOM     31  C   UNL     1       4.436   2.897  11.124  0.00  0.00    +0.000 C 
BRANCH  30  32
ATOM     32  O   UNL     1       6.425   1.560  11.057  0.00  0.00    +0.000 OA
ATOM     33  H   UNL     1       6.051   1.613  10.160  0.00  0.00    +0.000 HD
ENDBRANCH  30  32
ENDBRANCH  29  30
ENDBRANCH   5  29
TORSDOF 9
ENDMDL
