MODEL 1
REMARK VINA RESULT:      -7.9      0.000      0.000
REMARK  Name = 
REMARK  12 active torsions:
REMARK  status: ('A' for Active; 'I' for Inactive)
REMARK    1  A    between atoms: C_1  and  O_2
REMARK    2  A    between atoms: O_2  and  C_3
REMARK    3  A    between atoms: C_6  and  C_7
REMARK    4  A    between atoms: C_7  and  C_9
REMARK    5  A    between atoms: C_9  and  S_10
REMARK    6  A    between atoms: S_10  and  C_11
REMARK    7  A    between atoms: C_14  and  C_15
REMARK    8  A    between atoms: C_15  and  N_16
REMARK    9  A    between atoms: C_17  and  C_19
REMARK   10  A    between atoms: N_24  and  C_25
REMARK   11  A    between atoms: C_27  and  O_28
REMARK   12  A    between atoms: O_28  and  C_29
REMARK                            x       y       z     vdW  Elec       q    Type
REMARK                         _______ _______ _______ _____ _____    ______ ____
ROOT
ATOM      1  C   UNL     1       2.367   7.186  19.213  0.00  0.00    +0.000 A 
ATOM      2  N   UNL     1       2.760   7.344  17.973  0.00  0.00    +0.000 NA
ATOM      3  N   UNL     1       2.353   8.595  17.567  0.00  0.00    +0.000 NA
ATOM      4  C   UNL     1       1.723   9.177  18.573  0.00  0.00    +0.000 A 
ATOM      5  N   UNL     1       1.710   8.309  19.642  0.00  0.00    +0.000 N 
ATOM      6  C   UNL     1       1.150   8.513  20.953  0.00  0.00    +0.000 C 
ENDROOT
BRANCH   1   7
ATOM      7  S   UNL     1       2.616   5.808  20.220  0.00  0.00    +0.000 S 
BRANCH   7   8
ATOM      8  C   UNL     1       1.946   4.464  19.195  0.00  0.00    +0.000 C 
BRANCH   8   9
ATOM      9  C   UNL     1       3.027   3.435  18.883  0.00  0.00    +0.000 C 
ATOM     10  O   UNL     1       2.993   2.266  19.268  0.00  0.00    +0.000 OA
BRANCH   9  14
ATOM     11  C   UNL     1       6.267   4.841  16.411  0.00  0.00    +0.000 A 
ATOM     12  C   UNL     1       5.027   4.491  15.859  0.00  0.00    +0.000 A 
ATOM     13  C   UNL     1       3.992   4.024  16.668  0.00  0.00    +0.000 A 
ATOM     14  C   UNL     1       4.191   3.853  18.043  0.00  0.00    +0.000 A 
ATOM     15  C   UNL     1       5.457   4.103  18.576  0.00  0.00    +0.000 A 
ATOM     16  C   UNL     1       6.505   4.589  17.771  0.00  0.00    +0.000 A 
BRANCH  11  18
ATOM     17  C   UNL     1       7.250   4.988  14.266  0.00  0.00    +0.000 C 
ATOM     18  O   UNL     1       7.246   5.401  15.634  0.00  0.00    +0.000 OA
ENDBRANCH  11  18
BRANCH  16  19
ATOM     19  O   UNL     1       7.650   4.778  18.497  0.00  0.00    +0.000 OA
ATOM     20  C   UNL     1       7.942   6.069  19.011  0.00  0.00    +0.000 C 
ENDBRANCH  16  19
ENDBRANCH   9  14
ENDBRANCH   8   9
ENDBRANCH   7   8
ENDBRANCH   1   7
BRANCH   4  21
ATOM     21  C   UNL     1       1.156  10.553  18.559  0.00  0.00    +0.000 C 
BRANCH  21  22
ATOM     22  N   UNL     1      -0.062  10.578  17.787  0.00  0.00    +0.000 N 
ATOM     23  C   UNL     1      -1.285  10.909  18.319  0.00  0.00    +0.000 C 
ATOM     24  O   UNL     1      -1.430  11.172  19.508  0.00  0.00    +0.000 OA
ATOM     25  H   UNL     1      -0.028  10.309  16.811  0.00  0.00    +0.000 HD
BRANCH  23  26
ATOM     26  C   UNL     1      -2.377  10.922  17.367  0.00  0.00    +0.000 A 
ATOM     27  C   UNL     1      -2.481  10.378  16.101  0.00  0.00    +0.000 A 
ATOM     28  C   UNL     1      -3.784  10.687  15.635  0.00  0.00    +0.000 A 
ATOM     29  C   UNL     1      -4.396  11.390  16.644  0.00  0.00    +0.000 A 
ATOM     30  O   UNL     1      -3.556  11.543  17.697  0.00  0.00    +0.000 OA
ENDBRANCH  23  26
ENDBRANCH  21  22
ENDBRANCH   4  21
TORSDOF 9
ENDMDL
MODEL 2
REMARK VINA RESULT:      -7.7      1.147      1.395
REMARK  Name = 
REMARK  12 active torsions:
REMARK  status: ('A' for Active; 'I' for Inactive)
REMARK    1  A    between atoms: C_1  and  O_2
REMARK    2  A    between atoms: O_2  and  C_3
REMARK    3  A    between atoms: C_6  and  C_7
REMARK    4  A    between atoms: C_7  and  C_9
REMARK    5  A    between atoms: C_9  and  S_10
REMARK    6  A    between atoms: S_10  and  C_11
REMARK    7  A    between atoms: C_14  and  C_15
REMARK    8  A    between atoms: C_15  and  N_16
REMARK    9  A    between atoms: C_17  and  C_19
REMARK   10  A    between atoms: N_24  and  C_25
REMARK   11  A    between atoms: C_27  and  O_28
REMARK   12  A    between atoms: O_28  and  C_29
REMARK                            x       y       z     vdW  Elec       q    Type
REMARK                         _______ _______ _______ _____ _____    ______ ____
ROOT
ATOM      1  C   UNL     1       2.346   7.004  19.050  0.00  0.00    +0.000 A 
ATOM      2  N   UNL     1       2.781   7.291  17.847  0.00  0.00    +0.000 NA
ATOM      3  N   UNL     1       2.377   8.573  17.556  0.00  0.00    +0.000 NA
ATOM      4  C   UNL     1       1.704   9.046  18.591  0.00  0.00    +0.000 A 
ATOM      5  N   UNL     1       1.662   8.074  19.565  0.00  0.00    +0.000 N 
ATOM      6  C   UNL     1       1.052   8.140  20.869  0.00  0.00    +0.000 C 
ENDROOT
BRANCH   1   7
ATOM      7  S   UNL     1       2.572   5.533  19.921  0.00  0.00    +0.000 S 
BRANCH   7   8
ATOM      8  C   UNL     1       3.082   4.388  18.604  0.00  0.00    +0.000 C 
BRANCH   8   9
ATOM      9  C   UNL     1       4.568   4.066  18.717  0.00  0.00    +0.000 C 
ATOM     10  O   UNL     1       5.077   3.512  19.692  0.00  0.00    +0.000 OA
BRANCH   9  14
ATOM     11  C   UNL     1       6.964   5.123  15.292  0.00  0.00    +0.000 A 
ATOM     12  C   UNL     1       6.191   3.953  15.310  0.00  0.00    +0.000 A 
ATOM     13  C   UNL     1       5.433   3.615  16.430  0.00  0.00    +0.000 A 
ATOM     14  C   UNL     1       5.466   4.418  17.575  0.00  0.00    +0.000 A 
ATOM     15  C   UNL     1       6.315   5.527  17.595  0.00  0.00    +0.000 A 
ATOM     16  C   UNL     1       7.074   5.885  16.466  0.00  0.00    +0.000 A 
BRANCH  11  18
ATOM     17  C   UNL     1       7.241   4.818  12.964  0.00  0.00    +0.000 C 
ATOM     18  O   UNL     1       7.622   5.510  14.155  0.00  0.00    +0.000 OA
ENDBRANCH  11  18
BRANCH  16  19
ATOM     19  O   UNL     1       7.821   7.009  16.698  0.00  0.00    +0.000 OA
ATOM     20  C   UNL     1       7.862   7.558  18.007  0.00  0.00    +0.000 C 
ENDBRANCH  16  19
ENDBRANCH   9  14
ENDBRANCH   8   9
ENDBRANCH   7   8
ENDBRANCH   1   7
BRANCH   4  21
ATOM     21  C   UNL     1       1.123  10.413  18.696  0.00  0.00    +0.000 C 
BRANCH  21  22
ATOM     22  N   UNL     1      -0.121  10.477  17.970  0.00  0.00    +0.000 N 
ATOM     23  C   UNL     1      -1.307  10.871  18.541  0.00  0.00    +0.000 C 
ATOM     24  O   UNL     1      -1.395  11.161  19.730  0.00  0.00    +0.000 OA
ATOM     25  H   UNL     1      -0.137  10.190  16.999  0.00  0.00    +0.000 HD
BRANCH  23  26
ATOM     26  C   UNL     1      -2.434  10.915  17.632  0.00  0.00    +0.000 A 
ATOM     27  C   UNL     1      -3.694  11.463  17.778  0.00  0.00    +0.000 A 
ATOM     28  C   UNL     1      -4.382  11.222  16.561  0.00  0.00    +0.000 A 
ATOM     29  C   UNL     1      -3.500  10.552  15.748  0.00  0.00    +0.000 A 
ATOM     30  O   UNL     1      -2.319  10.356  16.384  0.00  0.00    +0.000 OA
ENDBRANCH  23  26
ENDBRANCH  21  22
ENDBRANCH   4  21
TORSDOF 9
ENDMDL
MODEL 3
REMARK VINA RESULT:      -7.5      2.957      4.032
REMARK  Name = 
REMARK  12 active torsions:
REMARK  status: ('A' for Active; 'I' for Inactive)
REMARK    1  A    between atoms: C_1  and  O_2
REMARK    2  A    between atoms: O_2  and  C_3
REMARK    3  A    between atoms: C_6  and  C_7
REMARK    4  A    between atoms: C_7  and  C_9
REMARK    5  A    between atoms: C_9  and  S_10
REMARK    6  A    between atoms: S_10  and  C_11
REMARK    7  A    between atoms: C_14  and  C_15
REMARK    8  A    between atoms: C_15  and  N_16
REMARK    9  A    between atoms: C_17  and  C_19
REMARK   10  A    between atoms: N_24  and  C_25
REMARK   11  A    between atoms: C_27  and  O_28
REMARK   12  A    between atoms: O_28  and  C_29
REMARK                            x       y       z     vdW  Elec       q    Type
REMARK                         _______ _______ _______ _____ _____    ______ ____
ROOT
ATOM      1  C   UNL     1       1.962   3.846  19.953  0.00  0.00    +0.000 A 
ATOM      2  N   UNL     1       2.234   4.221  21.180  0.00  0.00    +0.000 NA
ATOM      3  N   UNL     1       2.353   5.592  21.176  0.00  0.00    +0.000 NA
ATOM      4  C   UNL     1       2.148   6.026  19.944  0.00  0.00    +0.000 A 
ATOM      5  N   UNL     1       1.896   4.943  19.134  0.00  0.00    +0.000 N 
ATOM      6  C   UNL     1       1.603   4.929  17.724  0.00  0.00    +0.000 C 
ENDROOT
BRANCH   1   7
ATOM      7  S   UNL     1       1.702   2.239  19.385  0.00  0.00    +0.000 S 
BRANCH   7   8
ATOM      8  C   UNL     1       3.195   1.942  18.390  0.00  0.00    +0.000 C 
BRANCH   8   9
ATOM      9  C   UNL     1       4.414   2.580  19.047  0.00  0.00    +0.000 C 
ATOM     10  O   UNL     1       4.924   2.169  20.090  0.00  0.00    +0.000 OA
BRANCH   9  14
ATOM     11  C   UNL     1       6.459   5.899  17.207  0.00  0.00    +0.000 A 
ATOM     12  C   UNL     1       6.411   5.752  18.601  0.00  0.00    +0.000 A 
ATOM     13  C   UNL     1       5.734   4.682  19.183  0.00  0.00    +0.000 A 
ATOM     14  C   UNL     1       5.050   3.759  18.384  0.00  0.00    +0.000 A 
ATOM     15  C   UNL     1       5.010   3.963  17.003  0.00  0.00    +0.000 A 
ATOM     16  C   UNL     1       5.702   5.032  16.403  0.00  0.00    +0.000 A 
BRANCH  11  18
ATOM     17  C   UNL     1       7.736   7.861  17.538  0.00  0.00    +0.000 C 
ATOM     18  O   UNL     1       7.214   6.887  16.632  0.00  0.00    +0.000 OA
ENDBRANCH  11  18
BRANCH  16  19
ATOM     19  O   UNL     1       5.541   5.034  15.044  0.00  0.00    +0.000 OA
ATOM     20  C   UNL     1       6.524   4.417  14.225  0.00  0.00    +0.000 C 
ENDBRANCH  16  19
ENDBRANCH   9  14
ENDBRANCH   8   9
ENDBRANCH   7   8
ENDBRANCH   1   7
BRANCH   4  21
ATOM     21  C   UNL     1       2.154   7.453  19.518  0.00  0.00    +0.000 C 
BRANCH  21  22
ATOM     22  N   UNL     1       1.457   8.260  20.488  0.00  0.00    +0.000 N 
ATOM     23  C   UNL     1       0.698   9.356  20.153  0.00  0.00    +0.000 C 
ATOM     24  O   UNL     1       0.594   9.748  18.994  0.00  0.00    +0.000 OA
ATOM     25  H   UNL     1       1.550   8.034  21.472  0.00  0.00    +0.000 HD
BRANCH  23  26
ATOM     26  C   UNL     1       0.040  10.003  21.268  0.00  0.00    +0.000 A 
ATOM     27  C   UNL     1      -0.438   9.491  22.459  0.00  0.00    +0.000 A 
ATOM     28  C   UNL     1      -0.976  10.585  23.183  0.00  0.00    +0.000 A 
ATOM     29  C   UNL     1      -0.787  11.695  22.396  0.00  0.00    +0.000 A 
ATOM     30  O   UNL     1      -0.177  11.358  21.233  0.00  0.00    +0.000 OA
ENDBRANCH  23  26
ENDBRANCH  21  22
ENDBRANCH   4  21
TORSDOF 9
ENDMDL
MODEL 4
REMARK VINA RESULT:      -7.4      1.264      2.170
REMARK  Name = 
REMARK  12 active torsions:
REMARK  status: ('A' for Active; 'I' for Inactive)
REMARK    1  A    between atoms: C_1  and  O_2
REMARK    2  A    between atoms: O_2  and  C_3
REMARK    3  A    between atoms: C_6  and  C_7
REMARK    4  A    between atoms: C_7  and  C_9
REMARK    5  A    between atoms: C_9  and  S_10
REMARK    6  A    between atoms: S_10  and  C_11
REMARK    7  A    between atoms: C_14  and  C_15
REMARK    8  A    between atoms: C_15  and  N_16
REMARK    9  A    between atoms: C_17  and  C_19
REMARK   10  A    between atoms: N_24  and  C_25
REMARK   11  A    between atoms: C_27  and  O_28
REMARK   12  A    between atoms: O_28  and  C_29
REMARK                            x       y       z     vdW  Elec       q    Type
REMARK                         _______ _______ _______ _____ _____    ______ ____
ROOT
ATOM      1  C   UNL     1       2.292   6.377  19.343  0.00  0.00    +0.000 A 
ATOM      2  N   UNL     1       2.595   6.425  18.069  0.00  0.00    +0.000 NA
ATOM      3  N   UNL     1       2.340   7.705  17.631  0.00  0.00    +0.000 NA
ATOM      4  C   UNL     1       1.888   8.413  18.652  0.00  0.00    +0.000 A 
ATOM      5  N   UNL     1       1.842   7.601  19.762  0.00  0.00    +0.000 N 
ATOM      6  C   UNL     1       1.431   7.939  21.101  0.00  0.00    +0.000 C 
ENDROOT
BRANCH   1   7
ATOM      7  S   UNL     1       2.424   5.019  20.398  0.00  0.00    +0.000 S 
BRANCH   7   8
ATOM      8  C   UNL     1       2.880   3.687  19.247  0.00  0.00    +0.000 C 
BRANCH   8   9
ATOM      9  C   UNL     1       4.391   3.487  19.228  0.00  0.00    +0.000 C 
ATOM     10  O   UNL     1       4.959   2.503  19.706  0.00  0.00    +0.000 OA
BRANCH   9  14
ATOM     11  C   UNL     1       7.041   6.363  17.415  0.00  0.00    +0.000 A 
ATOM     12  C   UNL     1       6.977   6.205  18.807  0.00  0.00    +0.000 A 
ATOM     13  C   UNL     1       6.105   5.282  19.381  0.00  0.00    +0.000 A 
ATOM     14  C   UNL     1       5.244   4.527  18.576  0.00  0.00    +0.000 A 
ATOM     15  C   UNL     1       5.234   4.759  17.199  0.00  0.00    +0.000 A 
ATOM     16  C   UNL     1       6.120   5.678  16.608  0.00  0.00    +0.000 A 
BRANCH  11  18
ATOM     17  C   UNL     1       8.126   8.463  17.480  0.00  0.00    +0.000 C 
ATOM     18  O   UNL     1       7.973   7.191  16.847  0.00  0.00    +0.000 OA
ENDBRANCH  11  18
BRANCH  16  19
ATOM     19  O   UNL     1       5.950   5.737  15.250  0.00  0.00    +0.000 OA
ATOM     20  C   UNL     1       6.669   4.836  14.420  0.00  0.00    +0.000 C 
ENDBRANCH  16  19
ENDBRANCH   9  14
ENDBRANCH   8   9
ENDBRANCH   7   8
ENDBRANCH   1   7
BRANCH   4  21
ATOM     21  C   UNL     1       1.526   9.857  18.610  0.00  0.00    +0.000 C 
BRANCH  21  22
ATOM     22  N   UNL     1       0.293  10.036  17.884  0.00  0.00    +0.000 N 
ATOM     23  C   UNL     1      -0.891  10.389  18.486  0.00  0.00    +0.000 C 
ATOM     24  O   UNL     1      -0.987  10.541  19.699  0.00  0.00    +0.000 OA
ATOM     25  H   UNL     1       0.283   9.864  16.886  0.00  0.00    +0.000 HD
BRANCH  23  26
ATOM     26  C   UNL     1      -2.004  10.566  17.577  0.00  0.00    +0.000 A 
ATOM     27  C   UNL     1      -3.133  11.358  17.671  0.00  0.00    +0.000 A 
ATOM     28  C   UNL     1      -3.877  11.144  16.482  0.00  0.00    +0.000 A 
ATOM     29  C   UNL     1      -3.154  10.246  15.735  0.00  0.00    +0.000 A 
ATOM     30  O   UNL     1      -2.021   9.884  16.386  0.00  0.00    +0.000 OA
ENDBRANCH  23  26
ENDBRANCH  21  22
ENDBRANCH   4  21
TORSDOF 9
ENDMDL
MODEL 5
REMARK VINA RESULT:      -7.1      1.094      1.162
REMARK  Name = 
REMARK  12 active torsions:
REMARK  status: ('A' for Active; 'I' for Inactive)
REMARK    1  A    between atoms: C_1  and  O_2
REMARK    2  A    between atoms: O_2  and  C_3
REMARK    3  A    between atoms: C_6  and  C_7
REMARK    4  A    between atoms: C_7  and  C_9
REMARK    5  A    between atoms: C_9  and  S_10
REMARK    6  A    between atoms: S_10  and  C_11
REMARK    7  A    between atoms: C_14  and  C_15
REMARK    8  A    between atoms: C_15  and  N_16
REMARK    9  A    between atoms: C_17  and  C_19
REMARK   10  A    between atoms: N_24  and  C_25
REMARK   11  A    between atoms: C_27  and  O_28
REMARK   12  A    between atoms: O_28  and  C_29
REMARK                            x       y       z     vdW  Elec       q    Type
REMARK                         _______ _______ _______ _____ _____    ______ ____
ROOT
ATOM      1  C   UNL     1       2.172   6.975  19.352  0.00  0.00    +0.000 A 
ATOM      2  N   UNL     1       2.630   7.113  18.131  0.00  0.00    +0.000 NA
ATOM      3  N   UNL     1       2.334   8.392  17.720  0.00  0.00    +0.000 NA
ATOM      4  C   UNL     1       1.702   9.012  18.701  0.00  0.00    +0.000 A 
ATOM      5  N   UNL     1       1.578   8.141  19.760  0.00  0.00    +0.000 N 
ATOM      6  C   UNL     1       0.975   8.378  21.047  0.00  0.00    +0.000 C 
ENDROOT
BRANCH   1   7
ATOM      7  S   UNL     1       2.275   5.577  20.356  0.00  0.00    +0.000 S 
BRANCH   7   8
ATOM      8  C   UNL     1       3.935   4.949  19.962  0.00  0.00    +0.000 C 
BRANCH   8   9
ATOM      9  C   UNL     1       3.922   4.189  18.640  0.00  0.00    +0.000 C 
ATOM     10  O   UNL     1       3.054   3.373  18.326  0.00  0.00    +0.000 OA
BRANCH   9  14
ATOM     11  C   UNL     1       6.894   5.052  15.639  0.00  0.00    +0.000 A 
ATOM     12  C   UNL     1       5.907   4.079  15.430  0.00  0.00    +0.000 A 
ATOM     13  C   UNL     1       4.961   3.800  16.415  0.00  0.00    +0.000 A 
ATOM     14  C   UNL     1       5.010   4.455  17.650  0.00  0.00    +0.000 A 
ATOM     15  C   UNL     1       6.055   5.349  17.896  0.00  0.00    +0.000 A 
ATOM     16  C   UNL     1       7.007   5.649  16.904  0.00  0.00    +0.000 A 
BRANCH  11  18
ATOM     17  C   UNL     1       7.347   5.018  13.319  0.00  0.00    +0.000 C 
ATOM     18  O   UNL     1       7.755   5.403  14.633  0.00  0.00    +0.000 OA
ENDBRANCH  11  18
BRANCH  16  19
ATOM     19  O   UNL     1       7.929   6.557  17.352  0.00  0.00    +0.000 OA
ATOM     20  C   UNL     1       7.586   7.934  17.394  0.00  0.00    +0.000 C 
ENDBRANCH  16  19
ENDBRANCH   9  14
ENDBRANCH   8   9
ENDBRANCH   7   8
ENDBRANCH   1   7
BRANCH   4  21
ATOM     21  C   UNL     1       1.236  10.425  18.674  0.00  0.00    +0.000 C 
BRANCH  21  22
ATOM     22  N   UNL     1      -0.121  10.489  18.192  0.00  0.00    +0.000 N 
ATOM     23  C   UNL     1      -0.873  11.639  18.206  0.00  0.00    +0.000 C 
ATOM     24  O   UNL     1      -0.448  12.691  18.672  0.00  0.00    +0.000 OA
ATOM     25  H   UNL     1      -0.560   9.642  17.851  0.00  0.00    +0.000 HD
BRANCH  23  26
ATOM     26  C   UNL     1      -2.196  11.506  17.632  0.00  0.00    +0.000 A 
ATOM     27  C   UNL     1      -2.601  11.093  16.377  0.00  0.00    +0.000 A 
ATOM     28  C   UNL     1      -4.018  11.147  16.372  0.00  0.00    +0.000 A 
ATOM     29  C   UNL     1      -4.390  11.579  17.622  0.00  0.00    +0.000 A 
ATOM     30  O   UNL     1      -3.298  11.804  18.394  0.00  0.00    +0.000 OA
ENDBRANCH  23  26
ENDBRANCH  21  22
ENDBRANCH   4  21
TORSDOF 9
ENDMDL
MODEL 6
REMARK VINA RESULT:      -7.0      1.278      1.763
REMARK  Name = 
REMARK  12 active torsions:
REMARK  status: ('A' for Active; 'I' for Inactive)
REMARK    1  A    between atoms: C_1  and  O_2
REMARK    2  A    between atoms: O_2  and  C_3
REMARK    3  A    between atoms: C_6  and  C_7
REMARK    4  A    between atoms: C_7  and  C_9
REMARK    5  A    between atoms: C_9  and  S_10
REMARK    6  A    between atoms: S_10  and  C_11
REMARK    7  A    between atoms: C_14  and  C_15
REMARK    8  A    between atoms: C_15  and  N_16
REMARK    9  A    between atoms: C_17  and  C_19
REMARK   10  A    between atoms: N_24  and  C_25
REMARK   11  A    between atoms: C_27  and  O_28
REMARK   12  A    between atoms: O_28  and  C_29
REMARK                            x       y       z     vdW  Elec       q    Type
REMARK                         _______ _______ _______ _____ _____    ______ ____
ROOT
ATOM      1  C   UNL     1       2.086   7.248  19.915  0.00  0.00    +0.000 A 
ATOM      2  N   UNL     1       1.276   7.581  20.890  0.00  0.00    +0.000 NA
ATOM      3  N   UNL     1       0.795   8.841  20.616  0.00  0.00    +0.000 NA
ATOM      4  C   UNL     1       1.320   9.250  19.474  0.00  0.00    +0.000 A 
ATOM      5  N   UNL     1       2.150   8.262  18.995  0.00  0.00    +0.000 N 
ATOM      6  C   UNL     1       2.924   8.253  17.780  0.00  0.00    +0.000 C 
ENDROOT
BRANCH   1   7
ATOM      7  S   UNL     1       2.960   5.772  19.742  0.00  0.00    +0.000 S 
BRANCH   7   8
ATOM      8  C   UNL     1       2.510   5.259  18.057  0.00  0.00    +0.000 C 
BRANCH   8   9
ATOM      9  C   UNL     1       3.409   4.122  17.583  0.00  0.00    +0.000 C 
ATOM     10  O   UNL     1       3.172   2.931  17.787  0.00  0.00    +0.000 OA
BRANCH   9  14
ATOM     11  C   UNL     1       6.819   5.154  15.156  0.00  0.00    +0.000 A 
ATOM     12  C   UNL     1       6.017   4.044  14.854  0.00  0.00    +0.000 A 
ATOM     13  C   UNL     1       4.926   3.713  15.656  0.00  0.00    +0.000 A 
ATOM     14  C   UNL     1       4.640   4.459  16.805  0.00  0.00    +0.000 A 
ATOM     15  C   UNL     1       5.498   5.501  17.162  0.00  0.00    +0.000 A 
ATOM     16  C   UNL     1       6.595   5.853  16.352  0.00  0.00    +0.000 A 
BRANCH  11  18
ATOM     17  C   UNL     1       7.730   5.033  12.978  0.00  0.00    +0.000 C 
ATOM     18  O   UNL     1       7.823   5.542  14.310  0.00  0.00    +0.000 OA
ENDBRANCH  11  18
BRANCH  16  19
ATOM     19  O   UNL     1       7.291   6.907  16.880  0.00  0.00    +0.000 OA
ATOM     20  C   UNL     1       7.735   6.842  18.227  0.00  0.00    +0.000 C 
ENDBRANCH  16  19
ENDBRANCH   9  14
ENDBRANCH   8   9
ENDBRANCH   7   8
ENDBRANCH   1   7
BRANCH   4  21
ATOM     21  C   UNL     1       1.031  10.547  18.803  0.00  0.00    +0.000 C 
BRANCH  21  22
ATOM     22  N   UNL     1      -0.199  10.453  18.057  0.00  0.00    +0.000 N 
ATOM     23  C   UNL     1      -1.233  11.349  18.191  0.00  0.00    +0.000 C 
ATOM     24  O   UNL     1      -1.193  12.277  18.993  0.00  0.00    +0.000 OA
ATOM     25  H   UNL     1      -0.328   9.675  17.422  0.00  0.00    +0.000 HD
BRANCH  23  26
ATOM     26  C   UNL     1      -2.362  11.108  17.317  0.00  0.00    +0.000 A 
ATOM     27  C   UNL     1      -3.679  11.516  17.406  0.00  0.00    +0.000 A 
ATOM     28  C   UNL     1      -4.340  10.999  16.263  0.00  0.00    +0.000 A 
ATOM     29  C   UNL     1      -3.388  10.318  15.544  0.00  0.00    +0.000 A 
ATOM     30  O   UNL     1      -2.187  10.372  16.172  0.00  0.00    +0.000 OA
ENDBRANCH  23  26
ENDBRANCH  21  22
ENDBRANCH   4  21
TORSDOF 9
ENDMDL
MODEL 7
REMARK VINA RESULT:      -7.0      3.905      8.332
REMARK  Name = 
REMARK  12 active torsions:
REMARK  status: ('A' for Active; 'I' for Inactive)
REMARK    1  A    between atoms: C_1  and  O_2
REMARK    2  A    between atoms: O_2  and  C_3
REMARK    3  A    between atoms: C_6  and  C_7
REMARK    4  A    between atoms: C_7  and  C_9
REMARK    5  A    between atoms: C_9  and  S_10
REMARK    6  A    between atoms: S_10  and  C_11
REMARK    7  A    between atoms: C_14  and  C_15
REMARK    8  A    between atoms: C_15  and  N_16
REMARK    9  A    between atoms: C_17  and  C_19
REMARK   10  A    between atoms: N_24  and  C_25
REMARK   11  A    between atoms: C_27  and  O_28
REMARK   12  A    between atoms: O_28  and  C_29
REMARK                            x       y       z     vdW  Elec       q    Type
REMARK                         _______ _______ _______ _____ _____    ______ ____
ROOT
ATOM      1  C   UNL     1       6.309   5.254  18.416  0.00  0.00    +0.000 A 
ATOM      2  N   UNL     1       7.293   5.368  19.275  0.00  0.00    +0.000 NA
ATOM      3  N   UNL     1       7.970   6.527  18.976  0.00  0.00    +0.000 NA
ATOM      4  C   UNL     1       7.383   7.101  17.940  0.00  0.00    +0.000 A 
ATOM      5  N   UNL     1       6.319   6.319  17.553  0.00  0.00    +0.000 N 
ATOM      6  C   UNL     1       5.382   6.549  16.483  0.00  0.00    +0.000 C 
ENDROOT
BRANCH   1   7
ATOM      7  S   UNL     1       5.136   3.993  18.331  0.00  0.00    +0.000 S 
BRANCH   7   8
ATOM      8  C   UNL     1       4.109   4.332  19.793  0.00  0.00    +0.000 C 
BRANCH   8   9
ATOM      9  C   UNL     1       2.705   4.755  19.376  0.00  0.00    +0.000 C 
ATOM     10  O   UNL     1       1.824   3.966  19.032  0.00  0.00    +0.000 OA
BRANCH   9  14
ATOM     11  C   UNL     1       1.523   8.901  19.308  0.00  0.00    +0.000 A 
ATOM     12  C   UNL     1       2.063   8.277  18.175  0.00  0.00    +0.000 A 
ATOM     13  C   UNL     1       2.454   6.940  18.215  0.00  0.00    +0.000 A 
ATOM     14  C   UNL     1       2.357   6.209  19.404  0.00  0.00    +0.000 A 
ATOM     15  C   UNL     1       1.917   6.859  20.559  0.00  0.00    +0.000 A 
ATOM     16  C   UNL     1       1.505   8.205  20.527  0.00  0.00    +0.000 A 
BRANCH  11  18
ATOM     17  C   UNL     1      -0.195  10.328  18.532  0.00  0.00    +0.000 C 
ATOM     18  O   UNL     1       1.038  10.180  19.239  0.00  0.00    +0.000 OA
ENDBRANCH  11  18
BRANCH  16  19
ATOM     19  O   UNL     1       1.099   8.635  21.762  0.00  0.00    +0.000 OA
ATOM     20  C   UNL     1      -0.289   8.774  22.028  0.00  0.00    +0.000 C 
ENDBRANCH  16  19
ENDBRANCH   9  14
ENDBRANCH   8   9
ENDBRANCH   7   8
ENDBRANCH   1   7
BRANCH   4  21
ATOM     21  C   UNL     1       7.786   8.394  17.323  0.00  0.00    +0.000 C 
BRANCH  21  22
ATOM     22  N   UNL     1       8.605   9.145  18.243  0.00  0.00    +0.000 N 
ATOM     23  C   UNL     1       8.679  10.518  18.239  0.00  0.00    +0.000 C 
ATOM     24  O   UNL     1       8.075  11.202  17.419  0.00  0.00    +0.000 OA
ATOM     25  H   UNL     1       9.181   8.643  18.908  0.00  0.00    +0.000 HD
BRANCH  23  26
ATOM     26  C   UNL     1       9.519  11.083  19.274  0.00  0.00    +0.000 A 
ATOM     27  C   UNL     1      10.856  11.434  19.263  0.00  0.00    +0.000 A 
ATOM     28  C   UNL     1      11.148  11.952  20.551  0.00  0.00    +0.000 A 
ATOM     29  C   UNL     1       9.974  11.895  21.262  0.00  0.00    +0.000 A 
ATOM     30  O   UNL     1       8.981  11.368  20.504  0.00  0.00    +0.000 OA
ENDBRANCH  23  26
ENDBRANCH  21  22
ENDBRANCH   4  21
TORSDOF 9
ENDMDL
MODEL 8
REMARK VINA RESULT:      -7.0      2.115      9.777
REMARK  Name = 
REMARK  12 active torsions:
REMARK  status: ('A' for Active; 'I' for Inactive)
REMARK    1  A    between atoms: C_1  and  O_2
REMARK    2  A    between atoms: O_2  and  C_3
REMARK    3  A    between atoms: C_6  and  C_7
REMARK    4  A    between atoms: C_7  and  C_9
REMARK    5  A    between atoms: C_9  and  S_10
REMARK    6  A    between atoms: S_10  and  C_11
REMARK    7  A    between atoms: C_14  and  C_15
REMARK    8  A    between atoms: C_15  and  N_16
REMARK    9  A    between atoms: C_17  and  C_19
REMARK   10  A    between atoms: N_24  and  C_25
REMARK   11  A    between atoms: C_27  and  O_28
REMARK   12  A    between atoms: O_28  and  C_29
REMARK                            x       y       z     vdW  Elec       q    Type
REMARK                         _______ _______ _______ _____ _____    ______ ____
ROOT
ATOM      1  C   UNL     1       2.882   7.303  18.627  0.00  0.00    +0.000 A 
ATOM      2  N   UNL     1       3.412   7.816  17.544  0.00  0.00    +0.000 NA
ATOM      3  N   UNL     1       4.266   6.875  17.015  0.00  0.00    +0.000 NA
ATOM      4  C   UNL     1       4.237   5.803  17.787  0.00  0.00    +0.000 A 
ATOM      5  N   UNL     1       3.366   6.036  18.827  0.00  0.00    +0.000 N 
ATOM      6  C   UNL     1       3.002   5.152  19.905  0.00  0.00    +0.000 C 
ENDROOT
BRANCH   1   7
ATOM      7  S   UNL     1       1.735   8.042  19.682  0.00  0.00    +0.000 S 
BRANCH   7   8
ATOM      8  C   UNL     1       1.342   9.580  18.795  0.00  0.00    +0.000 C 
BRANCH   8   9
ATOM      9  C   UNL     1       0.415  10.459  19.629  0.00  0.00    +0.000 C 
ATOM     10  O   UNL     1       0.738  10.971  20.701  0.00  0.00    +0.000 OA
BRANCH   9  14
ATOM     11  C   UNL     1      -3.478  11.490  18.090  0.00  0.00    +0.000 A 
ATOM     12  C   UNL     1      -2.976  12.077  19.260  0.00  0.00    +0.000 A 
ATOM     13  C   UNL     1      -1.722  11.724  19.755  0.00  0.00    +0.000 A 
ATOM     14  C   UNL     1      -0.960  10.740  19.114  0.00  0.00    +0.000 A 
ATOM     15  C   UNL     1      -1.503  10.081  18.009  0.00  0.00    +0.000 A 
ATOM     16  C   UNL     1      -2.762  10.440  17.493  0.00  0.00    +0.000 A 
BRANCH  11  18
ATOM     17  C   UNL     1      -5.728  12.103  18.476  0.00  0.00    +0.000 C 
ATOM     18  O   UNL     1      -4.660  11.915  17.545  0.00  0.00    +0.000 OA
ENDBRANCH  11  18
BRANCH  16  19
ATOM     19  O   UNL     1      -3.093   9.680  16.403  0.00  0.00    +0.000 OA
ATOM     20  C   UNL     1      -2.848  10.188  15.100  0.00  0.00    +0.000 C 
ENDBRANCH  16  19
ENDBRANCH   9  14
ENDBRANCH   8   9
ENDBRANCH   7   8
ENDBRANCH   1   7
BRANCH   4  21
ATOM     21  C   UNL     1       4.992   4.543  17.547  0.00  0.00    +0.000 C 
BRANCH  21  22
ATOM     22  N   UNL     1       5.306   4.415  16.146  0.00  0.00    +0.000 N 
ATOM     23  C   UNL     1       6.575   4.567  15.640  0.00  0.00    +0.000 C 
ATOM     24  O   UNL     1       7.530   4.863  16.351  0.00  0.00    +0.000 OA
ATOM     25  H   UNL     1       4.555   4.235  15.490  0.00  0.00    +0.000 HD
BRANCH  23  26
ATOM     26  C   UNL     1       6.689   4.351  14.213  0.00  0.00    +0.000 A 
ATOM     27  C   UNL     1       7.523   4.928  13.273  0.00  0.00    +0.000 A 
ATOM     28  C   UNL     1       7.207   4.326  12.029  0.00  0.00    +0.000 A 
ATOM     29  C   UNL     1       6.210   3.417  12.285  0.00  0.00    +0.000 A 
ATOM     30  O   UNL     1       5.884   3.423  13.601  0.00  0.00    +0.000 OA
ENDBRANCH  23  26
ENDBRANCH  21  22
ENDBRANCH   4  21
TORSDOF 9
ENDMDL
MODEL 9
REMARK VINA RESULT:      -6.9      2.460      3.162
REMARK  Name = 
REMARK  12 active torsions:
REMARK  status: ('A' for Active; 'I' for Inactive)
REMARK    1  A    between atoms: C_1  and  O_2
REMARK    2  A    between atoms: O_2  and  C_3
REMARK    3  A    between atoms: C_6  and  C_7
REMARK    4  A    between atoms: C_7  and  C_9
REMARK    5  A    between atoms: C_9  and  S_10
REMARK    6  A    between atoms: S_10  and  C_11
REMARK    7  A    between atoms: C_14  and  C_15
REMARK    8  A    between atoms: C_15  and  N_16
REMARK    9  A    between atoms: C_17  and  C_19
REMARK   10  A    between atoms: N_24  and  C_25
REMARK   11  A    between atoms: C_27  and  O_28
REMARK   12  A    between atoms: O_28  and  C_29
REMARK                            x       y       z     vdW  Elec       q    Type
REMARK                         _______ _______ _______ _____ _____    ______ ____
ROOT
ATOM      1  C   UNL     1       1.964   7.150  19.575  0.00  0.00    +0.000 A 
ATOM      2  N   UNL     1       1.519   7.172  20.808  0.00  0.00    +0.000 NA
ATOM      3  N   UNL     1       1.091   8.454  21.069  0.00  0.00    +0.000 NA
ATOM      4  C   UNL     1       1.283   9.188  19.987  0.00  0.00    +0.000 A 
ATOM      5  N   UNL     1       1.839   8.392  19.011  0.00  0.00    +0.000 N 
ATOM      6  C   UNL     1       2.206   8.752  17.666  0.00  0.00    +0.000 C 
ENDROOT
BRANCH   1   7
ATOM      7  S   UNL     1       2.611   5.798  18.722  0.00  0.00    +0.000 S 
BRANCH   7   8
ATOM      8  C   UNL     1       3.918   5.228  19.850  0.00  0.00    +0.000 C 
BRANCH   8   9
ATOM      9  C   UNL     1       4.754   4.134  19.194  0.00  0.00    +0.000 C 
ATOM     10  O   UNL     1       4.900   3.006  19.667  0.00  0.00    +0.000 OA
BRANCH   9  14
ATOM     11  C   UNL     1       6.470   5.045  15.346  0.00  0.00    +0.000 A 
ATOM     12  C   UNL     1       5.601   3.958  15.519  0.00  0.00    +0.000 A 
ATOM     13  C   UNL     1       5.065   3.666  16.772  0.00  0.00    +0.000 A 
ATOM     14  C   UNL     1       5.423   4.428  17.890  0.00  0.00    +0.000 A 
ATOM     15  C   UNL     1       6.367   5.445  17.737  0.00  0.00    +0.000 A 
ATOM     16  C   UNL     1       6.904   5.759  16.474  0.00  0.00    +0.000 A 
BRANCH  11  18
ATOM     17  C   UNL     1       6.968   4.331  13.148  0.00  0.00    +0.000 C 
ATOM     18  O   UNL     1       6.910   5.398  14.098  0.00  0.00    +0.000 OA
ENDBRANCH  11  18
BRANCH  16  19
ATOM     19  O   UNL     1       7.796   6.794  16.550  0.00  0.00    +0.000 OA
ATOM     20  C   UNL     1       7.627   7.786  17.553  0.00  0.00    +0.000 C 
ENDBRANCH  16  19
ENDBRANCH   9  14
ENDBRANCH   8   9
ENDBRANCH   7   8
ENDBRANCH   1   7
BRANCH   4  21
ATOM     21  C   UNL     1       0.922  10.625  19.841  0.00  0.00    +0.000 C 
BRANCH  21  22
ATOM     22  N   UNL     1      -0.090  10.980  20.806  0.00  0.00    +0.000 N 
ATOM     23  C   UNL     1      -1.038  11.949  20.582  0.00  0.00    +0.000 C 
ATOM     24  O   UNL     1      -1.063  12.612  19.550  0.00  0.00    +0.000 OA
ATOM     25  H   UNL     1      -0.090  10.518  21.707  0.00  0.00    +0.000 HD
BRANCH  23  26
ATOM     26  C   UNL     1      -1.995  12.121  21.656  0.00  0.00    +0.000 A 
ATOM     27  C   UNL     1      -1.901  11.842  23.006  0.00  0.00    +0.000 A 
ATOM     28  C   UNL     1      -3.137  12.225  23.584  0.00  0.00    +0.000 A 
ATOM     29  C   UNL     1      -3.903  12.722  22.558  0.00  0.00    +0.000 A 
ATOM     30  O   UNL     1      -3.227  12.662  21.384  0.00  0.00    +0.000 OA
ENDBRANCH  23  26
ENDBRANCH  21  22
ENDBRANCH   4  21
TORSDOF 9
ENDMDL
