MODEL 1
REMARK VINA RESULT:      -9.6      0.000      0.000
REMARK  Name = 
REMARK  7 active torsions:
REMARK  status: ('A' for Active; 'I' for Inactive)
REMARK    1  A    between atoms: C_4  and  O_5
REMARK    2  A    between atoms: N_8  and  C_9
REMARK    3  A    between atoms: C_13  and  C_14
REMARK    4  A    between atoms: N_16  and  C_17
REMARK    5  A    between atoms: C_17  and  C_18
REMARK    6  A    between atoms: C_20  and  C_21
REMARK    7  A    between atoms: C_26  and  C_27
REMARK                            x       y       z     vdW  Elec       q    Type
REMARK                         _______ _______ _______ _____ _____    ______ ____
ROOT
ATOM      1  C   UNL     1      -0.709  10.965  22.392  0.00  0.00    +0.000 A 
ATOM      2  C   UNL     1      -0.721   9.802  23.179  0.00  0.00    +0.000 A 
ATOM      3  C   UNL     1      -0.220   8.607  22.669  0.00  0.00    +0.000 A 
ATOM      4  C   UNL     1       0.310   8.575  21.382  0.00  0.00    +0.000 A 
ATOM      5  C   UNL     1       0.360   9.735  20.587  0.00  0.00    +0.000 A 
ATOM      6  C   UNL     1      -0.159  10.936  21.098  0.00  0.00    +0.000 A 
ENDROOT
BRANCH   1  13
ATOM      7  N   UNL     1      -4.581  16.197  24.941  0.00  0.00    +0.000 N 
ATOM      8  C   UNL     1      -3.509  15.443  24.507  0.00  0.00    +0.000 A 
ATOM      9  N   UNL     1      -2.303  16.064  24.610  0.00  0.00    +0.000 NA
ATOM     10  C   UNL     1      -1.201  15.404  24.212  0.00  0.00    +0.000 A 
ATOM     11  C   UNL     1      -1.352  14.110  23.720  0.00  0.00    +0.000 A 
ATOM     12  N   UNL     1      -0.478  13.205  23.256  0.00  0.00    +0.000 NA
ATOM     13  N   UNL     1      -1.273  12.161  22.919  0.00  0.00    +0.000 N 
ATOM     14  N   UNL     1      -2.606  12.309  23.132  0.00  0.00    +0.000 NA
ATOM     15  C   UNL     1      -2.664  13.540  23.650  0.00  0.00    +0.000 A 
ATOM     16  N   UNL     1      -3.778  14.196  24.058  0.00  0.00    +0.000 NA
ATOM     17  H   UNL     1      -4.278  16.930  25.569  0.00  0.00    +0.000 HD
ATOM     18  H   UNL     1      -5.354  15.618  25.235  0.00  0.00    +0.000 HD
BRANCH  10  19
ATOM     19  O   UNL     1      -0.018  16.080  24.304  0.00  0.00    +0.000 OA
ATOM     20  H   UNL     1       0.011  16.300  25.249  0.00  0.00    +0.000 HD
ENDBRANCH  10  19
ENDBRANCH   1  13
BRANCH   5  21
ATOM     21  C   UNL     1       0.997   9.599  19.239  0.00  0.00    +0.000 C 
ATOM     22  O   UNL     1       0.686  10.375  18.339  0.00  0.00    +0.000 OA
ATOM     23  N   UNL     1       1.911   8.585  19.045  0.00  0.00    +0.000 N 
ATOM     24  H   UNL     1       2.213   7.994  19.802  0.00  0.00    +0.000 HD
BRANCH  23  25
ATOM     25  C   UNL     1       2.537   8.385  17.758  0.00  0.00    +0.000 C 
BRANCH  25  26
ATOM     26  C   UNL     1       3.172   7.020  17.651  0.00  0.00    +0.000 A 
ATOM     27  C   UNL     1       2.435   5.865  17.952  0.00  0.00    +0.000 A 
ATOM     28  C   UNL     1       3.012   4.592  17.846  0.00  0.00    +0.000 A 
ATOM     29  C   UNL     1       4.351   4.482  17.443  0.00  0.00    +0.000 A 
ATOM     30  C   UNL     1       5.116   5.623  17.149  0.00  0.00    +0.000 A 
ATOM     31  C   UNL     1       4.514   6.887  17.265  0.00  0.00    +0.000 A 
BRANCH  28  32
ATOM     32  C   UNL     1       2.213   3.346  18.152  0.00  0.00    +0.000 C 
ATOM     33  F   UNL     1       2.419   2.335  17.262  0.00  0.00    +0.000 F 
ATOM     34  F   UNL     1       2.506   2.830  19.377  0.00  0.00    +0.000 F 
ATOM     35  F   UNL     1       0.871   3.576  18.152  0.00  0.00    +0.000 F 
ENDBRANCH  28  32
BRANCH  30  36
ATOM     36  C   UNL     1       6.555   5.506  16.706  0.00  0.00    +0.000 C 
ATOM     37  F   UNL     1       7.257   6.668  16.841  0.00  0.00    +0.000 F 
ATOM     38  F   UNL     1       7.247   4.575  17.420  0.00  0.00    +0.000 F 
ATOM     39  F   UNL     1       6.678   5.150  15.398  0.00  0.00    +0.000 F 
ENDBRANCH  30  36
ENDBRANCH  25  26
ENDBRANCH  23  25
ENDBRANCH   5  21
TORSDOF 7
ENDMDL
MODEL 2
REMARK VINA RESULT:      -9.6      0.205      2.977
REMARK  Name = 
REMARK  7 active torsions:
REMARK  status: ('A' for Active; 'I' for Inactive)
REMARK    1  A    between atoms: C_4  and  O_5
REMARK    2  A    between atoms: N_8  and  C_9
REMARK    3  A    between atoms: C_13  and  C_14
REMARK    4  A    between atoms: N_16  and  C_17
REMARK    5  A    between atoms: C_17  and  C_18
REMARK    6  A    between atoms: C_20  and  C_21
REMARK    7  A    between atoms: C_26  and  C_27
REMARK                            x       y       z     vdW  Elec       q    Type
REMARK                         _______ _______ _______ _____ _____    ______ ____
ROOT
ATOM      1  C   UNL     1      -0.630  10.984  22.345  0.00  0.00    +0.000 A 
ATOM      2  C   UNL     1      -0.721   9.791  23.080  0.00  0.00    +0.000 A 
ATOM      3  C   UNL     1      -0.203   8.608  22.560  0.00  0.00    +0.000 A 
ATOM      4  C   UNL     1       0.425   8.617  21.317  0.00  0.00    +0.000 A 
ATOM      5  C   UNL     1       0.556   9.807  20.578  0.00  0.00    +0.000 A 
ATOM      6  C   UNL     1       0.018  10.997  21.096  0.00  0.00    +0.000 A 
ENDROOT
BRANCH   1  13
ATOM      7  N   UNL     1      -4.581  16.135  24.938  0.00  0.00    +0.000 N 
ATOM      8  C   UNL     1      -3.499  15.404  24.489  0.00  0.00    +0.000 A 
ATOM      9  N   UNL     1      -2.306  16.054  24.569  0.00  0.00    +0.000 NA
ATOM     10  C   UNL     1      -1.196  15.418  24.155  0.00  0.00    +0.000 A 
ATOM     11  C   UNL     1      -1.325  14.119  23.671  0.00  0.00    +0.000 A 
ATOM     12  N   UNL     1      -0.437  13.233  23.196  0.00  0.00    +0.000 NA
ATOM     13  N   UNL     1      -1.213  12.169  22.877  0.00  0.00    +0.000 N 
ATOM     14  N   UNL     1      -2.545  12.286  23.111  0.00  0.00    +0.000 NA
ATOM     15  C   UNL     1      -2.623  13.517  23.626  0.00  0.00    +0.000 A 
ATOM     16  N   UNL     1      -3.745  14.149  24.050  0.00  0.00    +0.000 NA
ATOM     17  H   UNL     1      -4.285  16.877  25.558  0.00  0.00    +0.000 HD
ATOM     18  H   UNL     1      -5.335  15.538  25.248  0.00  0.00    +0.000 HD
BRANCH  10  19
ATOM     19  O   UNL     1      -0.028  16.123  24.224  0.00  0.00    +0.000 OA
ATOM     20  H   UNL     1       0.599  15.438  24.509  0.00  0.00    +0.000 HD
ENDBRANCH  10  19
ENDBRANCH   1  13
BRANCH   5  21
ATOM     21  C   UNL     1       1.292   9.713  19.277  0.00  0.00    +0.000 C 
ATOM     22  O   UNL     1       1.306  10.677  18.515  0.00  0.00    +0.000 OA
ATOM     23  N   UNL     1       1.926   8.528  18.968  0.00  0.00    +0.000 N 
ATOM     24  H   UNL     1       1.969   7.765  19.623  0.00  0.00    +0.000 HD
BRANCH  23  25
ATOM     25  C   UNL     1       2.629   8.367  17.716  0.00  0.00    +0.000 C 
BRANCH  25  26
ATOM     26  C   UNL     1       3.235   6.991  17.588  0.00  0.00    +0.000 A 
ATOM     27  C   UNL     1       4.547   6.831  17.115  0.00  0.00    +0.000 A 
ATOM     28  C   UNL     1       5.123   5.558  17.000  0.00  0.00    +0.000 A 
ATOM     29  C   UNL     1       4.365   4.432  17.356  0.00  0.00    +0.000 A 
ATOM     30  C   UNL     1       3.045   4.563  17.819  0.00  0.00    +0.000 A 
ATOM     31  C   UNL     1       2.491   5.850  17.922  0.00  0.00    +0.000 A 
BRANCH  28  32
ATOM     32  C   UNL     1       6.542   5.386  16.509  0.00  0.00    +0.000 C 
ATOM     33  F   UNL     1       7.147   4.258  16.977  0.00  0.00    +0.000 F 
ATOM     34  F   UNL     1       6.615   5.312  15.152  0.00  0.00    +0.000 F 
ATOM     35  F   UNL     1       7.348   6.421  16.875  0.00  0.00    +0.000 F 
ENDBRANCH  28  32
BRANCH  30  36
ATOM     36  C   UNL     1       2.232   3.354  18.212  0.00  0.00    +0.000 C 
ATOM     37  F   UNL     1       2.475   2.264  17.428  0.00  0.00    +0.000 F 
ATOM     38  F   UNL     1       2.480   2.950  19.489  0.00  0.00    +0.000 F 
ATOM     39  F   UNL     1       0.890   3.571  18.136  0.00  0.00    +0.000 F 
ENDBRANCH  30  36
ENDBRANCH  25  26
ENDBRANCH  23  25
ENDBRANCH   5  21
TORSDOF 7
ENDMDL
MODEL 3
REMARK VINA RESULT:      -9.5      1.727      3.398
REMARK  Name = 
REMARK  7 active torsions:
REMARK  status: ('A' for Active; 'I' for Inactive)
REMARK    1  A    between atoms: C_4  and  O_5
REMARK    2  A    between atoms: N_8  and  C_9
REMARK    3  A    between atoms: C_13  and  C_14
REMARK    4  A    between atoms: N_16  and  C_17
REMARK    5  A    between atoms: C_17  and  C_18
REMARK    6  A    between atoms: C_20  and  C_21
REMARK    7  A    between atoms: C_26  and  C_27
REMARK                            x       y       z     vdW  Elec       q    Type
REMARK                         _______ _______ _______ _____ _____    ______ ____
ROOT
ATOM      1  C   UNL     1      -1.059  10.910  22.080  0.00  0.00    +0.000 A 
ATOM      2  C   UNL     1      -0.589  10.160  23.170  0.00  0.00    +0.000 A 
ATOM      3  C   UNL     1       0.397   9.197  22.983  0.00  0.00    +0.000 A 
ATOM      4  C   UNL     1       0.930   8.993  21.712  0.00  0.00    +0.000 A 
ATOM      5  C   UNL     1       0.497   9.754  20.612  0.00  0.00    +0.000 A 
ATOM      6  C   UNL     1      -0.510  10.715  20.800  0.00  0.00    +0.000 A 
ENDROOT
BRANCH   1  13
ATOM      7  N   UNL     1      -6.373  14.923  24.208  0.00  0.00    +0.000 N 
ATOM      8  C   UNL     1      -5.328  14.406  23.469  0.00  0.00    +0.000 A 
ATOM      9  N   UNL     1      -5.049  15.091  22.327  0.00  0.00    +0.000 NA
ATOM     10  C   UNL     1      -4.045  14.660  21.545  0.00  0.00    +0.000 A 
ATOM     11  C   UNL     1      -3.335  13.533  21.949  0.00  0.00    +0.000 A 
ATOM     12  N   UNL     1      -2.303  12.866  21.410  0.00  0.00    +0.000 NA
ATOM     13  N   UNL     1      -2.104  11.854  22.290  0.00  0.00    +0.000 N 
ATOM     14  N   UNL     1      -2.924  11.809  23.370  0.00  0.00    +0.000 NA
ATOM     15  C   UNL     1      -3.702  12.877  23.167  0.00  0.00    +0.000 A 
ATOM     16  N   UNL     1      -4.707  13.312  23.966  0.00  0.00    +0.000 NA
ATOM     17  H   UNL     1      -6.534  15.894  23.977  0.00  0.00    +0.000 HD
ATOM     18  H   UNL     1      -6.299  14.680  25.185  0.00  0.00    +0.000 HD
BRANCH  10  19
ATOM     19  O   UNL     1      -3.824  15.361  20.393  0.00  0.00    +0.000 OA
ATOM     20  H   UNL     1      -2.869  15.243  20.270  0.00  0.00    +0.000 HD
ENDBRANCH  10  19
ENDBRANCH   1  13
BRANCH   5  21
ATOM     21  C   UNL     1       1.173   9.487  19.302  0.00  0.00    +0.000 C 
ATOM     22  O   UNL     1       0.991  10.252  18.358  0.00  0.00    +0.000 OA
ATOM     23  N   UNL     1       1.975   8.371  19.195  0.00  0.00    +0.000 N 
ATOM     24  H   UNL     1       2.175   7.786  19.989  0.00  0.00    +0.000 HD
BRANCH  23  25
ATOM     25  C   UNL     1       2.632   8.046  17.949  0.00  0.00    +0.000 C 
BRANCH  25  26
ATOM     26  C   UNL     1       3.058   6.599  17.903  0.00  0.00    +0.000 A 
ATOM     27  C   UNL     1       4.213   6.218  17.203  0.00  0.00    +0.000 A 
ATOM     28  C   UNL     1       4.623   4.878  17.161  0.00  0.00    +0.000 A 
ATOM     29  C   UNL     1       3.855   3.909  17.824  0.00  0.00    +0.000 A 
ATOM     30  C   UNL     1       2.687   4.261  18.521  0.00  0.00    +0.000 A 
ATOM     31  C   UNL     1       2.297   5.611  18.545  0.00  0.00    +0.000 A 
BRANCH  28  32
ATOM     32  C   UNL     1       5.877   4.470  16.423  0.00  0.00    +0.000 C 
ATOM     33  F   UNL     1       5.744   3.305  15.727  0.00  0.00    +0.000 F 
ATOM     34  F   UNL     1       6.272   5.403  15.515  0.00  0.00    +0.000 F 
ATOM     35  F   UNL     1       6.937   4.286  17.259  0.00  0.00    +0.000 F 
ENDBRANCH  28  32
BRANCH  30  36
ATOM     36  C   UNL     1       1.865   3.221  19.242  0.00  0.00    +0.000 C 
ATOM     37  F   UNL     1       1.589   2.126  18.476  0.00  0.00    +0.000 F 
ATOM     38  F   UNL     1       2.489   2.742  20.354  0.00  0.00    +0.000 F 
ATOM     39  F   UNL     1       0.659   3.695  19.658  0.00  0.00    +0.000 F 
ENDBRANCH  30  36
ENDBRANCH  25  26
ENDBRANCH  23  25
ENDBRANCH   5  21
TORSDOF 7
ENDMDL
MODEL 4
REMARK VINA RESULT:      -9.5      1.783      1.972
REMARK  Name = 
REMARK  7 active torsions:
REMARK  status: ('A' for Active; 'I' for Inactive)
REMARK    1  A    between atoms: C_4  and  O_5
REMARK    2  A    between atoms: N_8  and  C_9
REMARK    3  A    between atoms: C_13  and  C_14
REMARK    4  A    between atoms: N_16  and  C_17
REMARK    5  A    between atoms: C_17  and  C_18
REMARK    6  A    between atoms: C_20  and  C_21
REMARK    7  A    between atoms: C_26  and  C_27
REMARK                            x       y       z     vdW  Elec       q    Type
REMARK                         _______ _______ _______ _____ _____    ______ ____
ROOT
ATOM      1  C   UNL     1      -0.728  10.647  22.006  0.00  0.00    +0.000 A 
ATOM      2  C   UNL     1      -0.134   9.952  23.073  0.00  0.00    +0.000 A 
ATOM      3  C   UNL     1       0.876   9.027  22.828  0.00  0.00    +0.000 A 
ATOM      4  C   UNL     1       1.310   8.808  21.522  0.00  0.00    +0.000 A 
ATOM      5  C   UNL     1       0.751   9.516  20.442  0.00  0.00    +0.000 A 
ATOM      6  C   UNL     1      -0.280  10.438  20.690  0.00  0.00    +0.000 A 
ENDROOT
BRANCH   1  13
ATOM      7  N   UNL     1      -5.809  15.447  22.136  0.00  0.00    +0.000 N 
ATOM      8  C   UNL     1      -4.944  14.435  22.503  0.00  0.00    +0.000 A 
ATOM      9  N   UNL     1      -5.130  13.962  23.765  0.00  0.00    +0.000 NA
ATOM     10  C   UNL     1      -4.333  12.974  24.208  0.00  0.00    +0.000 A 
ATOM     11  C   UNL     1      -3.360  12.479  23.345  0.00  0.00    +0.000 A 
ATOM     12  N   UNL     1      -2.430  11.520  23.475  0.00  0.00    +0.000 NA
ATOM     13  N   UNL     1      -1.794  11.551  22.279  0.00  0.00    +0.000 N 
ATOM     14  N   UNL     1      -2.238  12.454  21.369  0.00  0.00    +0.000 NA
ATOM     15  C   UNL     1      -3.239  13.041  22.034  0.00  0.00    +0.000 A 
ATOM     16  N   UNL     1      -4.045  14.031  21.577  0.00  0.00    +0.000 NA
ATOM     17  H   UNL     1      -6.641  15.438  22.711  0.00  0.00    +0.000 HD
ATOM     18  H   UNL     1      -5.932  15.491  21.135  0.00  0.00    +0.000 HD
BRANCH  10  19
ATOM     19  O   UNL     1      -4.537  12.555  25.492  0.00  0.00    +0.000 OA
ATOM     20  H   UNL     1      -4.085  11.696  25.493  0.00  0.00    +0.000 HD
ENDBRANCH  10  19
ENDBRANCH   1  13
BRANCH   5  21
ATOM     21  C   UNL     1       1.326   9.239  19.088  0.00  0.00    +0.000 C 
ATOM     22  O   UNL     1       1.021   9.958  18.140  0.00  0.00    +0.000 OA
ATOM     23  N   UNL     1       2.177   8.163  18.945  0.00  0.00    +0.000 N 
ATOM     24  H   UNL     1       2.476   7.618  19.736  0.00  0.00    +0.000 HD
BRANCH  23  25
ATOM     25  C   UNL     1       2.741   7.829  17.657  0.00  0.00    +0.000 C 
BRANCH  25  26
ATOM     26  C   UNL     1       3.558   6.562  17.716  0.00  0.00    +0.000 A 
ATOM     27  C   UNL     1       2.937   5.321  17.924  0.00  0.00    +0.000 A 
ATOM     28  C   UNL     1       3.686   4.137  17.972  0.00  0.00    +0.000 A 
ATOM     29  C   UNL     1       5.079   4.205  17.819  0.00  0.00    +0.000 A 
ATOM     30  C   UNL     1       5.728   5.436  17.624  0.00  0.00    +0.000 A 
ATOM     31  C   UNL     1       4.954   6.608  17.582  0.00  0.00    +0.000 A 
BRANCH  28  32
ATOM     32  C   UNL     1       3.015   2.799  18.177  0.00  0.00    +0.000 C 
ATOM     33  F   UNL     1       2.180   2.445  17.159  0.00  0.00    +0.000 F 
ATOM     34  F   UNL     1       3.912   1.782  18.293  0.00  0.00    +0.000 F 
ATOM     35  F   UNL     1       2.258   2.764  19.309  0.00  0.00    +0.000 F 
ENDBRANCH  28  32
BRANCH  30  36
ATOM     36  C   UNL     1       7.226   5.509  17.450  0.00  0.00    +0.000 C 
ATOM     37  F   UNL     1       7.903   5.582  18.632  0.00  0.00    +0.000 F 
ATOM     38  F   UNL     1       7.730   4.421  16.805  0.00  0.00    +0.000 F 
ATOM     39  F   UNL     1       7.622   6.594  16.730  0.00  0.00    +0.000 F 
ENDBRANCH  30  36
ENDBRANCH  25  26
ENDBRANCH  23  25
ENDBRANCH   5  21
TORSDOF 7
ENDMDL
MODEL 5
REMARK VINA RESULT:      -9.5      1.729      3.469
REMARK  Name = 
REMARK  7 active torsions:
REMARK  status: ('A' for Active; 'I' for Inactive)
REMARK    1  A    between atoms: C_4  and  O_5
REMARK    2  A    between atoms: N_8  and  C_9
REMARK    3  A    between atoms: C_13  and  C_14
REMARK    4  A    between atoms: N_16  and  C_17
REMARK    5  A    between atoms: C_17  and  C_18
REMARK    6  A    between atoms: C_20  and  C_21
REMARK    7  A    between atoms: C_26  and  C_27
REMARK                            x       y       z     vdW  Elec       q    Type
REMARK                         _______ _______ _______ _____ _____    ______ ____
ROOT
ATOM      1  C   UNL     1      -0.779  10.705  22.053  0.00  0.00    +0.000 A 
ATOM      2  C   UNL     1      -0.195   9.962  23.092  0.00  0.00    +0.000 A 
ATOM      3  C   UNL     1       0.802   9.033  22.813  0.00  0.00    +0.000 A 
ATOM      4  C   UNL     1       1.234   8.857  21.500  0.00  0.00    +0.000 A 
ATOM      5  C   UNL     1       0.685   9.613  20.448  0.00  0.00    +0.000 A 
ATOM      6  C   UNL     1      -0.333  10.538  20.729  0.00  0.00    +0.000 A 
ENDROOT
BRANCH   1  13
ATOM      7  N   UNL     1      -5.671  15.684  22.433  0.00  0.00    +0.000 N 
ATOM      8  C   UNL     1      -4.883  14.588  22.723  0.00  0.00    +0.000 A 
ATOM      9  N   UNL     1      -5.207  13.948  23.878  0.00  0.00    +0.000 NA
ATOM     10  C   UNL     1      -4.493  12.868  24.240  0.00  0.00    +0.000 A 
ATOM     11  C   UNL     1      -3.459  12.454  23.405  0.00  0.00    +0.000 A 
ATOM     12  N   UNL     1      -2.583  11.441  23.475  0.00  0.00    +0.000 NA
ATOM     13  N   UNL     1      -1.833  11.612  22.359  0.00  0.00    +0.000 N 
ATOM     14  N   UNL     1      -2.154  12.658  21.557  0.00  0.00    +0.000 NA
ATOM     15  C   UNL     1      -3.192  13.192  22.208  0.00  0.00    +0.000 A 
ATOM     16  N   UNL     1      -3.913  14.277  21.832  0.00  0.00    +0.000 NA
ATOM     17  H   UNL     1      -6.554  15.635  22.923  0.00  0.00    +0.000 HD
ATOM     18  H   UNL     1      -5.695  15.879  21.442  0.00  0.00    +0.000 HD
BRANCH  10  19
ATOM     19  O   UNL     1      -4.835  12.279  25.424  0.00  0.00    +0.000 OA
ATOM     20  H   UNL     1      -3.981  12.251  25.884  0.00  0.00    +0.000 HD
ENDBRANCH  10  19
ENDBRANCH   1  13
BRANCH   5  21
ATOM     21  C   UNL     1       1.257   9.379  19.084  0.00  0.00    +0.000 C 
ATOM     22  O   UNL     1       0.929  10.112  18.154  0.00  0.00    +0.000 OA
ATOM     23  N   UNL     1       2.132   8.327  18.912  0.00  0.00    +0.000 N 
ATOM     24  H   UNL     1       2.449   7.771  19.689  0.00  0.00    +0.000 HD
BRANCH  23  25
ATOM     25  C   UNL     1       2.695   8.034  17.614  0.00  0.00    +0.000 C 
BRANCH  25  26
ATOM     26  C   UNL     1       3.459   6.733  17.616  0.00  0.00    +0.000 A 
ATOM     27  C   UNL     1       4.818   6.703  17.269  0.00  0.00    +0.000 A 
ATOM     28  C   UNL     1       5.540   5.501  17.276  0.00  0.00    +0.000 A 
ATOM     29  C   UNL     1       4.881   4.313  17.627  0.00  0.00    +0.000 A 
ATOM     30  C   UNL     1       3.517   4.312  17.965  0.00  0.00    +0.000 A 
ATOM     31  C   UNL     1       2.817   5.530  17.948  0.00  0.00    +0.000 A 
BRANCH  28  32
ATOM     32  C   UNL     1       7.008   5.471  16.921  0.00  0.00    +0.000 C 
ATOM     33  F   UNL     1       7.243   5.311  15.587  0.00  0.00    +0.000 F 
ATOM     34  F   UNL     1       7.652   6.616  17.277  0.00  0.00    +0.000 F 
ATOM     35  F   UNL     1       7.673   4.457  17.540  0.00  0.00    +0.000 F 
ENDBRANCH  28  32
BRANCH  30  36
ATOM     36  C   UNL     1       2.810   3.036  18.353  0.00  0.00    +0.000 C 
ATOM     37  F   UNL     1       3.592   2.184  19.076  0.00  0.00    +0.000 F 
ATOM     38  F   UNL     1       1.708   3.263  19.121  0.00  0.00    +0.000 F 
ATOM     39  F   UNL     1       2.381   2.321  17.277  0.00  0.00    +0.000 F 
ENDBRANCH  30  36
ENDBRANCH  25  26
ENDBRANCH  23  25
ENDBRANCH   5  21
TORSDOF 7
ENDMDL
MODEL 6
REMARK VINA RESULT:      -9.5      5.512     11.057
REMARK  Name = 
REMARK  7 active torsions:
REMARK  status: ('A' for Active; 'I' for Inactive)
REMARK    1  A    between atoms: C_4  and  O_5
REMARK    2  A    between atoms: N_8  and  C_9
REMARK    3  A    between atoms: C_13  and  C_14
REMARK    4  A    between atoms: N_16  and  C_17
REMARK    5  A    between atoms: C_17  and  C_18
REMARK    6  A    between atoms: C_20  and  C_21
REMARK    7  A    between atoms: C_26  and  C_27
REMARK                            x       y       z     vdW  Elec       q    Type
REMARK                         _______ _______ _______ _____ _____    ______ ____
ROOT
ATOM      1  C   UNL     1       3.187   5.748  19.088  0.00  0.00    +0.000 A 
ATOM      2  C   UNL     1       2.522   4.638  19.634  0.00  0.00    +0.000 A 
ATOM      3  C   UNL     1       1.547   4.818  20.611  0.00  0.00    +0.000 A 
ATOM      4  C   UNL     1       1.219   6.105  21.030  0.00  0.00    +0.000 A 
ATOM      5  C   UNL     1       1.849   7.233  20.474  0.00  0.00    +0.000 A 
ATOM      6  C   UNL     1       2.844   7.049  19.500  0.00  0.00    +0.000 A 
ENDROOT
BRANCH   1  13
ATOM      7  N   UNL     1       7.430   5.242  13.556  0.00  0.00    +0.000 N 
ATOM      8  C   UNL     1       6.927   5.174  14.840  0.00  0.00    +0.000 A 
ATOM      9  N   UNL     1       7.793   4.669  15.759  0.00  0.00    +0.000 NA
ATOM     10  C   UNL     1       7.389   4.567  17.038  0.00  0.00    +0.000 A 
ATOM     11  C   UNL     1       6.103   4.992  17.356  0.00  0.00    +0.000 A 
ATOM     12  N   UNL     1       5.414   5.027  18.507  0.00  0.00    +0.000 NA
ATOM     13  N   UNL     1       4.215   5.534  18.128  0.00  0.00    +0.000 N 
ATOM     14  N   UNL     1       4.066   5.842  16.814  0.00  0.00    +0.000 NA
ATOM     15  C   UNL     1       5.263   5.511  16.319  0.00  0.00    +0.000 A 
ATOM     16  N   UNL     1       5.666   5.625  15.030  0.00  0.00    +0.000 NA
ATOM     17  H   UNL     1       8.441   5.235  13.562  0.00  0.00    +0.000 HD
ATOM     18  H   UNL     1       6.970   5.956  13.009  0.00  0.00    +0.000 HD
BRANCH  10  19
ATOM     19  O   UNL     1       8.281   4.023  17.918  0.00  0.00    +0.000 OA
ATOM     20  H   UNL     1       8.717   4.816  18.272  0.00  0.00    +0.000 HD
ENDBRANCH  10  19
ENDBRANCH   1  13
BRANCH   5  21
ATOM     21  C   UNL     1       1.384   8.570  20.961  0.00  0.00    +0.000 C 
ATOM     22  O   UNL     1       1.328   8.791  22.168  0.00  0.00    +0.000 OA
ATOM     23  N   UNL     1       1.015   9.515  20.028  0.00  0.00    +0.000 N 
ATOM     24  H   UNL     1       1.126   9.354  19.040  0.00  0.00    +0.000 HD
BRANCH  23  25
ATOM     25  C   UNL     1       0.531  10.814  20.437  0.00  0.00    +0.000 C 
BRANCH  25  26
ATOM     26  C   UNL     1      -0.793  11.146  19.794  0.00  0.00    +0.000 A 
ATOM     27  C   UNL     1      -1.102  10.670  18.511  0.00  0.00    +0.000 A 
ATOM     28  C   UNL     1      -2.333  10.965  17.909  0.00  0.00    +0.000 A 
ATOM     29  C   UNL     1      -3.259  11.759  18.602  0.00  0.00    +0.000 A 
ATOM     30  C   UNL     1      -2.968  12.261  19.882  0.00  0.00    +0.000 A 
ATOM     31  C   UNL     1      -1.727  11.952  20.462  0.00  0.00    +0.000 A 
BRANCH  28  32
ATOM     32  C   UNL     1      -2.675  10.437  16.535  0.00  0.00    +0.000 C 
ATOM     33  F   UNL     1      -3.973  10.040  16.411  0.00  0.00    +0.000 F 
ATOM     34  F   UNL     1      -2.474  11.364  15.558  0.00  0.00    +0.000 F 
ATOM     35  F   UNL     1      -1.920   9.357  16.189  0.00  0.00    +0.000 F 
ENDBRANCH  28  32
BRANCH  30  36
ATOM     36  C   UNL     1      -3.967  13.107  20.634  0.00  0.00    +0.000 C 
ATOM     37  F   UNL     1      -3.813  14.445  20.415  0.00  0.00    +0.000 F 
ATOM     38  F   UNL     1      -5.254  12.826  20.289  0.00  0.00    +0.000 F 
ATOM     39  F   UNL     1      -3.892  12.943  21.983  0.00  0.00    +0.000 F 
ENDBRANCH  30  36
ENDBRANCH  25  26
ENDBRANCH  23  25
ENDBRANCH   5  21
TORSDOF 7
ENDMDL
MODEL 7
REMARK VINA RESULT:      -9.4      1.760      2.130
REMARK  Name = 
REMARK  7 active torsions:
REMARK  status: ('A' for Active; 'I' for Inactive)
REMARK    1  A    between atoms: C_4  and  O_5
REMARK    2  A    between atoms: N_8  and  C_9
REMARK    3  A    between atoms: C_13  and  C_14
REMARK    4  A    between atoms: N_16  and  C_17
REMARK    5  A    between atoms: C_17  and  C_18
REMARK    6  A    between atoms: C_20  and  C_21
REMARK    7  A    between atoms: C_26  and  C_27
REMARK                            x       y       z     vdW  Elec       q    Type
REMARK                         _______ _______ _______ _____ _____    ______ ____
ROOT
ATOM      1  C   UNL     1      -1.158  11.051  22.036  0.00  0.00    +0.000 A 
ATOM      2  C   UNL     1      -0.731  10.262  23.117  0.00  0.00    +0.000 A 
ATOM      3  C   UNL     1       0.277   9.319  22.938  0.00  0.00    +0.000 A 
ATOM      4  C   UNL     1       0.875   9.175  21.688  0.00  0.00    +0.000 A 
ATOM      5  C   UNL     1       0.484   9.977  20.600  0.00  0.00    +0.000 A 
ATOM      6  C   UNL     1      -0.544  10.917  20.777  0.00  0.00    +0.000 A 
ENDROOT
BRANCH   1  13
ATOM      7  N   UNL     1      -6.224  15.333  24.242  0.00  0.00    +0.000 N 
ATOM      8  C   UNL     1      -5.341  14.644  23.434  0.00  0.00    +0.000 A 
ATOM      9  N   UNL     1      -5.444  14.936  22.109  0.00  0.00    +0.000 NA
ATOM     10  C   UNL     1      -4.621  14.313  21.247  0.00  0.00    +0.000 A 
ATOM     11  C   UNL     1      -3.699  13.404  21.757  0.00  0.00    +0.000 A 
ATOM     12  N   UNL     1      -2.761  12.638  21.181  0.00  0.00    +0.000 NA
ATOM     13  N   UNL     1      -2.225  11.972  22.233  0.00  0.00    +0.000 N 
ATOM     14  N   UNL     1      -2.737  12.247  23.460  0.00  0.00    +0.000 NA
ATOM     15  C   UNL     1      -3.666  13.163  23.169  0.00  0.00    +0.000 A 
ATOM     16  N   UNL     1      -4.486  13.793  24.045  0.00  0.00    +0.000 NA
ATOM     17  H   UNL     1      -6.556  16.171  23.784  0.00  0.00    +0.000 HD
ATOM     18  H   UNL     1      -5.879  15.420  25.187  0.00  0.00    +0.000 HD
BRANCH  10  19
ATOM     19  O   UNL     1      -4.784  14.614  19.924  0.00  0.00    +0.000 OA
ATOM     20  H   UNL     1      -5.276  15.449  19.971  0.00  0.00    +0.000 HD
ENDBRANCH  10  19
ENDBRANCH   1  13
BRANCH   5  21
ATOM     21  C   UNL     1       1.227   9.773  19.315  0.00  0.00    +0.000 C 
ATOM     22  O   UNL     1       1.191  10.644  18.449  0.00  0.00    +0.000 OA
ATOM     23  N   UNL     1       1.921   8.595  19.140  0.00  0.00    +0.000 N 
ATOM     24  H   UNL     1       2.003   7.915  19.877  0.00  0.00    +0.000 HD
BRANCH  23  25
ATOM     25  C   UNL     1       2.634   8.329  17.911  0.00  0.00    +0.000 C 
BRANCH  25  26
ATOM     26  C   UNL     1       3.013   6.874  17.788  0.00  0.00    +0.000 A 
ATOM     27  C   UNL     1       2.250   5.882  18.422  0.00  0.00    +0.000 A 
ATOM     28  C   UNL     1       2.589   4.527  18.307  0.00  0.00    +0.000 A 
ATOM     29  C   UNL     1       3.716   4.167  17.552  0.00  0.00    +0.000 A 
ATOM     30  C   UNL     1       4.505   5.141  16.918  0.00  0.00    +0.000 A 
ATOM     31  C   UNL     1       4.145   6.493  17.051  0.00  0.00    +0.000 A 
BRANCH  28  32
ATOM     32  C   UNL     1       1.758   3.456  18.974  0.00  0.00    +0.000 C 
ATOM     33  F   UNL     1       1.201   3.854  20.153  0.00  0.00    +0.000 F 
ATOM     34  F   UNL     1       0.722   3.042  18.195  0.00  0.00    +0.000 F 
ATOM     35  F   UNL     1       2.482   2.339  19.263  0.00  0.00    +0.000 F 
ENDBRANCH  28  32
BRANCH  30  36
ATOM     36  C   UNL     1       5.712   4.756  16.097  0.00  0.00    +0.000 C 
ATOM     37  F   UNL     1       5.694   5.275  14.836  0.00  0.00    +0.000 F 
ATOM     38  F   UNL     1       6.879   5.183  16.653  0.00  0.00    +0.000 F 
ATOM     39  F   UNL     1       5.837   3.410  15.941  0.00  0.00    +0.000 F 
ENDBRANCH  30  36
ENDBRANCH  25  26
ENDBRANCH  23  25
ENDBRANCH   5  21
TORSDOF 7
ENDMDL
MODEL 8
REMARK VINA RESULT:      -9.3      1.481      1.737
REMARK  Name = 
REMARK  7 active torsions:
REMARK  status: ('A' for Active; 'I' for Inactive)
REMARK    1  A    between atoms: C_4  and  O_5
REMARK    2  A    between atoms: N_8  and  C_9
REMARK    3  A    between atoms: C_13  and  C_14
REMARK    4  A    between atoms: N_16  and  C_17
REMARK    5  A    between atoms: C_17  and  C_18
REMARK    6  A    between atoms: C_20  and  C_21
REMARK    7  A    between atoms: C_26  and  C_27
REMARK                            x       y       z     vdW  Elec       q    Type
REMARK                         _______ _______ _______ _____ _____    ______ ____
ROOT
ATOM      1  C   UNL     1      -1.025  11.052  21.928  0.00  0.00    +0.000 A 
ATOM      2  C   UNL     1      -0.648  10.240  23.011  0.00  0.00    +0.000 A 
ATOM      3  C   UNL     1       0.251   9.195  22.821  0.00  0.00    +0.000 A 
ATOM      4  C   UNL     1       0.792   8.971  21.557  0.00  0.00    +0.000 A 
ATOM      5  C   UNL     1       0.452   9.791  20.465  0.00  0.00    +0.000 A 
ATOM      6  C   UNL     1      -0.468  10.835  20.655  0.00  0.00    +0.000 A 
ENDROOT
BRANCH   1  13
ATOM      7  N   UNL     1      -5.988  15.971  21.720  0.00  0.00    +0.000 N 
ATOM      8  C   UNL     1      -5.014  15.101  22.170  0.00  0.00    +0.000 A 
ATOM      9  N   UNL     1      -4.780  15.159  23.508  0.00  0.00    +0.000 NA
ATOM     10  C   UNL     1      -3.848  14.345  24.036  0.00  0.00    +0.000 A 
ATOM     11  C   UNL     1      -3.174  13.477  23.182  0.00  0.00    +0.000 A 
ATOM     12  N   UNL     1      -2.216  12.561  23.385  0.00  0.00    +0.000 NA
ATOM     13  N   UNL     1      -1.986  12.081  22.139  0.00  0.00    +0.000 N 
ATOM     14  N   UNL     1      -2.725  12.609  21.130  0.00  0.00    +0.000 NA
ATOM     15  C   UNL     1      -3.490  13.489  21.785  0.00  0.00    +0.000 A 
ATOM     16  N   UNL     1      -4.434  14.299  21.247  0.00  0.00    +0.000 NA
ATOM     17  H   UNL     1      -6.598  16.253  22.476  0.00  0.00    +0.000 HD
ATOM     18  H   UNL     1      -6.419  15.644  20.867  0.00  0.00    +0.000 HD
BRANCH  10  19
ATOM     19  O   UNL     1      -3.625  14.463  25.379  0.00  0.00    +0.000 OA
ATOM     20  H   UNL     1      -3.222  15.344  25.435  0.00  0.00    +0.000 HD
ENDBRANCH  10  19
ENDBRANCH   1  13
BRANCH   5  21
ATOM     21  C   UNL     1       1.130   9.491  19.164  0.00  0.00    +0.000 C 
ATOM     22  O   UNL     1       0.875  10.175  18.175  0.00  0.00    +0.000 OA
ATOM     23  N   UNL     1       2.017   8.437  19.114  0.00  0.00    +0.000 N 
ATOM     24  H   UNL     1       2.274   7.924  19.941  0.00  0.00    +0.000 HD
BRANCH  23  25
ATOM     25  C   UNL     1       2.681   8.082  17.881  0.00  0.00    +0.000 C 
BRANCH  25  26
ATOM     26  C   UNL     1       3.065   6.624  17.852  0.00  0.00    +0.000 A 
ATOM     27  C   UNL     1       2.254   5.659  18.469  0.00  0.00    +0.000 A 
ATOM     28  C   UNL     1       2.597   4.301  18.440  0.00  0.00    +0.000 A 
ATOM     29  C   UNL     1       3.779   3.910  17.792  0.00  0.00    +0.000 A 
ATOM     30  C   UNL     1       4.617   4.856  17.179  0.00  0.00    +0.000 A 
ATOM     31  C   UNL     1       4.250   6.212  17.224  0.00  0.00    +0.000 A 
BRANCH  28  32
ATOM     32  C   UNL     1       1.714   3.260  19.088  0.00  0.00    +0.000 C 
ATOM     33  F   UNL     1       1.121   2.416  18.196  0.00  0.00    +0.000 F 
ATOM     34  F   UNL     1       2.400   2.464  19.953  0.00  0.00    +0.000 F 
ATOM     35  F   UNL     1       0.700   3.813  19.809  0.00  0.00    +0.000 F 
ENDBRANCH  28  32
BRANCH  30  36
ATOM     36  C   UNL     1       5.883   4.436  16.473  0.00  0.00    +0.000 C 
ATOM     37  F   UNL     1       6.939   4.261  17.319  0.00  0.00    +0.000 F 
ATOM     38  F   UNL     1       5.744   3.254  15.810  0.00  0.00    +0.000 F 
ATOM     39  F   UNL     1       6.299   5.343  15.547  0.00  0.00    +0.000 F 
ENDBRANCH  30  36
ENDBRANCH  25  26
ENDBRANCH  23  25
ENDBRANCH   5  21
TORSDOF 7
ENDMDL
MODEL 9
REMARK VINA RESULT:      -9.3      1.623      2.068
REMARK  Name = 
REMARK  7 active torsions:
REMARK  status: ('A' for Active; 'I' for Inactive)
REMARK    1  A    between atoms: C_4  and  O_5
REMARK    2  A    between atoms: N_8  and  C_9
REMARK    3  A    between atoms: C_13  and  C_14
REMARK    4  A    between atoms: N_16  and  C_17
REMARK    5  A    between atoms: C_17  and  C_18
REMARK    6  A    between atoms: C_20  and  C_21
REMARK    7  A    between atoms: C_26  and  C_27
REMARK                            x       y       z     vdW  Elec       q    Type
REMARK                         _______ _______ _______ _____ _____    ______ ____
ROOT
ATOM      1  C   UNL     1      -1.097  11.146  22.145  0.00  0.00    +0.000 A 
ATOM      2  C   UNL     1      -0.717  10.249  23.158  0.00  0.00    +0.000 A 
ATOM      3  C   UNL     1       0.191   9.231  22.884  0.00  0.00    +0.000 A 
ATOM      4  C   UNL     1       0.736   9.116  21.607  0.00  0.00    +0.000 A 
ATOM      5  C   UNL     1       0.392  10.022  20.587  0.00  0.00    +0.000 A 
ATOM      6  C   UNL     1      -0.536  11.040  20.861  0.00  0.00    +0.000 A 
ENDROOT
BRANCH   1  13
ATOM      7  N   UNL     1      -5.220  16.761  22.728  0.00  0.00    +0.000 N 
ATOM      8  C   UNL     1      -4.686  15.498  22.887  0.00  0.00    +0.000 A 
ATOM      9  N   UNL     1      -5.382  14.693  23.734  0.00  0.00    +0.000 NA
ATOM     10  C   UNL     1      -4.935  13.443  23.949  0.00  0.00    +0.000 A 
ATOM     11  C   UNL     1      -3.783  13.034  23.284  0.00  0.00    +0.000 A 
ATOM     12  N   UNL     1      -3.096  11.882  23.278  0.00  0.00    +0.000 NA
ATOM     13  N   UNL     1      -2.066  12.147  22.439  0.00  0.00    +0.000 N 
ATOM     14  N   UNL     1      -2.026  13.387  21.887  0.00  0.00    +0.000 NA
ATOM     15  C   UNL     1      -3.118  13.953  22.410  0.00  0.00    +0.000 A 
ATOM     16  N   UNL     1      -3.568  15.211  22.181  0.00  0.00    +0.000 NA
ATOM     17  H   UNL     1      -6.199  16.775  22.981  0.00  0.00    +0.000 HD
ATOM     18  H   UNL     1      -4.959  17.171  21.842  0.00  0.00    +0.000 HD
BRANCH  10  19
ATOM     19  O   UNL     1      -5.648  12.684  24.833  0.00  0.00    +0.000 OA
ATOM     20  H   UNL     1      -4.943  12.197  25.288  0.00  0.00    +0.000 HD
ENDBRANCH  10  19
ENDBRANCH   1  13
BRANCH   5  21
ATOM     21  C   UNL     1       1.075   9.837  19.267  0.00  0.00    +0.000 C 
ATOM     22  O   UNL     1       0.950  10.692  18.393  0.00  0.00    +0.000 OA
ATOM     23  N   UNL     1       1.819   8.693  19.068  0.00  0.00    +0.000 N 
ATOM     24  H   UNL     1       1.974   8.029  19.809  0.00  0.00    +0.000 HD
BRANCH  23  25
ATOM     25  C   UNL     1       2.478   8.445  17.806  0.00  0.00    +0.000 C 
BRANCH  25  26
ATOM     26  C   UNL     1       3.045   7.049  17.736  0.00  0.00    +0.000 A 
ATOM     27  C   UNL     1       2.339   5.964  18.278  0.00  0.00    +0.000 A 
ATOM     28  C   UNL     1       2.852   4.661  18.211  0.00  0.00    +0.000 A 
ATOM     29  C   UNL     1       4.097   4.450  17.599  0.00  0.00    +0.000 A 
ATOM     30  C   UNL     1       4.831   5.520  17.060  0.00  0.00    +0.000 A 
ATOM     31  C   UNL     1       4.294   6.816  17.143  0.00  0.00    +0.000 A 
BRANCH  28  32
ATOM     32  C   UNL     1       2.084   3.490  18.778  0.00  0.00    +0.000 C 
ATOM     33  F   UNL     1       0.851   3.825  19.252  0.00  0.00    +0.000 F 
ATOM     34  F   UNL     1       1.876   2.511  17.856  0.00  0.00    +0.000 F 
ATOM     35  F   UNL     1       2.734   2.896  19.817  0.00  0.00    +0.000 F 
ENDBRANCH  28  32
BRANCH  30  36
ATOM     36  C   UNL     1       6.166   5.294  16.392  0.00  0.00    +0.000 C 
ATOM     37  F   UNL     1       6.625   4.016  16.526  0.00  0.00    +0.000 F 
ATOM     38  F   UNL     1       6.126   5.530  15.051  0.00  0.00    +0.000 F 
ATOM     39  F   UNL     1       7.149   6.093  16.889  0.00  0.00    +0.000 F 
ENDBRANCH  30  36
ENDBRANCH  25  26
ENDBRANCH  23  25
ENDBRANCH   5  21
TORSDOF 7
ENDMDL
