MODEL 1
REMARK VINA RESULT:      -7.9      0.000      0.000
REMARK  Name = 
REMARK  12 active torsions:
REMARK  status: ('A' for Active; 'I' for Inactive)
REMARK    1  A    between atoms: C_1  and  C_2
REMARK    2  A    between atoms: C_2  and  O_3
REMARK    3  A    between atoms: O_3  and  C_4
REMARK    4  A    between atoms: C_6  and  C_7
REMARK    5  A    between atoms: C_7  and  C_8
REMARK    6  A    between atoms: C_7  and  N_13
REMARK    7  A    between atoms: C_8  and  S_9
REMARK    8  A    between atoms: S_9  and  C_10
REMARK    9  A    between atoms: C_20  and  N_21
REMARK   10  A    between atoms: C_22  and  C_23
REMARK   11  A    between atoms: C_30  and  O_31
REMARK   12  A    between atoms: O_31  and  C_32
REMARK                            x       y       z     vdW  Elec       q    Type
REMARK                         _______ _______ _______ _____ _____    ______ ____
ROOT
ATOM      1  C   UNL     1       0.679  10.584  19.393  0.00  0.00    +0.000 C 
ENDROOT
BRANCH   1   2
ATOM      2  N   UNL     1       1.431   9.295  19.254  0.00  0.00    +0.000 N 
ATOM      3  C   UNL     1       2.183   9.120  18.121  0.00  0.00    +0.000 C 
ATOM      4  O   UNL     1       2.275   9.855  17.154  0.00  0.00    +0.000 OA
ATOM      5  C   UNL     1       2.858   7.845  18.223  0.00  0.00    +0.000 A 
ATOM      6  C   UNL     1       3.796   7.316  17.362  0.00  0.00    +0.000 A 
ATOM      7  C   UNL     1       4.293   6.057  17.657  0.00  0.00    +0.000 A 
ATOM      8  C   UNL     1       3.798   5.350  18.776  0.00  0.00    +0.000 A 
ATOM      9  C   UNL     1       2.826   5.887  19.650  0.00  0.00    +0.000 A 
ATOM     10  C   UNL     1       2.385   7.184  19.354  0.00  0.00    +0.000 A 
ATOM     11  C   UNL     1       1.474   8.136  20.010  0.00  0.00    +0.000 C 
ATOM     12  O   UNL     1       0.898   7.804  21.027  0.00  0.00    +0.000 OA
BRANCH   9  13
ATOM     13  N   UNL     1       2.268   5.109  20.700  0.00  0.00    +0.000 N 
ATOM     14  C   UNL     1       2.473   3.745  20.886  0.00  0.00    +0.000 C 
ATOM     15  C   UNL     1       1.507   3.080  21.834  0.00  0.00    +0.000 C 
ATOM     16  O   UNL     1       3.348   3.064  20.358  0.00  0.00    +0.000 OA
ATOM     17  H   UNL     1       1.688   5.608  21.373  0.00  0.00    +0.000 HD
ENDBRANCH   9  13
ENDBRANCH   1   2
BRANCH   1  20
ATOM     18  C   UNL     1      -2.428  10.059  17.168  0.00  0.00    +0.000 A 
ATOM     19  C   UNL     1      -1.102  10.052  17.651  0.00  0.00    +0.000 A 
ATOM     20  C   UNL     1      -0.738  10.695  18.857  0.00  0.00    +0.000 A 
ATOM     21  C   UNL     1      -1.704  11.476  19.485  0.00  0.00    +0.000 A 
ATOM     22  C   UNL     1      -3.017  11.479  19.028  0.00  0.00    +0.000 A 
ATOM     23  C   UNL     1      -3.404  10.754  17.898  0.00  0.00    +0.000 A 
BRANCH  23  24
ATOM     24  O   UNL     1      -4.747  10.857  17.663  0.00  0.00    +0.000 OA
ATOM     25  C   UNL     1      -5.282  12.106  17.259  0.00  0.00    +0.000 C 
ENDBRANCH  23  24
BRANCH  18  26
ATOM     26  O   UNL     1      -2.804   9.442  16.004  0.00  0.00    +0.000 OA
BRANCH  26  28
ATOM     27  C   UNL     1      -4.069   9.975  14.045  0.00  0.00    +0.000 C 
ATOM     28  C   UNL     1      -2.766  10.200  14.796  0.00  0.00    +0.000 C 
ENDBRANCH  26  28
ENDBRANCH  18  26
ENDBRANCH   1  20
BRANCH   1  29
ATOM     29  C   UNL     1       0.908  11.335  20.724  0.00  0.00    +0.000 C 
BRANCH  29  30
ATOM     30  S   UNL     1       1.575  12.966  20.554  0.00  0.00    +0.000 S 
ATOM     31  C   UNL     1       0.281  14.009  21.208  0.00  0.00    +0.000 C 
ATOM     32  O   UNL     1       2.695  13.117  21.454  0.00  0.00    +0.000 OA
ATOM     33  O   UNL     1       1.693  13.255  19.137  0.00  0.00    +0.000 OA
ENDBRANCH  29  30
ENDBRANCH   1  29
TORSDOF 8
ENDMDL
MODEL 2
REMARK VINA RESULT:      -7.7      1.456      2.779
REMARK  Name = 
REMARK  12 active torsions:
REMARK  status: ('A' for Active; 'I' for Inactive)
REMARK    1  A    between atoms: C_1  and  C_2
REMARK    2  A    between atoms: C_2  and  O_3
REMARK    3  A    between atoms: O_3  and  C_4
REMARK    4  A    between atoms: C_6  and  C_7
REMARK    5  A    between atoms: C_7  and  C_8
REMARK    6  A    between atoms: C_7  and  N_13
REMARK    7  A    between atoms: C_8  and  S_9
REMARK    8  A    between atoms: S_9  and  C_10
REMARK    9  A    between atoms: C_20  and  N_21
REMARK   10  A    between atoms: C_22  and  C_23
REMARK   11  A    between atoms: C_30  and  O_31
REMARK   12  A    between atoms: O_31  and  C_32
REMARK                            x       y       z     vdW  Elec       q    Type
REMARK                         _______ _______ _______ _____ _____    ______ ____
ROOT
ATOM      1  C   UNL     1       0.611  10.663  19.318  0.00  0.00    +0.000 C 
ENDROOT
BRANCH   1   2
ATOM      2  N   UNL     1       1.194   9.282  19.329  0.00  0.00    +0.000 N 
ATOM      3  C   UNL     1       1.048   8.543  20.474  0.00  0.00    +0.000 C 
ATOM      4  O   UNL     1       0.559   8.884  21.537  0.00  0.00    +0.000 OA
ATOM      5  C   UNL     1       1.629   7.239  20.243  0.00  0.00    +0.000 A 
ATOM      6  C   UNL     1       1.610   6.147  21.084  0.00  0.00    +0.000 A 
ATOM      7  C   UNL     1       2.257   5.000  20.654  0.00  0.00    +0.000 A 
ATOM      8  C   UNL     1       2.943   5.002  19.418  0.00  0.00    +0.000 A 
ATOM      9  C   UNL     1       2.975   6.127  18.563  0.00  0.00    +0.000 A 
ATOM     10  C   UNL     1       2.265   7.252  19.004  0.00  0.00    +0.000 A 
ATOM     11  C   UNL     1       1.966   8.572  18.426  0.00  0.00    +0.000 C 
ATOM     12  O   UNL     1       2.421   8.861  17.336  0.00  0.00    +0.000 OA
BRANCH   9  13
ATOM     13  N   UNL     1       3.765   6.134  17.382  0.00  0.00    +0.000 N 
ATOM     14  C   UNL     1       5.155   6.186  17.346  0.00  0.00    +0.000 C 
ATOM     15  C   UNL     1       5.743   6.544  16.003  0.00  0.00    +0.000 C 
ATOM     16  O   UNL     1       5.914   5.969  18.285  0.00  0.00    +0.000 OA
ATOM     17  H   UNL     1       3.259   6.080  16.500  0.00  0.00    +0.000 HD
ENDBRANCH   9  13
ENDBRANCH   1   2
BRANCH   1  20
ATOM     18  C   UNL     1      -2.596  10.308  17.205  0.00  0.00    +0.000 A 
ATOM     19  C   UNL     1      -1.265  10.196  17.660  0.00  0.00    +0.000 A 
ATOM     20  C   UNL     1      -0.801  10.885  18.805  0.00  0.00    +0.000 A 
ATOM     21  C   UNL     1      -1.661  11.811  19.389  0.00  0.00    +0.000 A 
ATOM     22  C   UNL     1      -2.979  11.920  18.960  0.00  0.00    +0.000 A 
ATOM     23  C   UNL     1      -3.472  11.158  17.898  0.00  0.00    +0.000 A 
BRANCH  23  24
ATOM     24  O   UNL     1      -4.803  11.386  17.684  0.00  0.00    +0.000 OA
ATOM     25  C   UNL     1      -5.756  10.711  18.487  0.00  0.00    +0.000 C 
ENDBRANCH  23  24
BRANCH  18  26
ATOM     26  O   UNL     1      -3.069   9.649  16.100  0.00  0.00    +0.000 OA
BRANCH  26  28
ATOM     27  C   UNL     1      -4.014   9.975  13.928  0.00  0.00    +0.000 C 
ATOM     28  C   UNL     1      -2.802  10.209  14.815  0.00  0.00    +0.000 C 
ENDBRANCH  26  28
ENDBRANCH  18  26
ENDBRANCH   1  20
BRANCH   1  29
ATOM     29  C   UNL     1       0.981  11.539  20.537  0.00  0.00    +0.000 C 
BRANCH  29  30
ATOM     30  S   UNL     1       1.775  13.071  20.139  0.00  0.00    +0.000 S 
ATOM     31  C   UNL     1       2.464  12.768  18.519  0.00  0.00    +0.000 C 
ATOM     32  O   UNL     1       0.770  14.092  19.955  0.00  0.00    +0.000 OA
ATOM     33  O   UNL     1       2.883  13.252  21.057  0.00  0.00    +0.000 OA
ENDBRANCH  29  30
ENDBRANCH   1  29
TORSDOF 8
ENDMDL
MODEL 3
REMARK VINA RESULT:      -7.5      1.189      2.492
REMARK  Name = 
REMARK  12 active torsions:
REMARK  status: ('A' for Active; 'I' for Inactive)
REMARK    1  A    between atoms: C_1  and  C_2
REMARK    2  A    between atoms: C_2  and  O_3
REMARK    3  A    between atoms: O_3  and  C_4
REMARK    4  A    between atoms: C_6  and  C_7
REMARK    5  A    between atoms: C_7  and  C_8
REMARK    6  A    between atoms: C_7  and  N_13
REMARK    7  A    between atoms: C_8  and  S_9
REMARK    8  A    between atoms: S_9  and  C_10
REMARK    9  A    between atoms: C_20  and  N_21
REMARK   10  A    between atoms: C_22  and  C_23
REMARK   11  A    between atoms: C_30  and  O_31
REMARK   12  A    between atoms: O_31  and  C_32
REMARK                            x       y       z     vdW  Elec       q    Type
REMARK                         _______ _______ _______ _____ _____    ______ ____
ROOT
ATOM      1  C   UNL     1       0.676  10.597  19.464  0.00  0.00    +0.000 C 
ENDROOT
BRANCH   1   2
ATOM      2  N   UNL     1       1.439   9.319  19.284  0.00  0.00    +0.000 N 
ATOM      3  C   UNL     1       2.137   9.159  18.115  0.00  0.00    +0.000 C 
ATOM      4  O   UNL     1       2.172   9.899  17.147  0.00  0.00    +0.000 OA
ATOM      5  C   UNL     1       2.835   7.894  18.179  0.00  0.00    +0.000 A 
ATOM      6  C   UNL     1       3.737   7.381  17.271  0.00  0.00    +0.000 A 
ATOM      7  C   UNL     1       4.266   6.129  17.536  0.00  0.00    +0.000 A 
ATOM      8  C   UNL     1       3.836   5.411  18.676  0.00  0.00    +0.000 A 
ATOM      9  C   UNL     1       2.900   5.932  19.598  0.00  0.00    +0.000 A 
ATOM     10  C   UNL     1       2.427   7.222  19.329  0.00  0.00    +0.000 A 
ATOM     11  C   UNL     1       1.535   8.159  20.032  0.00  0.00    +0.000 C 
ATOM     12  O   UNL     1       1.015   7.815  21.075  0.00  0.00    +0.000 OA
BRANCH   9  13
ATOM     13  N   UNL     1       2.406   5.142  20.671  0.00  0.00    +0.000 N 
ATOM     14  C   UNL     1       2.532   3.759  20.776  0.00  0.00    +0.000 C 
ATOM     15  C   UNL     1       1.629   3.114  21.799  0.00  0.00    +0.000 C 
ATOM     16  O   UNL     1       3.293   3.049  20.126  0.00  0.00    +0.000 OA
ATOM     17  H   UNL     1       1.940   5.644  21.424  0.00  0.00    +0.000 HD
ENDBRANCH   9  13
ENDBRANCH   1   2
BRANCH   1  20
ATOM     18  C   UNL     1      -3.015  11.704  19.322  0.00  0.00    +0.000 A 
ATOM     19  C   UNL     1      -1.673  11.545  19.726  0.00  0.00    +0.000 A 
ATOM     20  C   UNL     1      -0.786  10.669  19.059  0.00  0.00    +0.000 A 
ATOM     21  C   UNL     1      -1.320   9.840  18.077  0.00  0.00    +0.000 A 
ATOM     22  C   UNL     1      -2.637   9.997  17.658  0.00  0.00    +0.000 A 
ATOM     23  C   UNL     1      -3.486  10.941  18.242  0.00  0.00    +0.000 A 
BRANCH  23  24
ATOM     24  O   UNL     1      -4.714  10.960  17.641  0.00  0.00    +0.000 OA
ATOM     25  C   UNL     1      -4.991  11.958  16.674  0.00  0.00    +0.000 C 
ENDBRANCH  23  24
BRANCH  18  26
ATOM     26  O   UNL     1      -3.893  12.548  19.951  0.00  0.00    +0.000 OA
BRANCH  26  28
ATOM     27  C   UNL     1      -4.981  13.191  21.981  0.00  0.00    +0.000 C 
ATOM     28  C   UNL     1      -3.649  12.879  21.317  0.00  0.00    +0.000 C 
ENDBRANCH  26  28
ENDBRANCH  18  26
ENDBRANCH   1  20
BRANCH   1  29
ATOM     29  C   UNL     1       1.010  11.382  20.754  0.00  0.00    +0.000 C 
BRANCH  29  30
ATOM     30  S   UNL     1       1.650  13.011  20.489  0.00  0.00    +0.000 S 
ATOM     31  C   UNL     1       2.260  12.945  18.811  0.00  0.00    +0.000 C 
ATOM     32  O   UNL     1       0.556  13.954  20.473  0.00  0.00    +0.000 OA
ATOM     33  O   UNL     1       2.795  13.189  21.361  0.00  0.00    +0.000 OA
ENDBRANCH  29  30
ENDBRANCH   1  29
TORSDOF 8
ENDMDL
MODEL 4
REMARK VINA RESULT:      -7.5      3.855      8.794
REMARK  Name = 
REMARK  12 active torsions:
REMARK  status: ('A' for Active; 'I' for Inactive)
REMARK    1  A    between atoms: C_1  and  C_2
REMARK    2  A    between atoms: C_2  and  O_3
REMARK    3  A    between atoms: O_3  and  C_4
REMARK    4  A    between atoms: C_6  and  C_7
REMARK    5  A    between atoms: C_7  and  C_8
REMARK    6  A    between atoms: C_7  and  N_13
REMARK    7  A    between atoms: C_8  and  S_9
REMARK    8  A    between atoms: S_9  and  C_10
REMARK    9  A    between atoms: C_20  and  N_21
REMARK   10  A    between atoms: C_22  and  C_23
REMARK   11  A    between atoms: C_30  and  O_31
REMARK   12  A    between atoms: O_31  and  C_32
REMARK                            x       y       z     vdW  Elec       q    Type
REMARK                         _______ _______ _______ _____ _____    ______ ____
ROOT
ATOM      1  C   UNL     1       2.888   5.526  18.581  0.00  0.00    +0.000 C 
ENDROOT
BRANCH   1   2
ATOM      2  N   UNL     1       2.329   6.772  19.198  0.00  0.00    +0.000 N 
ATOM      3  C   UNL     1       1.707   6.652  20.413  0.00  0.00    +0.000 C 
ATOM      4  O   UNL     1       1.478   5.638  21.049  0.00  0.00    +0.000 OA
ATOM      5  C   UNL     1       1.300   7.973  20.841  0.00  0.00    +0.000 A 
ATOM      6  C   UNL     1       0.738   8.332  22.047  0.00  0.00    +0.000 A 
ATOM      7  C   UNL     1       0.408   9.666  22.225  0.00  0.00    +0.000 A 
ATOM      8  C   UNL     1       0.607  10.585  21.169  0.00  0.00    +0.000 A 
ATOM      9  C   UNL     1       1.170  10.212  19.927  0.00  0.00    +0.000 A 
ATOM     10  C   UNL     1       1.542   8.868  19.801  0.00  0.00    +0.000 A 
ATOM     11  C   UNL     1       2.213   8.079  18.756  0.00  0.00    +0.000 C 
ATOM     12  O   UNL     1       2.526   8.618  17.713  0.00  0.00    +0.000 OA
BRANCH   9  13
ATOM     13  N   UNL     1       1.254  11.135  18.849  0.00  0.00    +0.000 N 
ATOM     14  C   UNL     1       1.769  12.426  18.935  0.00  0.00    +0.000 C 
ATOM     15  C   UNL     1       1.426  13.325  17.773  0.00  0.00    +0.000 C 
ATOM     16  O   UNL     1       2.457  12.873  19.847  0.00  0.00    +0.000 OA
ATOM     17  H   UNL     1       0.922  10.804  17.945  0.00  0.00    +0.000 HD
ENDBRANCH   9  13
ENDBRANCH   1   2
BRANCH   1  20
ATOM     18  C   UNL     1       6.122   6.765  16.883  0.00  0.00    +0.000 A 
ATOM     19  C   UNL     1       4.975   6.692  17.702  0.00  0.00    +0.000 A 
ATOM     20  C   UNL     1       4.059   5.618  17.617  0.00  0.00    +0.000 A 
ATOM     21  C   UNL     1       4.236   4.702  16.583  0.00  0.00    +0.000 A 
ATOM     22  C   UNL     1       5.370   4.755  15.780  0.00  0.00    +0.000 A 
ATOM     23  C   UNL     1       6.335   5.753  15.935  0.00  0.00    +0.000 A 
BRANCH  23  24
ATOM     24  O   UNL     1       7.387   5.580  15.078  0.00  0.00    +0.000 OA
ATOM     25  C   UNL     1       7.199   4.808  13.905  0.00  0.00    +0.000 C 
ENDBRANCH  23  24
BRANCH  18  26
ATOM     26  O   UNL     1       7.025   7.794  16.948  0.00  0.00    +0.000 OA
BRANCH  26  28
ATOM     27  C   UNL     1       8.445   9.221  18.238  0.00  0.00    +0.000 C 
ATOM     28  C   UNL     1       7.974   7.793  18.013  0.00  0.00    +0.000 C 
ENDBRANCH  26  28
ENDBRANCH  18  26
ENDBRANCH   1  20
BRANCH   1  29
ATOM     29  C   UNL     1       2.943   4.298  19.519  0.00  0.00    +0.000 C 
BRANCH  29  30
ATOM     30  S   UNL     1       1.962   2.919  18.998  0.00  0.00    +0.000 S 
ATOM     31  C   UNL     1       3.180   1.736  18.445  0.00  0.00    +0.000 C 
ATOM     32  O   UNL     1       1.331   2.323  20.153  0.00  0.00    +0.000 OA
ATOM     33  O   UNL     1       1.194   3.329  17.838  0.00  0.00    +0.000 OA
ENDBRANCH  29  30
ENDBRANCH   1  29
TORSDOF 8
ENDMDL
MODEL 5
REMARK VINA RESULT:      -7.4      1.479      2.658
REMARK  Name = 
REMARK  12 active torsions:
REMARK  status: ('A' for Active; 'I' for Inactive)
REMARK    1  A    between atoms: C_1  and  C_2
REMARK    2  A    between atoms: C_2  and  O_3
REMARK    3  A    between atoms: O_3  and  C_4
REMARK    4  A    between atoms: C_6  and  C_7
REMARK    5  A    between atoms: C_7  and  C_8
REMARK    6  A    between atoms: C_7  and  N_13
REMARK    7  A    between atoms: C_8  and  S_9
REMARK    8  A    between atoms: S_9  and  C_10
REMARK    9  A    between atoms: C_20  and  N_21
REMARK   10  A    between atoms: C_22  and  C_23
REMARK   11  A    between atoms: C_30  and  O_31
REMARK   12  A    between atoms: O_31  and  C_32
REMARK                            x       y       z     vdW  Elec       q    Type
REMARK                         _______ _______ _______ _____ _____    ______ ____
ROOT
ATOM      1  C   UNL     1       0.604  10.688  19.059  0.00  0.00    +0.000 C 
ENDROOT
BRANCH   1   2
ATOM      2  N   UNL     1       1.236   9.330  19.132  0.00  0.00    +0.000 N 
ATOM      3  C   UNL     1       1.023   8.593  20.268  0.00  0.00    +0.000 C 
ATOM      4  O   UNL     1       0.432   8.921  21.282  0.00  0.00    +0.000 OA
ATOM      5  C   UNL     1       1.671   7.311  20.099  0.00  0.00    +0.000 A 
ATOM      6  C   UNL     1       1.623   6.224  20.945  0.00  0.00    +0.000 A 
ATOM      7  C   UNL     1       2.347   5.101  20.582  0.00  0.00    +0.000 A 
ATOM      8  C   UNL     1       3.135   5.123  19.408  0.00  0.00    +0.000 A 
ATOM      9  C   UNL     1       3.196   6.243  18.549  0.00  0.00    +0.000 A 
ATOM     10  C   UNL     1       2.408   7.342  18.917  0.00  0.00    +0.000 A 
ATOM     11  C   UNL     1       2.109   8.646  18.304  0.00  0.00    +0.000 C 
ATOM     12  O   UNL     1       2.643   8.946  17.254  0.00  0.00    +0.000 OA
BRANCH   9  13
ATOM     13  N   UNL     1       4.082   6.274  17.438  0.00  0.00    +0.000 N 
ATOM     14  C   UNL     1       4.507   5.160  16.719  0.00  0.00    +0.000 C 
ATOM     15  C   UNL     1       5.706   5.395  15.833  0.00  0.00    +0.000 C 
ATOM     16  O   UNL     1       4.001   4.042  16.746  0.00  0.00    +0.000 OA
ATOM     17  H   UNL     1       4.410   7.193  17.147  0.00  0.00    +0.000 HD
ENDBRANCH   9  13
ENDBRANCH   1   2
BRANCH   1  20
ATOM     18  C   UNL     1      -2.662  10.233  17.059  0.00  0.00    +0.000 A 
ATOM     19  C   UNL     1      -1.305  10.202  17.445  0.00  0.00    +0.000 A 
ATOM     20  C   UNL     1      -0.846  10.825  18.629  0.00  0.00    +0.000 A 
ATOM     21  C   UNL     1      -1.753  11.613  19.332  0.00  0.00    +0.000 A 
ATOM     22  C   UNL     1      -3.095  11.640  18.971  0.00  0.00    +0.000 A 
ATOM     23  C   UNL     1      -3.573  10.934  17.864  0.00  0.00    +0.000 A 
BRANCH  23  24
ATOM     24  O   UNL     1      -4.928  11.058  17.728  0.00  0.00    +0.000 OA
ATOM     25  C   UNL     1      -5.550  12.270  18.119  0.00  0.00    +0.000 C 
ENDBRANCH  23  24
BRANCH  18  26
ATOM     26  O   UNL     1      -3.131   9.635  15.918  0.00  0.00    +0.000 OA
BRANCH  26  28
ATOM     27  C   UNL     1      -3.029   9.667  13.529  0.00  0.00    +0.000 C 
ATOM     28  C   UNL     1      -3.381  10.457  14.779  0.00  0.00    +0.000 C 
ENDBRANCH  26  28
ENDBRANCH  18  26
ENDBRANCH   1  20
BRANCH   1  29
ATOM     29  C   UNL     1       1.021  11.665  20.182  0.00  0.00    +0.000 C 
BRANCH  29  30
ATOM     30  S   UNL     1       1.568  13.253  19.622  0.00  0.00    +0.000 S 
ATOM     31  C   UNL     1       2.842  13.686  20.798  0.00  0.00    +0.000 C 
ATOM     32  O   UNL     1       2.240  13.102  18.352  0.00  0.00    +0.000 OA
ATOM     33  O   UNL     1       0.475  14.190  19.798  0.00  0.00    +0.000 OA
ENDBRANCH  29  30
ENDBRANCH   1  29
TORSDOF 8
ENDMDL
MODEL 6
REMARK VINA RESULT:      -7.4      1.745      3.513
REMARK  Name = 
REMARK  12 active torsions:
REMARK  status: ('A' for Active; 'I' for Inactive)
REMARK    1  A    between atoms: C_1  and  C_2
REMARK    2  A    between atoms: C_2  and  O_3
REMARK    3  A    between atoms: O_3  and  C_4
REMARK    4  A    between atoms: C_6  and  C_7
REMARK    5  A    between atoms: C_7  and  C_8
REMARK    6  A    between atoms: C_7  and  N_13
REMARK    7  A    between atoms: C_8  and  S_9
REMARK    8  A    between atoms: S_9  and  C_10
REMARK    9  A    between atoms: C_20  and  N_21
REMARK   10  A    between atoms: C_22  and  C_23
REMARK   11  A    between atoms: C_30  and  O_31
REMARK   12  A    between atoms: O_31  and  C_32
REMARK                            x       y       z     vdW  Elec       q    Type
REMARK                         _______ _______ _______ _____ _____    ______ ____
ROOT
ATOM      1  C   UNL     1       0.628  10.708  18.946  0.00  0.00    +0.000 C 
ENDROOT
BRANCH   1   2
ATOM      2  N   UNL     1       1.276   9.359  19.024  0.00  0.00    +0.000 N 
ATOM      3  C   UNL     1       1.078   8.626  20.165  0.00  0.00    +0.000 C 
ATOM      4  O   UNL     1       0.489   8.954  21.181  0.00  0.00    +0.000 OA
ATOM      5  C   UNL     1       1.739   7.351  20.002  0.00  0.00    +0.000 A 
ATOM      6  C   UNL     1       1.708   6.269  20.855  0.00  0.00    +0.000 A 
ATOM      7  C   UNL     1       2.444   5.151  20.495  0.00  0.00    +0.000 A 
ATOM      8  C   UNL     1       3.225   5.175  19.316  0.00  0.00    +0.000 A 
ATOM      9  C   UNL     1       3.268   6.290  18.450  0.00  0.00    +0.000 A 
ATOM     10  C   UNL     1       2.470   7.382  18.816  0.00  0.00    +0.000 A 
ATOM     11  C   UNL     1       2.152   8.679  18.195  0.00  0.00    +0.000 C 
ATOM     12  O   UNL     1       2.677   8.978  17.141  0.00  0.00    +0.000 OA
BRANCH   9  13
ATOM     13  N   UNL     1       4.148   6.324  17.334  0.00  0.00    +0.000 N 
ATOM     14  C   UNL     1       4.603   5.208  16.637  0.00  0.00    +0.000 C 
ATOM     15  C   UNL     1       5.790   5.461  15.740  0.00  0.00    +0.000 C 
ATOM     16  O   UNL     1       4.132   4.076  16.691  0.00  0.00    +0.000 OA
ATOM     17  H   UNL     1       4.446   7.246  17.022  0.00  0.00    +0.000 HD
ENDBRANCH   9  13
ENDBRANCH   1   2
BRANCH   1  20
ATOM     18  C   UNL     1      -3.043  11.876  19.122  0.00  0.00    +0.000 A 
ATOM     19  C   UNL     1      -1.677  11.681  19.418  0.00  0.00    +0.000 A 
ATOM     20  C   UNL     1      -0.859  10.818  18.655  0.00  0.00    +0.000 A 
ATOM     21  C   UNL     1      -1.480  10.035  17.686  0.00  0.00    +0.000 A 
ATOM     22  C   UNL     1      -2.821  10.228  17.373  0.00  0.00    +0.000 A 
ATOM     23  C   UNL     1      -3.606  11.162  18.054  0.00  0.00    +0.000 A 
BRANCH  23  24
ATOM     24  O   UNL     1      -4.875  11.222  17.548  0.00  0.00    +0.000 OA
ATOM     25  C   UNL     1      -5.956  10.764  18.342  0.00  0.00    +0.000 C 
ENDBRANCH  23  24
BRANCH  18  26
ATOM     26  O   UNL     1      -3.856  12.708  19.847  0.00  0.00    +0.000 OA
BRANCH  26  28
ATOM     27  C   UNL     1      -4.082  12.749  22.227  0.00  0.00    +0.000 C 
ATOM     28  C   UNL     1      -3.328  13.306  21.030  0.00  0.00    +0.000 C 
ENDBRANCH  26  28
ENDBRANCH  18  26
ENDBRANCH   1  20
BRANCH   1  29
ATOM     29  C   UNL     1       1.145  11.743  19.971  0.00  0.00    +0.000 C 
BRANCH  29  30
ATOM     30  S   UNL     1       2.154  13.028  19.288  0.00  0.00    +0.000 S 
ATOM     31  C   UNL     1       0.969  14.293  18.856  0.00  0.00    +0.000 C 
ATOM     32  O   UNL     1       2.971  13.596  20.335  0.00  0.00    +0.000 OA
ATOM     33  O   UNL     1       2.733  12.533  18.054  0.00  0.00    +0.000 OA
ENDBRANCH  29  30
ENDBRANCH   1  29
TORSDOF 8
ENDMDL
MODEL 7
REMARK VINA RESULT:      -7.4      1.187      2.450
REMARK  Name = 
REMARK  12 active torsions:
REMARK  status: ('A' for Active; 'I' for Inactive)
REMARK    1  A    between atoms: C_1  and  C_2
REMARK    2  A    between atoms: C_2  and  O_3
REMARK    3  A    between atoms: O_3  and  C_4
REMARK    4  A    between atoms: C_6  and  C_7
REMARK    5  A    between atoms: C_7  and  C_8
REMARK    6  A    between atoms: C_7  and  N_13
REMARK    7  A    between atoms: C_8  and  S_9
REMARK    8  A    between atoms: S_9  and  C_10
REMARK    9  A    between atoms: C_20  and  N_21
REMARK   10  A    between atoms: C_22  and  C_23
REMARK   11  A    between atoms: C_30  and  O_31
REMARK   12  A    between atoms: O_31  and  C_32
REMARK                            x       y       z     vdW  Elec       q    Type
REMARK                         _______ _______ _______ _____ _____    ______ ____
ROOT
ATOM      1  C   UNL     1       0.594  10.829  19.595  0.00  0.00    +0.000 C 
ENDROOT
BRANCH   1   2
ATOM      2  N   UNL     1       1.325   9.539  19.371  0.00  0.00    +0.000 N 
ATOM      3  C   UNL     1       2.022   9.402  18.199  0.00  0.00    +0.000 C 
ATOM      4  O   UNL     1       2.078  10.175  17.258  0.00  0.00    +0.000 OA
ATOM      5  C   UNL     1       2.687   8.119  18.220  0.00  0.00    +0.000 A 
ATOM      6  C   UNL     1       3.579   7.615  17.297  0.00  0.00    +0.000 A 
ATOM      7  C   UNL     1       4.076   6.342  17.518  0.00  0.00    +0.000 A 
ATOM      8  C   UNL     1       3.624   5.596  18.631  0.00  0.00    +0.000 A 
ATOM      9  C   UNL     1       2.699   6.107  19.569  0.00  0.00    +0.000 A 
ATOM     10  C   UNL     1       2.259   7.418  19.345  0.00  0.00    +0.000 A 
ATOM     11  C   UNL     1       1.389   8.352  20.079  0.00  0.00    +0.000 C 
ATOM     12  O   UNL     1       0.858   7.985  21.108  0.00  0.00    +0.000 OA
BRANCH   9  13
ATOM     13  N   UNL     1       2.182   5.293  20.613  0.00  0.00    +0.000 N 
ATOM     14  C   UNL     1       2.499   3.953  20.820  0.00  0.00    +0.000 C 
ATOM     15  C   UNL     1       1.568   3.215  21.750  0.00  0.00    +0.000 C 
ATOM     16  O   UNL     1       3.444   3.346  20.324  0.00  0.00    +0.000 OA
ATOM     17  H   UNL     1       1.542   5.745  21.264  0.00  0.00    +0.000 HD
ENDBRANCH   9  13
ENDBRANCH   1   2
BRANCH   1  20
ATOM     18  C   UNL     1      -3.040  12.109  19.410  0.00  0.00    +0.000 A 
ATOM     19  C   UNL     1      -1.703  11.907  19.815  0.00  0.00    +0.000 A 
ATOM     20  C   UNL     1      -0.867  10.950  19.195  0.00  0.00    +0.000 A 
ATOM     21  C   UNL     1      -1.451  10.092  18.268  0.00  0.00    +0.000 A 
ATOM     22  C   UNL     1      -2.761  10.290  17.849  0.00  0.00    +0.000 A 
ATOM     23  C   UNL     1      -3.557  11.308  18.380  0.00  0.00    +0.000 A 
BRANCH  23  24
ATOM     24  O   UNL     1      -4.788  11.353  17.787  0.00  0.00    +0.000 OA
ATOM     25  C   UNL     1      -5.851  10.602  18.348  0.00  0.00    +0.000 C 
ENDBRANCH  23  24
BRANCH  18  26
ATOM     26  O   UNL     1      -3.869  13.031  19.993  0.00  0.00    +0.000 OA
BRANCH  26  28
ATOM     27  C   UNL     1      -4.127  13.525  22.319  0.00  0.00    +0.000 C 
ATOM     28  C   UNL     1      -4.587  12.648  21.165  0.00  0.00    +0.000 C 
ENDBRANCH  26  28
ENDBRANCH  18  26
ENDBRANCH   1  20
BRANCH   1  29
ATOM     29  C   UNL     1       0.948  11.563  20.909  0.00  0.00    +0.000 C 
BRANCH  29  30
ATOM     30  S   UNL     1       1.691  13.156  20.695  0.00  0.00    +0.000 S 
ATOM     31  C   UNL     1       0.567  14.251  21.548  0.00  0.00    +0.000 C 
ATOM     32  O   UNL     1       2.929  13.205  21.437  0.00  0.00    +0.000 OA
ATOM     33  O   UNL     1       1.637  13.488  19.284  0.00  0.00    +0.000 OA
ENDBRANCH  29  30
ENDBRANCH   1  29
TORSDOF 8
ENDMDL
MODEL 8
REMARK VINA RESULT:      -7.4      1.938      3.613
REMARK  Name = 
REMARK  12 active torsions:
REMARK  status: ('A' for Active; 'I' for Inactive)
REMARK    1  A    between atoms: C_1  and  C_2
REMARK    2  A    between atoms: C_2  and  O_3
REMARK    3  A    between atoms: O_3  and  C_4
REMARK    4  A    between atoms: C_6  and  C_7
REMARK    5  A    between atoms: C_7  and  C_8
REMARK    6  A    between atoms: C_7  and  N_13
REMARK    7  A    between atoms: C_8  and  S_9
REMARK    8  A    between atoms: S_9  and  C_10
REMARK    9  A    between atoms: C_20  and  N_21
REMARK   10  A    between atoms: C_22  and  C_23
REMARK   11  A    between atoms: C_30  and  O_31
REMARK   12  A    between atoms: O_31  and  C_32
REMARK                            x       y       z     vdW  Elec       q    Type
REMARK                         _______ _______ _______ _____ _____    ______ ____
ROOT
ATOM      1  C   UNL     1       0.681  10.796  18.972  0.00  0.00    +0.000 C 
ENDROOT
BRANCH   1   2
ATOM      2  N   UNL     1       1.233   9.407  19.097  0.00  0.00    +0.000 N 
ATOM      3  C   UNL     1       1.042   8.756  20.288  0.00  0.00    +0.000 C 
ATOM      4  O   UNL     1       0.533   9.181  21.310  0.00  0.00    +0.000 OA
ATOM      5  C   UNL     1       1.600   7.427  20.167  0.00  0.00    +0.000 A 
ATOM      6  C   UNL     1       1.536   6.398  21.082  0.00  0.00    +0.000 A 
ATOM      7  C   UNL     1       2.169   5.211  20.752  0.00  0.00    +0.000 A 
ATOM      8  C   UNL     1       2.886   5.111  19.538  0.00  0.00    +0.000 A 
ATOM      9  C   UNL     1       2.964   6.171  18.607  0.00  0.00    +0.000 A 
ATOM     10  C   UNL     1       2.267   7.338  18.947  0.00  0.00    +0.000 A 
ATOM     11  C   UNL     1       2.012   8.619  18.268  0.00  0.00    +0.000 C 
ATOM     12  O   UNL     1       2.500   8.820  17.174  0.00  0.00    +0.000 OA
BRANCH   9  13
ATOM     13  N   UNL     1       3.783   6.077  17.449  0.00  0.00    +0.000 N 
ATOM     14  C   UNL     1       5.175   6.095  17.447  0.00  0.00    +0.000 C 
ATOM     15  C   UNL     1       5.806   6.345  16.100  0.00  0.00    +0.000 C 
ATOM     16  O   UNL     1       5.905   5.927  18.420  0.00  0.00    +0.000 OA
ATOM     17  H   UNL     1       3.299   5.973  16.560  0.00  0.00    +0.000 HD
ENDBRANCH   9  13
ENDBRANCH   1   2
BRANCH   1  20
ATOM     18  C   UNL     1      -2.882  12.207  19.408  0.00  0.00    +0.000 A 
ATOM     19  C   UNL     1      -1.514  11.923  19.604  0.00  0.00    +0.000 A 
ATOM     20  C   UNL     1      -0.813  11.002  18.791  0.00  0.00    +0.000 A 
ATOM     21  C   UNL     1      -1.555  10.257  17.880  0.00  0.00    +0.000 A 
ATOM     22  C   UNL     1      -2.900  10.537  17.666  0.00  0.00    +0.000 A 
ATOM     23  C   UNL     1      -3.569  11.525  18.392  0.00  0.00    +0.000 A 
BRANCH  23  24
ATOM     24  O   UNL     1      -4.866  11.667  17.981  0.00  0.00    +0.000 OA
ATOM     25  C   UNL     1      -5.845  10.765  18.466  0.00  0.00    +0.000 C 
ENDBRANCH  23  24
BRANCH  18  26
ATOM     26  O   UNL     1      -3.582  13.096  20.181  0.00  0.00    +0.000 OA
BRANCH  26  28
ATOM     27  C   UNL     1      -5.451  12.719  21.623  0.00  0.00    +0.000 C 
ATOM     28  C   UNL     1      -3.935  12.706  21.507  0.00  0.00    +0.000 C 
ENDBRANCH  26  28
ENDBRANCH  18  26
ENDBRANCH   1  20
BRANCH   1  29
ATOM     29  C   UNL     1       1.356  11.852  19.877  0.00  0.00    +0.000 C 
BRANCH  29  30
ATOM     30  S   UNL     1       2.092  13.211  19.012  0.00  0.00    +0.000 S 
ATOM     31  C   UNL     1       3.099  13.995  20.262  0.00  0.00    +0.000 C 
ATOM     32  O   UNL     1       3.015  12.701  18.025  0.00  0.00    +0.000 OA
ATOM     33  O   UNL     1       1.035  14.140  18.658  0.00  0.00    +0.000 OA
ENDBRANCH  29  30
ENDBRANCH   1  29
TORSDOF 8
ENDMDL
MODEL 9
REMARK VINA RESULT:      -7.2      2.472      7.462
REMARK  Name = 
REMARK  12 active torsions:
REMARK  status: ('A' for Active; 'I' for Inactive)
REMARK    1  A    between atoms: C_1  and  C_2
REMARK    2  A    between atoms: C_2  and  O_3
REMARK    3  A    between atoms: O_3  and  C_4
REMARK    4  A    between atoms: C_6  and  C_7
REMARK    5  A    between atoms: C_7  and  C_8
REMARK    6  A    between atoms: C_7  and  N_13
REMARK    7  A    between atoms: C_8  and  S_9
REMARK    8  A    between atoms: S_9  and  C_10
REMARK    9  A    between atoms: C_20  and  N_21
REMARK   10  A    between atoms: C_22  and  C_23
REMARK   11  A    between atoms: C_30  and  O_31
REMARK   12  A    between atoms: O_31  and  C_32
REMARK                            x       y       z     vdW  Elec       q    Type
REMARK                         _______ _______ _______ _____ _____    ______ ____
ROOT
ATOM      1  C   UNL     1       0.832  10.837  19.215  0.00  0.00    +0.000 C 
ENDROOT
BRANCH   1   2
ATOM      2  N   UNL     1      -0.636  11.135  19.170  0.00  0.00    +0.000 N 
ATOM      3  C   UNL     1      -1.368  10.563  18.162  0.00  0.00    +0.000 C 
ATOM      4  O   UNL     1      -0.971   9.882  17.232  0.00  0.00    +0.000 OA
ATOM      5  C   UNL     1      -2.753  10.937  18.344  0.00  0.00    +0.000 A 
ATOM      6  C   UNL     1      -3.846  10.500  17.626  0.00  0.00    +0.000 A 
ATOM      7  C   UNL     1      -5.084  11.017  17.972  0.00  0.00    +0.000 A 
ATOM      8  C   UNL     1      -5.178  11.992  18.991  0.00  0.00    +0.000 A 
ATOM      9  C   UNL     1      -4.054  12.451  19.716  0.00  0.00    +0.000 A 
ATOM     10  C   UNL     1      -2.827  11.867  19.379  0.00  0.00    +0.000 A 
ATOM     11  C   UNL     1      -1.456  11.975  19.904  0.00  0.00    +0.000 C 
ATOM     12  O   UNL     1      -1.228  12.744  20.817  0.00  0.00    +0.000 OA
BRANCH   9  13
ATOM     13  N   UNL     1      -4.166  13.510  20.657  0.00  0.00    +0.000 N 
ATOM     14  C   UNL     1      -4.472  13.358  22.006  0.00  0.00    +0.000 C 
ATOM     15  C   UNL     1      -4.886  14.626  22.712  0.00  0.00    +0.000 C 
ATOM     16  O   UNL     1      -4.432  12.311  22.646  0.00  0.00    +0.000 OA
ATOM     17  H   UNL     1      -3.988  14.449  20.303  0.00  0.00    +0.000 HD
ENDBRANCH   9  13
ENDBRANCH   1   2
BRANCH   1  20
ATOM     18  C   UNL     1       2.498   7.440  18.469  0.00  0.00    +0.000 A 
ATOM     19  C   UNL     1       1.964   8.737  18.322  0.00  0.00    +0.000 A 
ATOM     20  C   UNL     1       1.308   9.405  19.383  0.00  0.00    +0.000 A 
ATOM     21  C   UNL     1       1.062   8.678  20.544  0.00  0.00    +0.000 A 
ATOM     22  C   UNL     1       1.596   7.404  20.708  0.00  0.00    +0.000 A 
ATOM     23  C   UNL     1       2.341   6.785  19.700  0.00  0.00    +0.000 A 
BRANCH  23  24
ATOM     24  O   UNL     1       2.812   5.563  20.095  0.00  0.00    +0.000 OA
ATOM     25  C   UNL     1       2.033   4.779  20.982  0.00  0.00    +0.000 C 
ENDBRANCH  23  24
BRANCH  18  26
ATOM     26  O   UNL     1       3.139   6.774  17.457  0.00  0.00    +0.000 OA
BRANCH  26  28
ATOM     27  C   UNL     1       5.097   5.437  17.148  0.00  0.00    +0.000 C 
ATOM     28  C   UNL     1       4.563   6.838  17.403  0.00  0.00    +0.000 C 
ENDBRANCH  26  28
ENDBRANCH  18  26
ENDBRANCH   1  20
BRANCH   1  29
ATOM     29  C   UNL     1       1.701  11.679  18.252  0.00  0.00    +0.000 C 
BRANCH  29  30
ATOM     30  S   UNL     1       2.061  13.318  18.815  0.00  0.00    +0.000 S 
ATOM     31  C   UNL     1       2.183  13.126  20.586  0.00  0.00    +0.000 C 
ATOM     32  O   UNL     1       3.382  13.693  18.367  0.00  0.00    +0.000 OA
ATOM     33  O   UNL     1       0.902  14.148  18.545  0.00  0.00    +0.000 OA
ENDBRANCH  29  30
ENDBRANCH   1  29
TORSDOF 8
ENDMDL
