MODEL 1
REMARK VINA RESULT:      -8.9      0.000      0.000
REMARK  Name = 
REMARK  6 active torsions:
REMARK  status: ('A' for Active; 'I' for Inactive)
REMARK    1  A    between atoms: C_2  and  C_21
REMARK    2  A    between atoms: N_3  and  C_4
REMARK    3  A    between atoms: C_4  and  C_5
REMARK    4  A    between atoms: C_4  and  C_15
REMARK    5  A    between atoms: N_7  and  C_8
REMARK    6  A    between atoms: C_8  and  C_9
REMARK                            x       y       z     vdW  Elec       q    Type
REMARK                         _______ _______ _______ _____ _____    ______ ____
ROOT
ATOM      1  C   UNL     1       4.763   4.927  17.824  0.00  0.00    +0.000 C 
ENDROOT
BRANCH   1   2
ATOM      2  C   UNL     1       5.563   4.814  16.537  0.00  0.00    +0.000 A 
ATOM      3  C   UNL     1       6.743   5.564  16.381  0.00  0.00    +0.000 A 
ATOM      4  C   UNL     1       7.448   5.526  15.183  0.00  0.00    +0.000 A 
ATOM      5  C   UNL     1       6.988   4.728  14.137  0.00  0.00    +0.000 A 
ATOM      6  C   UNL     1       5.832   3.963  14.287  0.00  0.00    +0.000 A 
ATOM      7  C   UNL     1       5.122   3.996  15.484  0.00  0.00    +0.000 A 
ENDBRANCH   1   2
BRANCH   1  10
ATOM      8  O   UNL     1       2.011   5.431  17.713  0.00  0.00    +0.000 OA
ATOM      9  C   UNL     1       2.759   6.376  17.976  0.00  0.00    +0.000 C 
ATOM     10  N   UNL     1       4.137   6.261  17.881  0.00  0.00    +0.000 N 
ATOM     11  H   UNL     1       4.706   7.061  18.138  0.00  0.00    +0.000 HD
BRANCH   9  12
ATOM     12  C   UNL     1       2.177   7.623  18.616  0.00  0.00    +0.000 A 
ATOM     13  C   UNL     1       2.136   8.766  17.817  0.00  0.00    +0.000 A 
ATOM     14  C   UNL     1       1.459   9.883  18.271  0.00  0.00    +0.000 A 
ATOM     15  C   UNL     1       0.949   9.873  19.560  0.00  0.00    +0.000 A 
ATOM     16  C   UNL     1       0.406  11.050  20.074  0.00  0.00    +0.000 A 
ATOM     17  C   UNL     1       0.460  11.264  21.438  0.00  0.00    +0.000 A 
ATOM     18  C   UNL     1       0.644  10.168  22.268  0.00  0.00    +0.000 A 
ATOM     19  C   UNL     1       0.831   8.889  21.718  0.00  0.00    +0.000 A 
ATOM     20  C   UNL     1       1.121   8.716  20.362  0.00  0.00    +0.000 A 
ATOM     21  N   UNL     1       1.634   7.554  19.866  0.00  0.00    +0.000 NA
ENDBRANCH   9  12
ENDBRANCH   1  10
BRANCH   1  22
ATOM     22  C   UNL     1       5.626   4.388  19.051  0.00  0.00    +0.000 C 
ATOM     23  O   UNL     1       6.659   4.972  19.423  0.00  0.00    +0.000 OA
ATOM     24  N   UNL     1       5.341   3.222  19.708  0.00  0.00    +0.000 N 
ATOM     25  H   UNL     1       6.066   2.955  20.365  0.00  0.00    +0.000 HD
BRANCH  24  26
ATOM     26  C   UNL     1       4.458   2.207  19.229  0.00  0.00    +0.000 C 
BRANCH  26  27
ATOM     27  C   UNL     1       3.011   2.391  19.532  0.00  0.00    +0.000 A 
ATOM     28  C   UNL     1       2.644   3.060  20.708  0.00  0.00    +0.000 A 
ATOM     29  C   UNL     1       1.322   3.406  20.887  0.00  0.00    +0.000 A 
ATOM     30  N   UNL     1       0.351   3.119  19.994  0.00  0.00    +0.000 NA
ATOM     31  C   UNL     1       0.726   2.455  18.876  0.00  0.00    +0.000 A 
ATOM     32  C   UNL     1       2.027   2.074  18.600  0.00  0.00    +0.000 A 
ENDBRANCH  26  27
ENDBRANCH  24  26
ENDBRANCH   1  22
TORSDOF 6
ENDMDL
MODEL 2
REMARK VINA RESULT:      -8.7      0.701      1.630
REMARK  Name = 
REMARK  6 active torsions:
REMARK  status: ('A' for Active; 'I' for Inactive)
REMARK    1  A    between atoms: C_2  and  C_21
REMARK    2  A    between atoms: N_3  and  C_4
REMARK    3  A    between atoms: C_4  and  C_5
REMARK    4  A    between atoms: C_4  and  C_15
REMARK    5  A    between atoms: N_7  and  C_8
REMARK    6  A    between atoms: C_8  and  C_9
REMARK                            x       y       z     vdW  Elec       q    Type
REMARK                         _______ _______ _______ _____ _____    ______ ____
ROOT
ATOM      1  C   UNL     1       4.632   4.923  18.140  0.00  0.00    +0.000 C 
ENDROOT
BRANCH   1   2
ATOM      2  C   UNL     1       5.385   4.936  16.820  0.00  0.00    +0.000 A 
ATOM      3  C   UNL     1       5.139   3.934  15.865  0.00  0.00    +0.000 A 
ATOM      4  C   UNL     1       5.870   3.891  14.683  0.00  0.00    +0.000 A 
ATOM      5  C   UNL     1       6.843   4.858  14.440  0.00  0.00    +0.000 A 
ATOM      6  C   UNL     1       7.082   5.870  15.369  0.00  0.00    +0.000 A 
ATOM      7  C   UNL     1       6.354   5.919  16.553  0.00  0.00    +0.000 A 
ENDBRANCH   1   2
BRANCH   1  10
ATOM      8  O   UNL     1       1.911   5.484  17.791  0.00  0.00    +0.000 OA
ATOM      9  C   UNL     1       2.619   6.361  18.292  0.00  0.00    +0.000 C 
ATOM     10  N   UNL     1       4.000   6.240  18.341  0.00  0.00    +0.000 N 
ATOM     11  H   UNL     1       4.532   6.978  18.790  0.00  0.00    +0.000 HD
BRANCH   9  12
ATOM     12  C   UNL     1       1.963   7.496  19.055  0.00  0.00    +0.000 A 
ATOM     13  C   UNL     1       1.750   7.283  20.417  0.00  0.00    +0.000 A 
ATOM     14  C   UNL     1       1.322   8.336  21.206  0.00  0.00    +0.000 A 
ATOM     15  C   UNL     1       0.999   9.537  20.594  0.00  0.00    +0.000 A 
ATOM     16  C   UNL     1       0.421  10.546  21.364  0.00  0.00    +0.000 A 
ATOM     17  C   UNL     1      -0.432  11.442  20.748  0.00  0.00    +0.000 A 
ATOM     18  C   UNL     1      -0.354  11.583  19.370  0.00  0.00    +0.000 A 
ATOM     19  C   UNL     1       0.531  10.784  18.628  0.00  0.00    +0.000 A 
ATOM     20  C   UNL     1       1.134   9.654  19.187  0.00  0.00    +0.000 A 
ATOM     21  N   UNL     1       1.714   8.682  18.426  0.00  0.00    +0.000 NA
ENDBRANCH   9  12
ENDBRANCH   1  10
BRANCH   1  22
ATOM     22  C   UNL     1       5.541   4.283  19.280  0.00  0.00    +0.000 C 
ATOM     23  O   UNL     1       6.591   4.832  19.657  0.00  0.00    +0.000 OA
ATOM     24  N   UNL     1       5.277   3.066  19.849  0.00  0.00    +0.000 N 
ATOM     25  H   UNL     1       6.027   2.744  20.451  0.00  0.00    +0.000 HD
BRANCH  24  26
ATOM     26  C   UNL     1       4.371   2.096  19.324  0.00  0.00    +0.000 C 
BRANCH  26  27
ATOM     27  C   UNL     1       2.922   2.345  19.564  0.00  0.00    +0.000 A 
ATOM     28  C   UNL     1       2.537   3.059  20.707  0.00  0.00    +0.000 A 
ATOM     29  C   UNL     1       1.224   3.462  20.824  0.00  0.00    +0.000 A 
ATOM     30  N   UNL     1       0.278   3.189  19.901  0.00  0.00    +0.000 NA
ATOM     31  C   UNL     1       0.668   2.481  18.817  0.00  0.00    +0.000 A 
ATOM     32  C   UNL     1       1.963   2.041  18.603  0.00  0.00    +0.000 A 
ENDBRANCH  26  27
ENDBRANCH  24  26
ENDBRANCH   1  22
TORSDOF 6
ENDMDL
MODEL 3
REMARK VINA RESULT:      -8.6      0.904      1.193
REMARK  Name = 
REMARK  6 active torsions:
REMARK  status: ('A' for Active; 'I' for Inactive)
REMARK    1  A    between atoms: C_2  and  C_21
REMARK    2  A    between atoms: N_3  and  C_4
REMARK    3  A    between atoms: C_4  and  C_5
REMARK    4  A    between atoms: C_4  and  C_15
REMARK    5  A    between atoms: N_7  and  C_8
REMARK    6  A    between atoms: C_8  and  C_9
REMARK                            x       y       z     vdW  Elec       q    Type
REMARK                         _______ _______ _______ _____ _____    ______ ____
ROOT
ATOM      1  C   UNL     1       4.317   4.328  17.674  0.00  0.00    +0.000 C 
ENDROOT
BRANCH   1   2
ATOM      2  C   UNL     1       5.059   4.604  16.378  0.00  0.00    +0.000 A 
ATOM      3  C   UNL     1       5.622   3.537  15.655  0.00  0.00    +0.000 A 
ATOM      4  C   UNL     1       6.364   3.779  14.504  0.00  0.00    +0.000 A 
ATOM      5  C   UNL     1       6.538   5.088  14.059  0.00  0.00    +0.000 A 
ATOM      6  C   UNL     1       5.966   6.153  14.754  0.00  0.00    +0.000 A 
ATOM      7  C   UNL     1       5.222   5.918  15.906  0.00  0.00    +0.000 A 
ENDBRANCH   1   2
BRANCH   1  10
ATOM      8  O   UNL     1       3.583   5.526  20.096  0.00  0.00    +0.000 OA
ATOM      9  C   UNL     1       3.087   5.974  19.059  0.00  0.00    +0.000 C 
ATOM     10  N   UNL     1       3.255   5.337  17.840  0.00  0.00    +0.000 N 
ATOM     11  H   UNL     1       2.849   5.764  17.014  0.00  0.00    +0.000 HD
BRANCH   9  12
ATOM     12  C   UNL     1       2.459   7.355  19.077  0.00  0.00    +0.000 A 
ATOM     13  C   UNL     1       2.567   8.098  17.901  0.00  0.00    +0.000 A 
ATOM     14  C   UNL     1       1.867   9.286  17.786  0.00  0.00    +0.000 A 
ATOM     15  C   UNL     1       1.179   9.761  18.892  0.00  0.00    +0.000 A 
ATOM     16  C   UNL     1       0.604  11.030  18.827  0.00  0.00    +0.000 A 
ATOM     17  C   UNL     1       0.471  11.757  19.994  0.00  0.00    +0.000 A 
ATOM     18  C   UNL     1       0.501  11.072  21.201  0.00  0.00    +0.000 A 
ATOM     19  C   UNL     1       0.725   9.686  21.221  0.00  0.00    +0.000 A 
ATOM     20  C   UNL     1       1.199   9.009  20.095  0.00  0.00    +0.000 A 
ATOM     21  N   UNL     1       1.742   7.761  20.165  0.00  0.00    +0.000 NA
ENDBRANCH   9  12
ENDBRANCH   1  10
BRANCH   1  22
ATOM     22  C   UNL     1       5.357   4.053  18.850  0.00  0.00    +0.000 C 
ATOM     23  O   UNL     1       6.393   4.731  18.970  0.00  0.00    +0.000 OA
ATOM     24  N   UNL     1       5.226   3.018  19.735  0.00  0.00    +0.000 N 
ATOM     25  H   UNL     1       6.042   2.900  20.325  0.00  0.00    +0.000 HD
BRANCH  24  26
ATOM     26  C   UNL     1       4.351   1.903  19.566  0.00  0.00    +0.000 C 
BRANCH  26  27
ATOM     27  C   UNL     1       2.896   2.169  19.743  0.00  0.00    +0.000 A 
ATOM     28  C   UNL     1       2.444   2.677  20.969  0.00  0.00    +0.000 A 
ATOM     29  C   UNL     1       1.139   3.111  21.064  0.00  0.00    +0.000 A 
ATOM     30  N   UNL     1       0.262   3.058  20.040  0.00  0.00    +0.000 NA
ATOM     31  C   UNL     1       0.715   2.545  18.873  0.00  0.00    +0.000 A 
ATOM     32  C   UNL     1       2.007   2.093  18.674  0.00  0.00    +0.000 A 
ENDBRANCH  26  27
ENDBRANCH  24  26
ENDBRANCH   1  22
TORSDOF 6
ENDMDL
MODEL 4
REMARK VINA RESULT:      -8.1      1.841      4.969
REMARK  Name = 
REMARK  6 active torsions:
REMARK  status: ('A' for Active; 'I' for Inactive)
REMARK    1  A    between atoms: C_2  and  C_21
REMARK    2  A    between atoms: N_3  and  C_4
REMARK    3  A    between atoms: C_4  and  C_5
REMARK    4  A    between atoms: C_4  and  C_15
REMARK    5  A    between atoms: N_7  and  C_8
REMARK    6  A    between atoms: C_8  and  C_9
REMARK                            x       y       z     vdW  Elec       q    Type
REMARK                         _______ _______ _______ _____ _____    ______ ____
ROOT
ATOM      1  C   UNL     1       2.817   5.079  19.035  0.00  0.00    +0.000 C 
ENDROOT
BRANCH   1   2
ATOM      2  C   UNL     1       2.649   4.000  20.091  0.00  0.00    +0.000 A 
ATOM      3  C   UNL     1       3.701   3.101  20.344  0.00  0.00    +0.000 A 
ATOM      4  C   UNL     1       3.538   2.064  21.256  0.00  0.00    +0.000 A 
ATOM      5  C   UNL     1       2.328   1.927  21.934  0.00  0.00    +0.000 A 
ATOM      6  C   UNL     1       1.285   2.825  21.709  0.00  0.00    +0.000 A 
ATOM      7  C   UNL     1       1.442   3.864  20.798  0.00  0.00    +0.000 A 
ENDBRANCH   1   2
BRANCH   1  10
ATOM      8  O   UNL     1       3.265   7.599  17.898  0.00  0.00    +0.000 OA
ATOM      9  C   UNL     1       2.480   7.527  18.848  0.00  0.00    +0.000 C 
ATOM     10  N   UNL     1       2.331   6.360  19.581  0.00  0.00    +0.000 N 
ATOM     11  H   UNL     1       1.651   6.348  20.333  0.00  0.00    +0.000 HD
BRANCH   9  12
ATOM     12  C   UNL     1       1.507   8.666  19.090  0.00  0.00    +0.000 A 
ATOM     13  C   UNL     1       1.007   9.304  17.955  0.00  0.00    +0.000 A 
ATOM     14  C   UNL     1      -0.014  10.227  18.093  0.00  0.00    +0.000 A 
ATOM     15  C   UNL     1      -0.422  10.579  19.370  0.00  0.00    +0.000 A 
ATOM     16  C   UNL     1      -1.339  11.620  19.516  0.00  0.00    +0.000 A 
ATOM     17  C   UNL     1      -1.304  12.376  20.671  0.00  0.00    +0.000 A 
ATOM     18  C   UNL     1      -0.687  11.837  21.791  0.00  0.00    +0.000 A 
ATOM     19  C   UNL     1      -0.065  10.580  21.718  0.00  0.00    +0.000 A 
ATOM     20  C   UNL     1       0.204   9.972  20.489  0.00  0.00    +0.000 A 
ATOM     21  N   UNL     1       1.089   8.943  20.360  0.00  0.00    +0.000 NA
ENDBRANCH   9  12
ENDBRANCH   1  10
BRANCH   1  22
ATOM     22  C   UNL     1       2.290   4.552  17.628  0.00  0.00    +0.000 C 
ATOM     23  O   UNL     1       1.091   4.643  17.309  0.00  0.00    +0.000 OA
ATOM     24  N   UNL     1       3.088   3.897  16.730  0.00  0.00    +0.000 N 
ATOM     25  H   UNL     1       2.566   3.505  15.953  0.00  0.00    +0.000 HD
BRANCH  24  26
ATOM     26  C   UNL     1       4.371   3.345  17.025  0.00  0.00    +0.000 C 
BRANCH  26  27
ATOM     27  C   UNL     1       5.552   4.121  16.551  0.00  0.00    +0.000 A 
ATOM     28  C   UNL     1       6.002   3.933  15.237  0.00  0.00    +0.000 A 
ATOM     29  C   UNL     1       6.959   4.791  14.737  0.00  0.00    +0.000 A 
ATOM     30  N   UNL     1       7.502   5.798  15.455  0.00  0.00    +0.000 NA
ATOM     31  C   UNL     1       7.065   5.947  16.726  0.00  0.00    +0.000 A 
ATOM     32  C   UNL     1       6.103   5.145  17.315  0.00  0.00    +0.000 A 
ENDBRANCH  26  27
ENDBRANCH  24  26
ENDBRANCH   1  22
TORSDOF 6
ENDMDL
MODEL 5
REMARK VINA RESULT:      -8.1      0.938      1.337
REMARK  Name = 
REMARK  6 active torsions:
REMARK  status: ('A' for Active; 'I' for Inactive)
REMARK    1  A    between atoms: C_2  and  C_21
REMARK    2  A    between atoms: N_3  and  C_4
REMARK    3  A    between atoms: C_4  and  C_5
REMARK    4  A    between atoms: C_4  and  C_15
REMARK    5  A    between atoms: N_7  and  C_8
REMARK    6  A    between atoms: C_8  and  C_9
REMARK                            x       y       z     vdW  Elec       q    Type
REMARK                         _______ _______ _______ _____ _____    ______ ____
ROOT
ATOM      1  C   UNL     1       4.375   4.345  17.682  0.00  0.00    +0.000 C 
ENDROOT
BRANCH   1   2
ATOM      2  C   UNL     1       5.119   4.614  16.384  0.00  0.00    +0.000 A 
ATOM      3  C   UNL     1       5.166   5.921  15.865  0.00  0.00    +0.000 A 
ATOM      4  C   UNL     1       5.782   6.173  14.645  0.00  0.00    +0.000 A 
ATOM      5  C   UNL     1       6.368   5.123  13.939  0.00  0.00    +0.000 A 
ATOM      6  C   UNL     1       6.347   3.827  14.454  0.00  0.00    +0.000 A 
ATOM      7  C   UNL     1       5.733   3.569  15.675  0.00  0.00    +0.000 A 
ENDBRANCH   1   2
BRANCH   1  10
ATOM      8  O   UNL     1       3.638   5.560  20.094  0.00  0.00    +0.000 OA
ATOM      9  C   UNL     1       3.141   6.000  19.054  0.00  0.00    +0.000 C 
ATOM     10  N   UNL     1       3.310   5.353  17.839  0.00  0.00    +0.000 N 
ATOM     11  H   UNL     1       2.904   5.773  17.010  0.00  0.00    +0.000 HD
BRANCH   9  12
ATOM     12  C   UNL     1       2.511   7.379  19.060  0.00  0.00    +0.000 A 
ATOM     13  C   UNL     1       2.661   8.133  17.896  0.00  0.00    +0.000 A 
ATOM     14  C   UNL     1       1.964   9.321  17.766  0.00  0.00    +0.000 A 
ATOM     15  C   UNL     1       1.235   9.786  18.850  0.00  0.00    +0.000 A 
ATOM     16  C   UNL     1       0.661  11.054  18.775  0.00  0.00    +0.000 A 
ATOM     17  C   UNL     1       0.483  11.770  19.944  0.00  0.00    +0.000 A 
ATOM     18  C   UNL     1       0.469  11.075  21.144  0.00  0.00    +0.000 A 
ATOM     19  C   UNL     1       0.695   9.689  21.160  0.00  0.00    +0.000 A 
ATOM     20  C   UNL     1       1.211   9.023  20.046  0.00  0.00    +0.000 A 
ATOM     21  N   UNL     1       1.753   7.774  20.125  0.00  0.00    +0.000 NA
ENDBRANCH   9  12
ENDBRANCH   1  10
BRANCH   1  22
ATOM     22  C   UNL     1       5.413   4.079  18.860  0.00  0.00    +0.000 C 
ATOM     23  O   UNL     1       6.478   4.716  18.942  0.00  0.00    +0.000 OA
ATOM     24  N   UNL     1       5.246   3.091  19.792  0.00  0.00    +0.000 N 
ATOM     25  H   UNL     1       6.062   2.965  20.381  0.00  0.00    +0.000 HD
BRANCH  24  26
ATOM     26  C   UNL     1       4.322   2.008  19.681  0.00  0.00    +0.000 C 
BRANCH  26  27
ATOM     27  C   UNL     1       2.876   2.362  19.731  0.00  0.00    +0.000 A 
ATOM     28  C   UNL     1       2.074   2.095  18.613  0.00  0.00    +0.000 A 
ATOM     29  C   UNL     1       0.707   2.234  18.732  0.00  0.00    +0.000 A 
ATOM     30  N   UNL     1       0.097   2.633  19.868  0.00  0.00    +0.000 NA
ATOM     31  C   UNL     1       0.893   2.904  20.927  0.00  0.00    +0.000 A 
ATOM     32  C   UNL     1       2.272   2.785  20.911  0.00  0.00    +0.000 A 
ENDBRANCH  26  27
ENDBRANCH  24  26
ENDBRANCH   1  22
TORSDOF 6
ENDMDL
MODEL 6
REMARK VINA RESULT:      -8.0      1.731      4.497
REMARK  Name = 
REMARK  6 active torsions:
REMARK  status: ('A' for Active; 'I' for Inactive)
REMARK    1  A    between atoms: C_2  and  C_21
REMARK    2  A    between atoms: N_3  and  C_4
REMARK    3  A    between atoms: C_4  and  C_5
REMARK    4  A    between atoms: C_4  and  C_15
REMARK    5  A    between atoms: N_7  and  C_8
REMARK    6  A    between atoms: C_8  and  C_9
REMARK                            x       y       z     vdW  Elec       q    Type
REMARK                         _______ _______ _______ _____ _____    ______ ____
ROOT
ATOM      1  C   UNL     1       4.579   5.296  19.310  0.00  0.00    +0.000 C 
ENDROOT
BRANCH   1   2
ATOM      2  C   UNL     1       4.046   3.946  18.861  0.00  0.00    +0.000 A 
ATOM      3  C   UNL     1       3.186   3.870  17.750  0.00  0.00    +0.000 A 
ATOM      4  C   UNL     1       2.633   2.652  17.368  0.00  0.00    +0.000 A 
ATOM      5  C   UNL     1       2.946   1.499  18.086  0.00  0.00    +0.000 A 
ATOM      6  C   UNL     1       3.814   1.558  19.176  0.00  0.00    +0.000 A 
ATOM      7  C   UNL     1       4.371   2.773  19.562  0.00  0.00    +0.000 A 
ENDBRANCH   1   2
BRANCH   1  10
ATOM      8  O   UNL     1       2.112   5.917  20.480  0.00  0.00    +0.000 OA
ATOM      9  C   UNL     1       2.538   6.671  19.602  0.00  0.00    +0.000 C 
ATOM     10  N   UNL     1       3.657   6.350  18.849  0.00  0.00    +0.000 N 
ATOM     11  H   UNL     1       3.982   7.020  18.159  0.00  0.00    +0.000 HD
BRANCH   9  12
ATOM     12  C   UNL     1       1.958   8.067  19.481  0.00  0.00    +0.000 A 
ATOM     13  C   UNL     1       2.082   8.682  18.235  0.00  0.00    +0.000 A 
ATOM     14  C   UNL     1       1.422   9.876  18.002  0.00  0.00    +0.000 A 
ATOM     15  C   UNL     1       0.759  10.485  19.057  0.00  0.00    +0.000 A 
ATOM     16  C   UNL     1       0.228  11.760  18.865  0.00  0.00    +0.000 A 
ATOM     17  C   UNL     1       0.129  12.606  19.953  0.00  0.00    +0.000 A 
ATOM     18  C   UNL     1       0.146  12.048  21.223  0.00  0.00    +0.000 A 
ATOM     19  C   UNL     1       0.323  10.664  21.384  0.00  0.00    +0.000 A 
ATOM     20  C   UNL     1       0.764   9.860  20.330  0.00  0.00    +0.000 A 
ATOM     21  N   UNL     1       1.264   8.607  20.526  0.00  0.00    +0.000 NA
ENDBRANCH   9  12
ENDBRANCH   1  10
BRANCH   1  22
ATOM     22  C   UNL     1       6.139   5.396  19.000  0.00  0.00    +0.000 C 
ATOM     23  O   UNL     1       6.978   5.464  19.915  0.00  0.00    +0.000 OA
ATOM     24  N   UNL     1       6.642   5.501  17.732  0.00  0.00    +0.000 N 
ATOM     25  H   UNL     1       7.636   5.699  17.719  0.00  0.00    +0.000 HD
BRANCH  24  26
ATOM     26  C   UNL     1       5.876   5.827  16.571  0.00  0.00    +0.000 C 
BRANCH  26  27
ATOM     27  C   UNL     1       6.223   5.094  15.321  0.00  0.00    +0.000 A 
ATOM     28  C   UNL     1       5.269   4.240  14.750  0.00  0.00    +0.000 A 
ATOM     29  C   UNL     1       5.512   3.723  13.495  0.00  0.00    +0.000 A 
ATOM     30  N   UNL     1       6.633   3.982  12.789  0.00  0.00    +0.000 NA
ATOM     31  C   UNL     1       7.547   4.792  13.370  0.00  0.00    +0.000 A 
ATOM     32  C   UNL     1       7.392   5.368  14.618  0.00  0.00    +0.000 A 
ENDBRANCH  26  27
ENDBRANCH  24  26
ENDBRANCH   1  22
TORSDOF 6
ENDMDL
MODEL 7
REMARK VINA RESULT:      -7.9      2.066      5.266
REMARK  Name = 
REMARK  6 active torsions:
REMARK  status: ('A' for Active; 'I' for Inactive)
REMARK    1  A    between atoms: C_2  and  C_21
REMARK    2  A    between atoms: N_3  and  C_4
REMARK    3  A    between atoms: C_4  and  C_5
REMARK    4  A    between atoms: C_4  and  C_15
REMARK    5  A    between atoms: N_7  and  C_8
REMARK    6  A    between atoms: C_8  and  C_9
REMARK                            x       y       z     vdW  Elec       q    Type
REMARK                         _______ _______ _______ _____ _____    ______ ____
ROOT
ATOM      1  C   UNL     1       3.107   6.073  19.493  0.00  0.00    +0.000 C 
ENDROOT
BRANCH   1   2
ATOM      2  C   UNL     1       2.757   4.746  20.144  0.00  0.00    +0.000 A 
ATOM      3  C   UNL     1       1.528   4.599  20.813  0.00  0.00    +0.000 A 
ATOM      4  C   UNL     1       1.222   3.415  21.474  0.00  0.00    +0.000 A 
ATOM      5  C   UNL     1       2.136   2.362  21.460  0.00  0.00    +0.000 A 
ATOM      6  C   UNL     1       3.349   2.487  20.783  0.00  0.00    +0.000 A 
ATOM      7  C   UNL     1       3.660   3.670  20.119  0.00  0.00    +0.000 A 
ENDBRANCH   1   2
BRANCH   1  10
ATOM      8  O   UNL     1       2.048   8.497  18.577  0.00  0.00    +0.000 OA
ATOM      9  C   UNL     1       1.969   8.255  19.784  0.00  0.00    +0.000 C 
ATOM     10  N   UNL     1       2.618   7.168  20.350  0.00  0.00    +0.000 N 
ATOM     11  H   UNL     1       2.496   7.000  21.343  0.00  0.00    +0.000 HD
BRANCH   9  12
ATOM     12  C   UNL     1       0.981   9.034  20.631  0.00  0.00    +0.000 A 
ATOM     13  C   UNL     1       0.594   8.439  21.833  0.00  0.00    +0.000 A 
ATOM     14  C   UNL     1      -0.161   9.168  22.735  0.00  0.00    +0.000 A 
ATOM     15  C   UNL     1      -0.613  10.424  22.360  0.00  0.00    +0.000 A 
ATOM     16  C   UNL     1      -1.501  11.092  23.203  0.00  0.00    +0.000 A 
ATOM     17  C   UNL     1      -2.404  11.977  22.644  0.00  0.00    +0.000 A 
ATOM     18  C   UNL     1      -2.130  12.487  21.383  0.00  0.00    +0.000 A 
ATOM     19  C   UNL     1      -0.993  12.057  20.680  0.00  0.00    +0.000 A 
ATOM     20  C   UNL     1      -0.274  10.927  21.078  0.00  0.00    +0.000 A 
ATOM     21  N   UNL     1       0.606  10.291  20.254  0.00  0.00    +0.000 NA
ENDBRANCH   9  12
ENDBRANCH   1  10
BRANCH   1  22
ATOM     22  C   UNL     1       2.737   6.035  17.944  0.00  0.00    +0.000 C 
ATOM     23  O   UNL     1       1.795   5.342  17.520  0.00  0.00    +0.000 OA
ATOM     24  N   UNL     1       3.470   6.680  16.986  0.00  0.00    +0.000 N 
ATOM     25  H   UNL     1       3.185   6.438  16.043  0.00  0.00    +0.000 HD
BRANCH  24  26
ATOM     26  C   UNL     1       4.783   7.208  17.177  0.00  0.00    +0.000 C 
BRANCH  26  27
ATOM     27  C   UNL     1       5.914   6.259  16.975  0.00  0.00    +0.000 A 
ATOM     28  C   UNL     1       6.734   5.941  18.067  0.00  0.00    +0.000 A 
ATOM     29  C   UNL     1       7.648   4.917  17.931  0.00  0.00    +0.000 A 
ATOM     30  N   UNL     1       7.809   4.212  16.791  0.00  0.00    +0.000 NA
ATOM     31  C   UNL     1       7.020   4.550  15.746  0.00  0.00    +0.000 A 
ATOM     32  C   UNL     1       6.068   5.554  15.785  0.00  0.00    +0.000 A 
ENDBRANCH  26  27
ENDBRANCH  24  26
ENDBRANCH   1  22
TORSDOF 6
ENDMDL
MODEL 8
REMARK VINA RESULT:      -7.9      1.658      2.318
REMARK  Name = 
REMARK  6 active torsions:
REMARK  status: ('A' for Active; 'I' for Inactive)
REMARK    1  A    between atoms: C_2  and  C_21
REMARK    2  A    between atoms: N_3  and  C_4
REMARK    3  A    between atoms: C_4  and  C_5
REMARK    4  A    between atoms: C_4  and  C_15
REMARK    5  A    between atoms: N_7  and  C_8
REMARK    6  A    between atoms: C_8  and  C_9
REMARK                            x       y       z     vdW  Elec       q    Type
REMARK                         _______ _______ _______ _____ _____    ______ ____
ROOT
ATOM      1  C   UNL     1       4.790   5.459  16.700  0.00  0.00    +0.000 C 
ENDROOT
BRANCH   1   2
ATOM      2  C   UNL     1       5.990   6.050  17.420  0.00  0.00    +0.000 A 
ATOM      3  C   UNL     1       6.437   7.342  17.087  0.00  0.00    +0.000 A 
ATOM      4  C   UNL     1       7.575   7.870  17.686  0.00  0.00    +0.000 A 
ATOM      5  C   UNL     1       8.268   7.117  18.632  0.00  0.00    +0.000 A 
ATOM      6  C   UNL     1       7.823   5.844  18.987  0.00  0.00    +0.000 A 
ATOM      7  C   UNL     1       6.684   5.311  18.392  0.00  0.00    +0.000 A 
ENDBRANCH   1   2
BRANCH   1  10
ATOM      8  O   UNL     1       4.210   5.880  19.407  0.00  0.00    +0.000 OA
ATOM      9  C   UNL     1       3.457   6.387  18.571  0.00  0.00    +0.000 C 
ATOM     10  N   UNL     1       3.563   6.088  17.221  0.00  0.00    +0.000 N 
ATOM     11  H   UNL     1       2.936   6.555  16.575  0.00  0.00    +0.000 HD
BRANCH   9  12
ATOM     12  C   UNL     1       2.534   7.513  18.995  0.00  0.00    +0.000 A 
ATOM     13  C   UNL     1       2.234   8.467  18.022  0.00  0.00    +0.000 A 
ATOM     14  C   UNL     1       1.263   9.417  18.283  0.00  0.00    +0.000 A 
ATOM     15  C   UNL     1       0.708   9.467  19.552  0.00  0.00    +0.000 A 
ATOM     16  C   UNL     1      -0.153  10.519  19.863  0.00  0.00    +0.000 A 
ATOM     17  C   UNL     1      -0.229  10.946  21.175  0.00  0.00    +0.000 A 
ATOM     18  C   UNL     1       0.194  10.080  22.174  0.00  0.00    +0.000 A 
ATOM     19  C   UNL     1       0.741   8.831  21.839  0.00  0.00    +0.000 A 
ATOM     20  C   UNL     1       1.136   8.536  20.532  0.00  0.00    +0.000 A 
ATOM     21  N   UNL     1       1.964   7.493  20.235  0.00  0.00    +0.000 NA
ENDBRANCH   9  12
ENDBRANCH   1  10
BRANCH   1  22
ATOM     22  C   UNL     1       4.918   3.872  16.639  0.00  0.00    +0.000 C 
ATOM     23  O   UNL     1       5.834   3.320  16.003  0.00  0.00    +0.000 OA
ATOM     24  N   UNL     1       3.999   3.027  17.198  0.00  0.00    +0.000 N 
ATOM     25  H   UNL     1       4.153   2.057  16.946  0.00  0.00    +0.000 HD
BRANCH  24  26
ATOM     26  C   UNL     1       2.694   3.410  17.634  0.00  0.00    +0.000 C 
BRANCH  26  27
ATOM     27  C   UNL     1       2.363   3.129  19.059  0.00  0.00    +0.000 A 
ATOM     28  C   UNL     1       3.334   2.531  19.875  0.00  0.00    +0.000 A 
ATOM     29  C   UNL     1       3.102   2.457  21.232  0.00  0.00    +0.000 A 
ATOM     30  N   UNL     1       1.977   2.916  21.820  0.00  0.00    +0.000 NA
ATOM     31  C   UNL     1       1.047   3.471  21.010  0.00  0.00    +0.000 A 
ATOM     32  C   UNL     1       1.190   3.600  19.640  0.00  0.00    +0.000 A 
ENDBRANCH  26  27
ENDBRANCH  24  26
ENDBRANCH   1  22
TORSDOF 6
ENDMDL
MODEL 9
REMARK VINA RESULT:      -7.8      1.767      2.688
REMARK  Name = 
REMARK  6 active torsions:
REMARK  status: ('A' for Active; 'I' for Inactive)
REMARK    1  A    between atoms: C_2  and  C_21
REMARK    2  A    between atoms: N_3  and  C_4
REMARK    3  A    between atoms: C_4  and  C_5
REMARK    4  A    between atoms: C_4  and  C_15
REMARK    5  A    between atoms: N_7  and  C_8
REMARK    6  A    between atoms: C_8  and  C_9
REMARK                            x       y       z     vdW  Elec       q    Type
REMARK                         _______ _______ _______ _____ _____    ______ ____
ROOT
ATOM      1  C   UNL     1       4.702   5.311  16.812  0.00  0.00    +0.000 C 
ENDROOT
BRANCH   1   2
ATOM      2  C   UNL     1       5.901   5.994  17.448  0.00  0.00    +0.000 A 
ATOM      3  C   UNL     1       6.241   7.305  17.068  0.00  0.00    +0.000 A 
ATOM      4  C   UNL     1       7.375   7.918  17.588  0.00  0.00    +0.000 A 
ATOM      5  C   UNL     1       8.171   7.231  18.503  0.00  0.00    +0.000 A 
ATOM      6  C   UNL     1       7.832   5.939  18.905  0.00  0.00    +0.000 A 
ATOM      7  C   UNL     1       6.698   5.321  18.389  0.00  0.00    +0.000 A 
ENDBRANCH   1   2
BRANCH   1  10
ATOM      8  O   UNL     1       4.279   5.664  19.557  0.00  0.00    +0.000 OA
ATOM      9  C   UNL     1       3.435   6.120  18.782  0.00  0.00    +0.000 C 
ATOM     10  N   UNL     1       3.470   5.842  17.424  0.00  0.00    +0.000 N 
ATOM     11  H   UNL     1       2.768   6.267  16.828  0.00  0.00    +0.000 HD
BRANCH   9  12
ATOM     12  C   UNL     1       2.462   7.170  19.283  0.00  0.00    +0.000 A 
ATOM     13  C   UNL     1       1.923   6.957  20.553  0.00  0.00    +0.000 A 
ATOM     14  C   UNL     1       1.172   7.958  21.144  0.00  0.00    +0.000 A 
ATOM     15  C   UNL     1       0.875   9.092  20.403  0.00  0.00    +0.000 A 
ATOM     16  C   UNL     1      -0.008  10.027  20.939  0.00  0.00    +0.000 A 
ATOM     17  C   UNL     1      -0.773  10.787  20.074  0.00  0.00    +0.000 A 
ATOM     18  C   UNL     1      -0.349  10.910  18.758  0.00  0.00    +0.000 A 
ATOM     19  C   UNL     1       0.794  10.224  18.318  0.00  0.00    +0.000 A 
ATOM     20  C   UNL     1       1.364   9.198  19.076  0.00  0.00    +0.000 A 
ATOM     21  N   UNL     1       2.242   8.299  18.548  0.00  0.00    +0.000 NA
ENDBRANCH   9  12
ENDBRANCH   1  10
BRANCH   1  22
ATOM     22  C   UNL     1       4.949   3.740  16.731  0.00  0.00    +0.000 C 
ATOM     23  O   UNL     1       5.919   3.267  16.112  0.00  0.00    +0.000 OA
ATOM     24  N   UNL     1       4.080   2.820  17.252  0.00  0.00    +0.000 N 
ATOM     25  H   UNL     1       4.312   1.868  16.991  0.00  0.00    +0.000 HD
BRANCH  24  26
ATOM     26  C   UNL     1       2.740   3.099  17.658  0.00  0.00    +0.000 C 
BRANCH  26  27
ATOM     27  C   UNL     1       2.420   2.863  19.094  0.00  0.00    +0.000 A 
ATOM     28  C   UNL     1       3.435   2.411  19.949  0.00  0.00    +0.000 A 
ATOM     29  C   UNL     1       3.194   2.386  21.306  0.00  0.00    +0.000 A 
ATOM     30  N   UNL     1       2.021   2.760  21.859  0.00  0.00    +0.000 NA
ATOM     31  C   UNL     1       1.050   3.173  21.013  0.00  0.00    +0.000 A 
ATOM     32  C   UNL     1       1.197   3.243  19.639  0.00  0.00    +0.000 A 
ENDBRANCH  26  27
ENDBRANCH  24  26
ENDBRANCH   1  22
TORSDOF 6
ENDMDL
