MODEL 1
REMARK VINA RESULT:      -8.1      0.000      0.000
REMARK  Name = 
REMARK  6 active torsions:
REMARK  status: ('A' for Active; 'I' for Inactive)
REMARK    1  A    between atoms: C_2  and  C_3
REMARK    2  A    between atoms: N_6  and  C_7
REMARK    3  A    between atoms: C_7  and  C_8
REMARK    4  A    between atoms: C_14  and  N_15
REMARK    5  A    between atoms: C_17  and  C_18
REMARK    6  A    between atoms: N_22  and  C_23
REMARK                            x       y       z     vdW  Elec       q    Type
REMARK                         _______ _______ _______ _____ _____    ______ ____
ROOT
ATOM      1  N   UNL     1       4.666   4.099  18.181  0.00  0.00    +0.000 N 
ATOM      2  C   UNL     1       5.476   4.627  19.147  0.00  0.00    +0.000 A 
ATOM      3  C   UNL     1       6.576   5.161  18.493  0.00  0.00    +0.000 A 
ATOM      4  C   UNL     1       6.372   4.828  17.123  0.00  0.00    +0.000 A 
ATOM      5  N   UNL     1       7.274   5.056  16.132  0.00  0.00    +0.000 N 
ATOM      6  N   UNL     1       5.206   4.192  16.962  0.00  0.00    +0.000 NA
ATOM      7  H   UNL     1       8.215   5.346  16.389  0.00  0.00    +0.000 HD
ENDROOT
BRANCH   5   8
ATOM      8  C   UNL     1       7.119   4.838  14.742  0.00  0.00    +0.000 A 
ATOM      9  C   UNL     1       6.274   3.839  14.233  0.00  0.00    +0.000 A 
ATOM     10  C   UNL     1       6.230   3.548  12.867  0.00  0.00    +0.000 A 
ATOM     11  C   UNL     1       7.041   4.262  11.997  0.00  0.00    +0.000 A 
ATOM     12  F   UNL     1       7.025   3.968  10.692  0.00  0.00    +0.000 F 
ATOM     13  C   UNL     1       7.877   5.266  12.466  0.00  0.00    +0.000 A 
ATOM     14  C   UNL     1       7.915   5.556  13.835  0.00  0.00    +0.000 A 
ENDBRANCH   5   8
BRANCH   1  20
ATOM     15  C   UNL     1       2.969   3.110  19.761  0.00  0.00    +0.000 C 
ATOM     16  C   UNL     1       2.659   4.297  20.686  0.00  0.00    +0.000 C 
ATOM     17  C   UNL     1       1.631   5.267  20.095  0.00  0.00    +0.000 C 
ATOM     18  N   UNL     1       1.902   5.705  18.719  0.00  0.00    +0.000 NA
ATOM     19  C   UNL     1       2.207   4.561  17.840  0.00  0.00    +0.000 C 
ATOM     20  C   UNL     1       3.304   3.585  18.326  0.00  0.00    +0.000 C 
BRANCH  15  22
ATOM     21  N   UNL     1       0.941   1.421  19.658  0.00  0.00    +0.000 NA
ATOM     22  C   UNL     1       1.837   2.166  19.721  0.00  0.00    +0.000 C 
ENDBRANCH  15  22
BRANCH  18  23
ATOM     23  C   UNL     1       2.917   6.774  18.609  0.00  0.00    +0.000 C 
BRANCH  23  24
ATOM     24  C   UNL     1       2.400   8.177  18.512  0.00  0.00    +0.000 A 
ATOM     25  N   UNL     1       2.398   8.979  17.463  0.00  0.00    +0.000 NA
ATOM     26  C   UNL     1       1.622  10.036  17.861  0.00  0.00    +0.000 A 
ATOM     27  C   UNL     1       1.181   9.837  19.145  0.00  0.00    +0.000 A 
ATOM     28  O   UNL     1       1.671   8.642  19.578  0.00  0.00    +0.000 OA
ENDBRANCH  23  24
ENDBRANCH  18  23
ENDBRANCH   1  20
BRANCH   3  29
ATOM     29  C   UNL     1       7.637   5.931  19.105  0.00  0.00    +0.000 C 
ATOM     30  N   UNL     1       8.134   5.420  20.273  0.00  0.00    +0.000 N 
ATOM     31  O   UNL     1       8.088   6.965  18.628  0.00  0.00    +0.000 OA
ATOM     32  H   UNL     1       7.974   4.462  20.543  0.00  0.00    +0.000 HD
ATOM     33  H   UNL     1       8.907   5.916  20.696  0.00  0.00    +0.000 HD
ENDBRANCH   3  29
TORSDOF 6
ENDMDL
MODEL 2
REMARK VINA RESULT:      -7.2      1.026      1.107
REMARK  Name = 
REMARK  6 active torsions:
REMARK  status: ('A' for Active; 'I' for Inactive)
REMARK    1  A    between atoms: C_2  and  C_3
REMARK    2  A    between atoms: N_6  and  C_7
REMARK    3  A    between atoms: C_7  and  C_8
REMARK    4  A    between atoms: C_14  and  N_15
REMARK    5  A    between atoms: C_17  and  C_18
REMARK    6  A    between atoms: N_22  and  C_23
REMARK                            x       y       z     vdW  Elec       q    Type
REMARK                         _______ _______ _______ _____ _____    ______ ____
ROOT
ATOM      1  N   UNL     1       4.781   4.592  18.113  0.00  0.00    +0.000 N 
ATOM      2  C   UNL     1       5.641   5.452  18.737  0.00  0.00    +0.000 A 
ATOM      3  C   UNL     1       6.516   5.910  17.764  0.00  0.00    +0.000 A 
ATOM      4  C   UNL     1       6.147   5.197  16.587  0.00  0.00    +0.000 A 
ATOM      5  N   UNL     1       6.825   5.250  15.411  0.00  0.00    +0.000 N 
ATOM      6  N   UNL     1       5.091   4.412  16.825  0.00  0.00    +0.000 NA
ATOM      7  H   UNL     1       7.735   5.704  15.394  0.00  0.00    +0.000 HD
ENDROOT
BRANCH   5   8
ATOM      8  C   UNL     1       6.481   4.647  14.177  0.00  0.00    +0.000 A 
ATOM      9  C   UNL     1       5.217   4.078  13.950  0.00  0.00    +0.000 A 
ATOM     10  C   UNL     1       4.936   3.372  12.778  0.00  0.00    +0.000 A 
ATOM     11  C   UNL     1       5.929   3.229  11.819  0.00  0.00    +0.000 A 
ATOM     12  F   UNL     1       5.673   2.529  10.708  0.00  0.00    +0.000 F 
ATOM     13  C   UNL     1       7.184   3.791  12.006  0.00  0.00    +0.000 A 
ATOM     14  C   UNL     1       7.461   4.500  13.181  0.00  0.00    +0.000 A 
ENDBRANCH   5   8
BRANCH   1  20
ATOM     15  C   UNL     1       3.508   3.966  20.197  0.00  0.00    +0.000 C 
ATOM     16  C   UNL     1       3.115   5.340  20.760  0.00  0.00    +0.000 C 
ATOM     17  C   UNL     1       1.862   5.924  20.100  0.00  0.00    +0.000 C 
ATOM     18  N   UNL     1       1.868   5.919  18.631  0.00  0.00    +0.000 NA
ATOM     19  C   UNL     1       2.255   4.599  18.098  0.00  0.00    +0.000 C 
ATOM     20  C   UNL     1       3.563   3.984  18.650  0.00  0.00    +0.000 C 
BRANCH  15  22
ATOM     21  N   UNL     1       1.801   2.123  21.014  0.00  0.00    +0.000 NA
ATOM     22  C   UNL     1       2.568   2.925  20.650  0.00  0.00    +0.000 C 
ENDBRANCH  15  22
BRANCH  18  23
ATOM     23  C   UNL     1       2.652   7.013  18.021  0.00  0.00    +0.000 C 
BRANCH  23  24
ATOM     24  C   UNL     1       2.174   8.407  18.291  0.00  0.00    +0.000 A 
ATOM     25  N   UNL     1       2.127   9.433  17.461  0.00  0.00    +0.000 NA
ATOM     26  C   UNL     1       1.412  10.379  18.150  0.00  0.00    +0.000 A 
ATOM     27  C   UNL     1       1.053   9.890  19.380  0.00  0.00    +0.000 A 
ATOM     28  O   UNL     1       1.533   8.620  19.485  0.00  0.00    +0.000 OA
ENDBRANCH  23  24
ENDBRANCH  18  23
ENDBRANCH   1  20
BRANCH   3  29
ATOM     29  C   UNL     1       7.523   6.934  17.943  0.00  0.00    +0.000 C 
ATOM     30  N   UNL     1       8.293   6.809  19.067  0.00  0.00    +0.000 N 
ATOM     31  O   UNL     1       7.705   7.853  17.154  0.00  0.00    +0.000 OA
ATOM     32  H   UNL     1       8.346   5.944  19.581  0.00  0.00    +0.000 HD
ATOM     33  H   UNL     1       9.034   7.487  19.190  0.00  0.00    +0.000 HD
ENDBRANCH   3  29
TORSDOF 6
ENDMDL
MODEL 3
REMARK VINA RESULT:      -7.0      8.890     12.651
REMARK  Name = 
REMARK  6 active torsions:
REMARK  status: ('A' for Active; 'I' for Inactive)
REMARK    1  A    between atoms: C_2  and  C_3
REMARK    2  A    between atoms: N_6  and  C_7
REMARK    3  A    between atoms: C_7  and  C_8
REMARK    4  A    between atoms: C_14  and  N_15
REMARK    5  A    between atoms: C_17  and  C_18
REMARK    6  A    between atoms: N_22  and  C_23
REMARK                            x       y       z     vdW  Elec       q    Type
REMARK                         _______ _______ _______ _____ _____    ______ ____
ROOT
ATOM      1  N   UNL     1      -3.677  14.378  21.293  0.00  0.00    +0.000 N 
ATOM      2  C   UNL     1      -4.808  14.155  22.027  0.00  0.00    +0.000 A 
ATOM      3  C   UNL     1      -5.464  13.090  21.428  0.00  0.00    +0.000 A 
ATOM      4  C   UNL     1      -4.679  12.790  20.277  0.00  0.00    +0.000 A 
ATOM      5  N   UNL     1      -5.023  11.881  19.327  0.00  0.00    +0.000 N 
ATOM      6  N   UNL     1      -3.602  13.580  20.224  0.00  0.00    +0.000 NA
ATOM      7  H   UNL     1      -5.962  11.490  19.344  0.00  0.00    +0.000 HD
ENDROOT
BRANCH   5   8
ATOM      8  C   UNL     1      -4.267  11.461  18.206  0.00  0.00    +0.000 A 
ATOM      9  C   UNL     1      -4.727  11.628  16.890  0.00  0.00    +0.000 A 
ATOM     10  C   UNL     1      -4.034  11.093  15.802  0.00  0.00    +0.000 A 
ATOM     11  C   UNL     1      -2.866  10.379  16.029  0.00  0.00    +0.000 A 
ATOM     12  F   UNL     1      -2.214   9.839  14.992  0.00  0.00    +0.000 F 
ATOM     13  C   UNL     1      -2.376  10.207  17.316  0.00  0.00    +0.000 A 
ATOM     14  C   UNL     1      -3.073  10.748  18.403  0.00  0.00    +0.000 A 
ENDBRANCH   5   8
BRANCH   1  20
ATOM     15  C   UNL     1      -2.804  16.164  22.843  0.00  0.00    +0.000 C 
ATOM     16  C   UNL     1      -2.606  15.386  24.153  0.00  0.00    +0.000 C 
ATOM     17  C   UNL     1      -1.282  14.615  24.199  0.00  0.00    +0.000 C 
ATOM     18  N   UNL     1      -1.001  13.782  23.022  0.00  0.00    +0.000 NA
ATOM     19  C   UNL     1      -1.202  14.534  21.770  0.00  0.00    +0.000 C 
ATOM     20  C   UNL     1      -2.556  15.264  21.608  0.00  0.00    +0.000 C 
BRANCH  15  22
ATOM     21  N   UNL     1      -1.229  18.283  22.766  0.00  0.00    +0.000 NA
ATOM     22  C   UNL     1      -1.913  17.338  22.791  0.00  0.00    +0.000 C 
ENDBRANCH  15  22
BRANCH  18  23
ATOM     23  C   UNL     1      -1.710  12.486  23.010  0.00  0.00    +0.000 C 
BRANCH  23  24
ATOM     24  C   UNL     1      -0.908  11.290  22.596  0.00  0.00    +0.000 A 
ATOM     25  N   UNL     1      -0.359  10.366  23.364  0.00  0.00    +0.000 NA
ATOM     26  C   UNL     1       0.056   9.407  22.475  0.00  0.00    +0.000 A 
ATOM     27  C   UNL     1      -0.256   9.789  21.195  0.00  0.00    +0.000 A 
ATOM     28  O   UNL     1      -0.880  10.998  21.256  0.00  0.00    +0.000 OA
ENDBRANCH  23  24
ENDBRANCH  18  23
ENDBRANCH   1  20
BRANCH   3  29
ATOM     29  C   UNL     1      -6.646  12.428  21.934  0.00  0.00    +0.000 C 
ATOM     30  N   UNL     1      -7.412  13.168  22.793  0.00  0.00    +0.000 N 
ATOM     31  O   UNL     1      -6.972  11.288  21.624  0.00  0.00    +0.000 OA
ATOM     32  H   UNL     1      -7.318  14.170  22.857  0.00  0.00    +0.000 HD
ATOM     33  H   UNL     1      -8.267  12.743  23.125  0.00  0.00    +0.000 HD
ENDBRANCH   3  29
TORSDOF 6
ENDMDL
MODEL 4
REMARK VINA RESULT:      -6.9      7.849     10.744
REMARK  Name = 
REMARK  6 active torsions:
REMARK  status: ('A' for Active; 'I' for Inactive)
REMARK    1  A    between atoms: C_2  and  C_3
REMARK    2  A    between atoms: N_6  and  C_7
REMARK    3  A    between atoms: C_7  and  C_8
REMARK    4  A    between atoms: C_14  and  N_15
REMARK    5  A    between atoms: C_17  and  C_18
REMARK    6  A    between atoms: N_22  and  C_23
REMARK                            x       y       z     vdW  Elec       q    Type
REMARK                         _______ _______ _______ _____ _____    ______ ____
ROOT
ATOM      1  N   UNL     1       0.715  12.306  20.407  0.00  0.00    +0.000 N 
ATOM      2  C   UNL     1       0.972  11.322  21.320  0.00  0.00    +0.000 A 
ATOM      3  C   UNL     1       0.233  10.217  20.929  0.00  0.00    +0.000 A 
ATOM      4  C   UNL     1      -0.510  10.666  19.799  0.00  0.00    +0.000 A 
ATOM      5  N   UNL     1      -1.463   9.935  19.164  0.00  0.00    +0.000 N 
ATOM      6  N   UNL     1      -0.194  11.931  19.502  0.00  0.00    +0.000 NA
ATOM      7  H   UNL     1      -1.783   9.072  19.596  0.00  0.00    +0.000 HD
ENDROOT
BRANCH   5   8
ATOM      8  C   UNL     1      -2.182  10.268  17.991  0.00  0.00    +0.000 A 
ATOM      9  C   UNL     1      -3.370  11.017  18.030  0.00  0.00    +0.000 A 
ATOM     10  C   UNL     1      -4.137  11.226  16.882  0.00  0.00    +0.000 A 
ATOM     11  C   UNL     1      -3.717  10.680  15.678  0.00  0.00    +0.000 A 
ATOM     12  F   UNL     1      -4.464  10.853  14.581  0.00  0.00    +0.000 F 
ATOM     13  C   UNL     1      -2.541   9.947  15.601  0.00  0.00    +0.000 A 
ATOM     14  C   UNL     1      -1.773   9.742  16.754  0.00  0.00    +0.000 A 
ENDBRANCH   5   8
BRANCH   1  20
ATOM     15  C   UNL     1       0.786  14.483  19.138  0.00  0.00    +0.000 C 
ATOM     16  C   UNL     1      -0.516  15.162  19.590  0.00  0.00    +0.000 C 
ATOM     17  C   UNL     1      -0.384  15.877  20.939  0.00  0.00    +0.000 C 
ATOM     18  N   UNL     1       0.216  15.076  22.016  0.00  0.00    +0.000 NA
ATOM     19  C   UNL     1       1.460  14.421  21.570  0.00  0.00    +0.000 C 
ATOM     20  C   UNL     1       1.382  13.600  20.261  0.00  0.00    +0.000 C 
BRANCH  15  22
ATOM     21  N   UNL     1       2.588  16.265  18.393  0.00  0.00    +0.000 NA
ATOM     22  C   UNL     1       1.779  15.485  18.711  0.00  0.00    +0.000 C 
ENDBRANCH  15  22
BRANCH  18  23
ATOM     23  C   UNL     1      -0.714  14.123  22.656  0.00  0.00    +0.000 C 
BRANCH  23  24
ATOM     24  C   UNL     1      -1.279  14.531  23.982  0.00  0.00    +0.000 A 
ATOM     25  N   UNL     1      -0.720  15.277  24.917  0.00  0.00    +0.000 NA
ATOM     26  C   UNL     1      -1.741  15.512  25.802  0.00  0.00    +0.000 A 
ATOM     27  C   UNL     1      -2.887  14.893  25.371  0.00  0.00    +0.000 A 
ATOM     28  O   UNL     1      -2.607  14.259  24.198  0.00  0.00    +0.000 OA
ENDBRANCH  23  24
ENDBRANCH  18  23
ENDBRANCH   1  20
BRANCH   3  29
ATOM     29  C   UNL     1       0.287   8.902  21.531  0.00  0.00    +0.000 C 
ATOM     30  N   UNL     1       1.543   8.417  21.769  0.00  0.00    +0.000 N 
ATOM     31  O   UNL     1      -0.707   8.250  21.830  0.00  0.00    +0.000 OA
ATOM     32  H   UNL     1       2.351   9.020  21.782  0.00  0.00    +0.000 HD
ATOM     33  H   UNL     1       1.606   7.520  22.232  0.00  0.00    +0.000 HD
ENDBRANCH   3  29
TORSDOF 6
ENDMDL
MODEL 5
REMARK VINA RESULT:      -6.9      8.844     12.657
REMARK  Name = 
REMARK  6 active torsions:
REMARK  status: ('A' for Active; 'I' for Inactive)
REMARK    1  A    between atoms: C_2  and  C_3
REMARK    2  A    between atoms: N_6  and  C_7
REMARK    3  A    between atoms: C_7  and  C_8
REMARK    4  A    between atoms: C_14  and  N_15
REMARK    5  A    between atoms: C_17  and  C_18
REMARK    6  A    between atoms: N_22  and  C_23
REMARK                            x       y       z     vdW  Elec       q    Type
REMARK                         _______ _______ _______ _____ _____    ______ ____
ROOT
ATOM      1  N   UNL     1      -4.105  14.045  21.109  0.00  0.00    +0.000 N 
ATOM      2  C   UNL     1      -5.190  13.779  21.898  0.00  0.00    +0.000 A 
ATOM      3  C   UNL     1      -5.819  12.675  21.344  0.00  0.00    +0.000 A 
ATOM      4  C   UNL     1      -5.074  12.394  20.163  0.00  0.00    +0.000 A 
ATOM      5  N   UNL     1      -5.416  11.455  19.242  0.00  0.00    +0.000 N 
ATOM      6  N   UNL     1      -4.040  13.234  20.049  0.00  0.00    +0.000 NA
ATOM      7  H   UNL     1      -6.333  11.019  19.309  0.00  0.00    +0.000 HD
ENDROOT
BRANCH   5   8
ATOM      8  C   UNL     1      -4.693  11.053  18.093  0.00  0.00    +0.000 A 
ATOM      9  C   UNL     1      -3.643  10.122  18.159  0.00  0.00    +0.000 A 
ATOM     10  C   UNL     1      -2.854   9.834  17.043  0.00  0.00    +0.000 A 
ATOM     11  C   UNL     1      -3.112  10.485  15.845  0.00  0.00    +0.000 A 
ATOM     12  F   UNL     1      -2.340  10.234  14.782  0.00  0.00    +0.000 F 
ATOM     13  C   UNL     1      -4.150  11.400  15.743  0.00  0.00    +0.000 A 
ATOM     14  C   UNL     1      -4.941  11.683  16.863  0.00  0.00    +0.000 A 
ENDBRANCH   5   8
BRANCH   1  20
ATOM     15  C   UNL     1      -3.228  15.863  22.620  0.00  0.00    +0.000 C 
ATOM     16  C   UNL     1      -2.900  15.085  23.904  0.00  0.00    +0.000 C 
ATOM     17  C   UNL     1      -1.537  14.388  23.853  0.00  0.00    +0.000 C 
ATOM     18  N   UNL     1      -1.290  13.582  22.649  0.00  0.00    +0.000 NA
ATOM     19  C   UNL     1      -1.616  14.332  21.422  0.00  0.00    +0.000 C 
ATOM     20  C   UNL     1      -3.015  14.988  21.360  0.00  0.00    +0.000 C 
BRANCH  15  22
ATOM     21  N   UNL     1      -1.772  18.057  22.417  0.00  0.00    +0.000 NA
ATOM     22  C   UNL     1      -2.408  17.084  22.522  0.00  0.00    +0.000 C 
ENDBRANCH  15  22
BRANCH  18  23
ATOM     23  C   UNL     1      -1.928  12.248  22.668  0.00  0.00    +0.000 C 
BRANCH  23  24
ATOM     24  C   UNL     1      -1.016  11.071  22.505  0.00  0.00    +0.000 A 
ATOM     25  N   UNL     1      -0.577  10.239  23.433  0.00  0.00    +0.000 NA
ATOM     26  C   UNL     1       0.029   9.240  22.716  0.00  0.00    +0.000 A 
ATOM     27  C   UNL     1      -0.061   9.506  21.373  0.00  0.00    +0.000 A 
ATOM     28  O   UNL     1      -0.734  10.681  21.221  0.00  0.00    +0.000 OA
ENDBRANCH  23  24
ENDBRANCH  18  23
ENDBRANCH   1  20
BRANCH   3  29
ATOM     29  C   UNL     1      -6.944  11.965  21.914  0.00  0.00    +0.000 C 
ATOM     30  N   UNL     1      -7.492  12.534  23.031  0.00  0.00    +0.000 N 
ATOM     31  O   UNL     1      -7.403  10.930  21.445  0.00  0.00    +0.000 OA
ATOM     32  H   UNL     1      -7.314  13.494  23.279  0.00  0.00    +0.000 HD
ATOM     33  H   UNL     1      -8.308  12.080  23.421  0.00  0.00    +0.000 HD
ENDBRANCH   3  29
TORSDOF 6
ENDMDL
MODEL 6
REMARK VINA RESULT:      -6.8      4.621      8.086
REMARK  Name = 
REMARK  6 active torsions:
REMARK  status: ('A' for Active; 'I' for Inactive)
REMARK    1  A    between atoms: C_2  and  C_3
REMARK    2  A    between atoms: N_6  and  C_7
REMARK    3  A    between atoms: C_7  and  C_8
REMARK    4  A    between atoms: C_14  and  N_15
REMARK    5  A    between atoms: C_17  and  C_18
REMARK    6  A    between atoms: N_22  and  C_23
REMARK                            x       y       z     vdW  Elec       q    Type
REMARK                         _______ _______ _______ _____ _____    ______ ____
ROOT
ATOM      1  N   UNL     1      -0.390   9.965  19.151  0.00  0.00    +0.000 N 
ATOM      2  C   UNL     1      -0.529  10.265  20.477  0.00  0.00    +0.000 A 
ATOM      3  C   UNL     1       0.392   9.486  21.158  0.00  0.00    +0.000 A 
ATOM      4  C   UNL     1       0.992   8.678  20.149  0.00  0.00    +0.000 A 
ATOM      5  N   UNL     1       1.876   7.675  20.389  0.00  0.00    +0.000 N 
ATOM      6  N   UNL     1       0.505   8.994  18.944  0.00  0.00    +0.000 NA
ATOM      7  H   UNL     1       2.017   7.371  21.350  0.00  0.00    +0.000 HD
ENDROOT
BRANCH   5   8
ATOM      8  C   UNL     1       2.581   6.887  19.448  0.00  0.00    +0.000 A 
ATOM      9  C   UNL     1       3.265   7.456  18.361  0.00  0.00    +0.000 A 
ATOM     10  C   UNL     1       3.845   6.661  17.368  0.00  0.00    +0.000 A 
ATOM     11  C   UNL     1       3.739   5.281  17.459  0.00  0.00    +0.000 A 
ATOM     12  F   UNL     1       4.267   4.517  16.495  0.00  0.00    +0.000 F 
ATOM     13  C   UNL     1       3.082   4.686  18.527  0.00  0.00    +0.000 A 
ATOM     14  C   UNL     1       2.505   5.487  19.521  0.00  0.00    +0.000 A 
ENDBRANCH   5   8
BRANCH   1  20
ATOM     15  C   UNL     1      -2.254   9.925  17.454  0.00  0.00    +0.000 C 
ATOM     16  C   UNL     1      -3.487  10.217  18.323  0.00  0.00    +0.000 C 
ATOM     17  C   UNL     1      -3.689  11.711  18.598  0.00  0.00    +0.000 C 
ATOM     18  N   UNL     1      -2.500  12.425  19.082  0.00  0.00    +0.000 NA
ATOM     19  C   UNL     1      -1.320  12.133  18.248  0.00  0.00    +0.000 C 
ATOM     20  C   UNL     1      -0.995  10.641  18.003  0.00  0.00    +0.000 C 
BRANCH  15  22
ATOM     21  N   UNL     1      -2.654  10.633  14.941  0.00  0.00    +0.000 NA
ATOM     22  C   UNL     1      -2.489  10.333  16.057  0.00  0.00    +0.000 C 
ENDBRANCH  15  22
BRANCH  18  23
ATOM     23  C   UNL     1      -2.222  12.238  20.522  0.00  0.00    +0.000 C 
BRANCH  23  24
ATOM     24  C   UNL     1      -3.206  12.843  21.476  0.00  0.00    +0.000 A 
ATOM     25  N   UNL     1      -3.749  12.297  22.549  0.00  0.00    +0.000 NA
ATOM     26  C   UNL     1      -4.389  13.344  23.160  0.00  0.00    +0.000 A 
ATOM     27  C   UNL     1      -4.213  14.492  22.429  0.00  0.00    +0.000 A 
ATOM     28  O   UNL     1      -3.450  14.186  21.342  0.00  0.00    +0.000 OA
ENDBRANCH  23  24
ENDBRANCH  18  23
ENDBRANCH   1  20
BRANCH   3  29
ATOM     29  C   UNL     1       0.685   9.558  22.573  0.00  0.00    +0.000 C 
ATOM     30  N   UNL     1      -0.405   9.659  23.394  0.00  0.00    +0.000 N 
ATOM     31  O   UNL     1       1.820   9.522  23.035  0.00  0.00    +0.000 OA
ATOM     32  H   UNL     1      -1.332   9.429  23.074  0.00  0.00    +0.000 HD
ATOM     33  H   UNL     1      -0.228   9.665  24.389  0.00  0.00    +0.000 HD
ENDBRANCH   3  29
TORSDOF 6
ENDMDL
MODEL 7
REMARK VINA RESULT:      -6.8      4.638      8.032
REMARK  Name = 
REMARK  6 active torsions:
REMARK  status: ('A' for Active; 'I' for Inactive)
REMARK    1  A    between atoms: C_2  and  C_3
REMARK    2  A    between atoms: N_6  and  C_7
REMARK    3  A    between atoms: C_7  and  C_8
REMARK    4  A    between atoms: C_14  and  N_15
REMARK    5  A    between atoms: C_17  and  C_18
REMARK    6  A    between atoms: N_22  and  C_23
REMARK                            x       y       z     vdW  Elec       q    Type
REMARK                         _______ _______ _______ _____ _____    ______ ____
ROOT
ATOM      1  N   UNL     1      -0.454  10.076  19.009  0.00  0.00    +0.000 N 
ATOM      2  C   UNL     1      -0.553  10.325  20.349  0.00  0.00    +0.000 A 
ATOM      3  C   UNL     1       0.394   9.526  20.971  0.00  0.00    +0.000 A 
ATOM      4  C   UNL     1       0.964   8.760  19.913  0.00  0.00    +0.000 A 
ATOM      5  N   UNL     1       1.861   7.753  20.087  0.00  0.00    +0.000 N 
ATOM      6  N   UNL     1       0.437   9.118  18.737  0.00  0.00    +0.000 NA
ATOM      7  H   UNL     1       2.033   7.414  21.031  0.00  0.00    +0.000 HD
ENDROOT
BRANCH   5   8
ATOM      8  C   UNL     1       2.538   7.005  19.095  0.00  0.00    +0.000 A 
ATOM      9  C   UNL     1       2.548   5.601  19.096  0.00  0.00    +0.000 A 
ATOM     10  C   UNL     1       3.327   4.877  18.189  0.00  0.00    +0.000 A 
ATOM     11  C   UNL     1       4.108   5.563  17.270  0.00  0.00    +0.000 A 
ATOM     12  F   UNL     1       4.878   4.875  16.420  0.00  0.00    +0.000 F 
ATOM     13  C   UNL     1       4.110   6.950  17.233  0.00  0.00    +0.000 A 
ATOM     14  C   UNL     1       3.326   7.671  18.142  0.00  0.00    +0.000 A 
ENDBRANCH   5   8
BRANCH   1  20
ATOM     15  C   UNL     1      -2.317  10.043  17.311  0.00  0.00    +0.000 C 
ATOM     16  C   UNL     1      -3.563  10.208  18.195  0.00  0.00    +0.000 C 
ATOM     17  C   UNL     1      -3.847  11.666  18.567  0.00  0.00    +0.000 C 
ATOM     18  N   UNL     1      -2.699  12.413  19.099  0.00  0.00    +0.000 NA
ATOM     19  C   UNL     1      -1.506  12.243  18.249  0.00  0.00    +0.000 C 
ATOM     20  C   UNL     1      -1.099  10.790  17.907  0.00  0.00    +0.000 C 
BRANCH  15  22
ATOM     21  N   UNL     1      -2.813  10.917  14.868  0.00  0.00    +0.000 NA
ATOM     22  C   UNL     1      -2.577  10.528  15.943  0.00  0.00    +0.000 C 
ENDBRANCH  15  22
BRANCH  18  23
ATOM     23  C   UNL     1      -2.407  12.147  20.523  0.00  0.00    +0.000 C 
BRANCH  23  24
ATOM     24  C   UNL     1      -3.183  12.949  21.524  0.00  0.00    +0.000 A 
ATOM     25  N   UNL     1      -3.401  14.251  21.539  0.00  0.00    +0.000 NA
ATOM     26  C   UNL     1      -4.335  14.415  22.529  0.00  0.00    +0.000 A 
ATOM     27  C   UNL     1      -4.648  13.200  23.083  0.00  0.00    +0.000 A 
ATOM     28  O   UNL     1      -3.917  12.245  22.444  0.00  0.00    +0.000 OA
ENDBRANCH  23  24
ENDBRANCH  18  23
ENDBRANCH   1  20
BRANCH   3  29
ATOM     29  C   UNL     1       0.732   9.547  22.377  0.00  0.00    +0.000 C 
ATOM     30  N   UNL     1      -0.332   9.589  23.236  0.00  0.00    +0.000 N 
ATOM     31  O   UNL     1       1.881   9.518  22.801  0.00  0.00    +0.000 OA
ATOM     32  H   UNL     1      -1.265   9.351  22.937  0.00  0.00    +0.000 HD
ATOM     33  H   UNL     1      -0.123   9.559  24.225  0.00  0.00    +0.000 HD
ENDBRANCH   3  29
TORSDOF 6
ENDMDL
MODEL 8
REMARK VINA RESULT:      -6.8      6.129     10.285
REMARK  Name = 
REMARK  6 active torsions:
REMARK  status: ('A' for Active; 'I' for Inactive)
REMARK    1  A    between atoms: C_2  and  C_3
REMARK    2  A    between atoms: N_6  and  C_7
REMARK    3  A    between atoms: C_7  and  C_8
REMARK    4  A    between atoms: C_14  and  N_15
REMARK    5  A    between atoms: C_17  and  C_18
REMARK    6  A    between atoms: N_22  and  C_23
REMARK                            x       y       z     vdW  Elec       q    Type
REMARK                         _______ _______ _______ _____ _____    ______ ____
ROOT
ATOM      1  N   UNL     1      -0.200  13.324  19.843  0.00  0.00    +0.000 N 
ATOM      2  C   UNL     1      -0.950  13.338  20.985  0.00  0.00    +0.000 A 
ATOM      3  C   UNL     1      -0.823  12.082  21.557  0.00  0.00    +0.000 A 
ATOM      4  C   UNL     1      -0.031  11.346  20.629  0.00  0.00    +0.000 A 
ATOM      5  N   UNL     1       0.243  10.019  20.732  0.00  0.00    +0.000 N 
ATOM      6  N   UNL     1       0.337  12.123  19.605  0.00  0.00    +0.000 NA
ATOM      7  H   UNL     1      -0.260   9.471  21.427  0.00  0.00    +0.000 HD
ENDROOT
BRANCH   5   8
ATOM      8  C   UNL     1       1.086   9.234  19.909  0.00  0.00    +0.000 A 
ATOM      9  C   UNL     1       1.279   9.522  18.548  0.00  0.00    +0.000 A 
ATOM     10  C   UNL     1       2.007   8.666  17.719  0.00  0.00    +0.000 A 
ATOM     11  C   UNL     1       2.548   7.505  18.252  0.00  0.00    +0.000 A 
ATOM     12  F   UNL     1       3.221   6.667  17.455  0.00  0.00    +0.000 F 
ATOM     13  C   UNL     1       2.388   7.197  19.596  0.00  0.00    +0.000 A 
ATOM     14  C   UNL     1       1.660   8.060  20.424  0.00  0.00    +0.000 A 
ENDBRANCH   5   8
BRANCH   1  20
ATOM     15  C   UNL     1      -0.406  15.809  19.472  0.00  0.00    +0.000 C 
ATOM     16  C   UNL     1       0.446  16.378  20.617  0.00  0.00    +0.000 C 
ATOM     17  C   UNL     1       1.945  16.395  20.299  0.00  0.00    +0.000 C 
ATOM     18  N   UNL     1       2.492  15.130  19.789  0.00  0.00    +0.000 NA
ATOM     19  C   UNL     1       1.663  14.587  18.697  0.00  0.00    +0.000 C 
ATOM     20  C   UNL     1       0.148  14.451  18.976  0.00  0.00    +0.000 C 
BRANCH  15  22
ATOM     21  N   UNL     1      -0.555  17.522  17.466  0.00  0.00    +0.000 NA
ATOM     22  C   UNL     1      -0.474  16.759  18.346  0.00  0.00    +0.000 C 
ENDBRANCH  15  22
BRANCH  18  23
ATOM     23  C   UNL     1       2.764  14.120  20.834  0.00  0.00    +0.000 C 
BRANCH  23  24
ATOM     24  C   UNL     1       3.966  14.359  21.695  0.00  0.00    +0.000 A 
ATOM     25  N   UNL     1       5.231  14.459  21.329  0.00  0.00    +0.000 NA
ATOM     26  C   UNL     1       5.867  14.891  22.464  0.00  0.00    +0.000 A 
ATOM     27  C   UNL     1       4.960  15.035  23.483  0.00  0.00    +0.000 A 
ATOM     28  O   UNL     1       3.730  14.699  23.004  0.00  0.00    +0.000 OA
ENDBRANCH  23  24
ENDBRANCH  18  23
ENDBRANCH   1  20
BRANCH   3  29
ATOM     29  C   UNL     1      -1.347  11.677  22.843  0.00  0.00    +0.000 C 
ATOM     30  N   UNL     1      -2.383  12.434  23.319  0.00  0.00    +0.000 N 
ATOM     31  O   UNL     1      -0.922  10.720  23.480  0.00  0.00    +0.000 OA
ATOM     32  H   UNL     1      -2.915  13.043  22.718  0.00  0.00    +0.000 HD
ATOM     33  H   UNL     1      -2.796  12.143  24.196  0.00  0.00    +0.000 HD
ENDBRANCH   3  29
TORSDOF 6
ENDMDL
MODEL 9
REMARK VINA RESULT:      -6.8      3.930      7.832
REMARK  Name = 
REMARK  6 active torsions:
REMARK  status: ('A' for Active; 'I' for Inactive)
REMARK    1  A    between atoms: C_2  and  C_3
REMARK    2  A    between atoms: N_6  and  C_7
REMARK    3  A    between atoms: C_7  and  C_8
REMARK    4  A    between atoms: C_14  and  N_15
REMARK    5  A    between atoms: C_17  and  C_18
REMARK    6  A    between atoms: N_22  and  C_23
REMARK                            x       y       z     vdW  Elec       q    Type
REMARK                         _______ _______ _______ _____ _____    ______ ____
ROOT
ATOM      1  N   UNL     1       2.329   5.757  19.876  0.00  0.00    +0.000 N 
ATOM      2  C   UNL     1       2.885   6.066  18.666  0.00  0.00    +0.000 A 
ATOM      3  C   UNL     1       2.668   7.420  18.466  0.00  0.00    +0.000 A 
ATOM      4  C   UNL     1       1.892   7.827  19.589  0.00  0.00    +0.000 A 
ATOM      5  N   UNL     1       1.350   9.064  19.743  0.00  0.00    +0.000 N 
ATOM      6  N   UNL     1       1.707   6.802  20.429  0.00  0.00    +0.000 NA
ATOM      7  H   UNL     1       1.364   9.703  18.952  0.00  0.00    +0.000 HD
ENDROOT
BRANCH   5   8
ATOM      8  C   UNL     1       0.644   9.575  20.858  0.00  0.00    +0.000 A 
ATOM      9  C   UNL     1       0.109   8.739  21.852  0.00  0.00    +0.000 A 
ATOM     10  C   UNL     1      -0.696   9.245  22.875  0.00  0.00    +0.000 A 
ATOM     11  C   UNL     1      -0.974  10.604  22.908  0.00  0.00    +0.000 A 
ATOM     12  F   UNL     1      -1.769  11.089  23.869  0.00  0.00    +0.000 F 
ATOM     13  C   UNL     1      -0.450  11.460  21.950  0.00  0.00    +0.000 A 
ATOM     14  C   UNL     1       0.359  10.949  20.928  0.00  0.00    +0.000 A 
ENDBRANCH   5   8
BRANCH   1  20
ATOM     15  C   UNL     1       1.185   3.610  20.538  0.00  0.00    +0.000 C 
ATOM     16  C   UNL     1       1.140   2.844  19.207  0.00  0.00    +0.000 C 
ATOM     17  C   UNL     1       2.450   2.117  18.887  0.00  0.00    +0.000 C 
ATOM     18  N   UNL     1       3.665   2.934  19.005  0.00  0.00    +0.000 NA
ATOM     19  C   UNL     1       3.696   3.672  20.281  0.00  0.00    +0.000 C 
ATOM     20  C   UNL     1       2.443   4.508  20.631  0.00  0.00    +0.000 C 
BRANCH  15  22
ATOM     21  N   UNL     1       1.133   1.965  22.605  0.00  0.00    +0.000 NA
ATOM     22  C   UNL     1       1.154   2.678  21.680  0.00  0.00    +0.000 C 
ENDBRANCH  15  22
BRANCH  18  23
ATOM     23  C   UNL     1       3.918   3.818  17.847  0.00  0.00    +0.000 C 
BRANCH  23  24
ATOM     24  C   UNL     1       5.351   4.004  17.451  0.00  0.00    +0.000 A 
ATOM     25  N   UNL     1       5.867   4.049  16.236  0.00  0.00    +0.000 NA
ATOM     26  C   UNL     1       7.160   4.453  16.444  0.00  0.00    +0.000 A 
ATOM     27  C   UNL     1       7.384   4.634  17.786  0.00  0.00    +0.000 A 
ATOM     28  O   UNL     1       6.227   4.352  18.448  0.00  0.00    +0.000 OA
ENDBRANCH  23  24
ENDBRANCH  18  23
ENDBRANCH   1  20
BRANCH   3  29
ATOM     29  C   UNL     1       3.190   8.211  17.373  0.00  0.00    +0.000 C 
ATOM     30  N   UNL     1       4.206   7.632  16.663  0.00  0.00    +0.000 N 
ATOM     31  O   UNL     1       2.765   9.320  17.072  0.00  0.00    +0.000 OA
ATOM     32  H   UNL     1       4.393   6.643  16.714  0.00  0.00    +0.000 HD
ATOM     33  H   UNL     1       4.557   8.147  15.865  0.00  0.00    +0.000 HD
ENDBRANCH   3  29
TORSDOF 6
ENDMDL
