MODEL 1
REMARK VINA RESULT:      -7.3      0.000      0.000
REMARK  Name = 
REMARK  6 active torsions:
REMARK  status: ('A' for Active; 'I' for Inactive)
REMARK    1  A    between atoms: C_1  and  C_2
REMARK    2  A    between atoms: C_2  and  C_3
REMARK    3  A    between atoms: C_2  and  N_11
REMARK    4  A    between atoms: N_5  and  C_6
REMARK    5  A    between atoms: N_14  and  S_15
REMARK    6  A    between atoms: S_15  and  C_18
REMARK                            x       y       z     vdW  Elec       q    Type
REMARK                         _______ _______ _______ _____ _____    ______ ____
ROOT
ATOM      1  N   UNL     1       5.123   5.394  16.182  0.00  0.00    +0.000 NA
ATOM      2  C   UNL     1       4.612   4.493  17.233  0.00  0.00    +0.000 C 
ATOM      3  C   UNL     1       4.787   4.986  18.689  0.00  0.00    +0.000 C 
ATOM      4  N   UNL     1       4.234   6.359  18.893  0.00  0.00    +0.000 NA
ATOM      5  C   UNL     1       4.787   7.306  17.878  0.00  0.00    +0.000 C 
ATOM      6  C   UNL     1       4.632   6.769  16.434  0.00  0.00    +0.000 C 
ENDROOT
BRANCH   4   7
ATOM      7  S   UNL     1       2.557   6.496  19.167  0.00  0.00    +0.000 S 
ATOM      8  O   UNL     1       2.322   7.499  20.187  0.00  0.00    +0.000 OA
ATOM      9  O   UNL     1       1.913   6.640  17.876  0.00  0.00    +0.000 OA
BRANCH   7  10
ATOM     10  C   UNL     1       2.077   4.921  19.832  0.00  0.00    +0.000 A 
ATOM     11  C   UNL     1       2.369   4.655  21.176  0.00  0.00    +0.000 A 
ATOM     12  C   UNL     1       2.030   3.427  21.748  0.00  0.00    +0.000 A 
ATOM     13  C   UNL     1       1.386   2.460  20.983  0.00  0.00    +0.000 A 
ATOM     14  C   UNL     1       1.110   2.715  19.635  0.00  0.00    +0.000 A 
ATOM     15  C   UNL     1       1.473   3.934  19.045  0.00  0.00    +0.000 A 
ATOM     16 CL   UNL     1       1.170   4.091  17.357  0.00  0.00    +0.000 Cl
ENDBRANCH   7  10
ENDBRANCH   4   7
BRANCH   1  18
ATOM     17  C   UNL     1       7.475   4.453  16.776  0.00  0.00    +0.000 C 
ATOM     18  C   UNL     1       6.579   5.309  15.879  0.00  0.00    +0.000 C 
BRANCH  18  19
ATOM     19  C   UNL     1       6.820   4.874  14.404  0.00  0.00    +0.000 C 
ATOM     20  O   UNL     1       7.775   5.270  13.739  0.00  0.00    +0.000 OA
ATOM     21  N   UNL     1       5.828   4.079  13.868  0.00  0.00    +0.000 N 
ATOM     22  H   UNL     1       5.281   3.555  14.545  0.00  0.00    +0.000 HD
BRANCH  21  23
ATOM     23  C   UNL     1       5.906   3.626  12.495  0.00  0.00    +0.000 C 
ATOM     24  C   UNL     1       6.573   2.267  12.351  0.00  0.00    +0.000 C 
ATOM     25  C   UNL     1       6.146   1.793  10.968  0.00  0.00    +0.000 C 
ATOM     26  C   UNL     1       4.777   2.423  10.716  0.00  0.00    +0.000 C 
ATOM     27  C   UNL     1       4.537   3.410  11.858  0.00  0.00    +0.000 C 
ENDBRANCH  21  23
ENDBRANCH  18  19
ENDBRANCH   1  18
TORSDOF 5
ENDMDL
MODEL 2
REMARK VINA RESULT:      -7.2      2.289      3.263
REMARK  Name = 
REMARK  6 active torsions:
REMARK  status: ('A' for Active; 'I' for Inactive)
REMARK    1  A    between atoms: C_1  and  C_2
REMARK    2  A    between atoms: C_2  and  C_3
REMARK    3  A    between atoms: C_2  and  N_11
REMARK    4  A    between atoms: N_5  and  C_6
REMARK    5  A    between atoms: N_14  and  S_15
REMARK    6  A    between atoms: S_15  and  C_18
REMARK                            x       y       z     vdW  Elec       q    Type
REMARK                         _______ _______ _______ _____ _____    ______ ____
ROOT
ATOM      1  N   UNL     1       5.513   6.186  17.875  0.00  0.00    +0.000 NA
ATOM      2  C   UNL     1       4.644   5.703  16.784  0.00  0.00    +0.000 C 
ATOM      3  C   UNL     1       4.462   4.169  16.695  0.00  0.00    +0.000 C 
ATOM      4  N   UNL     1       4.017   3.574  17.993  0.00  0.00    +0.000 NA
ATOM      5  C   UNL     1       4.921   3.999  19.104  0.00  0.00    +0.000 C 
ATOM      6  C   UNL     1       5.114   5.534  19.144  0.00  0.00    +0.000 C 
ENDROOT
BRANCH   4   7
ATOM      7  S   UNL     1       2.352   3.638  18.354  0.00  0.00    +0.000 S 
ATOM      8  O   UNL     1       1.596   3.610  17.117  0.00  0.00    +0.000 OA
ATOM      9  O   UNL     1       2.085   2.635  19.365  0.00  0.00    +0.000 OA
BRANCH   7  10
ATOM     10  C   UNL     1       2.112   5.230  19.102  0.00  0.00    +0.000 A 
ATOM     11  C   UNL     1       2.091   6.356  18.269  0.00  0.00    +0.000 A 
ATOM     12  C   UNL     1       1.922   7.635  18.804  0.00  0.00    +0.000 A 
ATOM     13  C   UNL     1       1.761   7.796  20.176  0.00  0.00    +0.000 A 
ATOM     14  C   UNL     1       1.801   6.676  21.014  0.00  0.00    +0.000 A 
ATOM     15  C   UNL     1       1.999   5.391  20.488  0.00  0.00    +0.000 A 
ATOM     16 CL   UNL     1       2.127   4.106  21.627  0.00  0.00    +0.000 Cl
ENDBRANCH   7  10
ENDBRANCH   4   7
BRANCH   1  18
ATOM     17  C   UNL     1       7.939   5.966  18.788  0.00  0.00    +0.000 C 
ATOM     18  C   UNL     1       6.979   6.175  17.615  0.00  0.00    +0.000 C 
BRANCH  18  19
ATOM     19  C   UNL     1       7.345   5.144  16.506  0.00  0.00    +0.000 C 
ATOM     20  O   UNL     1       7.918   4.083  16.745  0.00  0.00    +0.000 OA
ATOM     21  N   UNL     1       7.058   5.553  15.221  0.00  0.00    +0.000 N 
ATOM     22  H   UNL     1       6.324   6.251  15.144  0.00  0.00    +0.000 HD
BRANCH  21  23
ATOM     23  C   UNL     1       7.374   4.708  14.089  0.00  0.00    +0.000 C 
ATOM     24  C   UNL     1       6.183   3.899  13.597  0.00  0.00    +0.000 C 
ATOM     25  C   UNL     1       6.586   3.470  12.192  0.00  0.00    +0.000 C 
ATOM     26  C   UNL     1       7.513   4.569  11.671  0.00  0.00    +0.000 C 
ATOM     27  C   UNL     1       7.793   5.496  12.852  0.00  0.00    +0.000 C 
ENDBRANCH  21  23
ENDBRANCH  18  19
ENDBRANCH   1  18
TORSDOF 5
ENDMDL
MODEL 3
REMARK VINA RESULT:      -7.1      1.744      2.463
REMARK  Name = 
REMARK  6 active torsions:
REMARK  status: ('A' for Active; 'I' for Inactive)
REMARK    1  A    between atoms: C_1  and  C_2
REMARK    2  A    between atoms: C_2  and  C_3
REMARK    3  A    between atoms: C_2  and  N_11
REMARK    4  A    between atoms: N_5  and  C_6
REMARK    5  A    between atoms: N_14  and  S_15
REMARK    6  A    between atoms: S_15  and  C_18
REMARK                            x       y       z     vdW  Elec       q    Type
REMARK                         _______ _______ _______ _____ _____    ______ ____
ROOT
ATOM      1  N   UNL     1       5.758   6.740  17.881  0.00  0.00    +0.000 NA
ATOM      2  C   UNL     1       4.787   6.715  16.771  0.00  0.00    +0.000 C 
ATOM      3  C   UNL     1       4.357   5.311  16.280  0.00  0.00    +0.000 C 
ATOM      4  N   UNL     1       3.867   4.446  17.397  0.00  0.00    +0.000 NA
ATOM      5  C   UNL     1       4.865   4.405  18.508  0.00  0.00    +0.000 C 
ATOM      6  C   UNL     1       5.303   5.822  18.951  0.00  0.00    +0.000 C 
ENDROOT
BRANCH   4   7
ATOM      7  S   UNL     1       2.247   4.646  17.889  0.00  0.00    +0.000 S 
ATOM      8  O   UNL     1       1.992   6.053  18.124  0.00  0.00    +0.000 OA
ATOM      9  O   UNL     1       1.412   3.926  16.947  0.00  0.00    +0.000 OA
BRANCH   7  10
ATOM     10  C   UNL     1       2.141   3.805  19.449  0.00  0.00    +0.000 A 
ATOM     11  C   UNL     1       1.879   4.569  20.594  0.00  0.00    +0.000 A 
ATOM     12  C   UNL     1       1.800   3.964  21.850  0.00  0.00    +0.000 A 
ATOM     13  C   UNL     1       1.973   2.589  21.969  0.00  0.00    +0.000 A 
ATOM     14  C   UNL     1       2.254   1.826  20.831  0.00  0.00    +0.000 A 
ATOM     15  C   UNL     1       2.364   2.429  19.570  0.00  0.00    +0.000 A 
ATOM     16 CL   UNL     1       2.809   1.401  18.262  0.00  0.00    +0.000 Cl
ENDBRANCH   7  10
ENDBRANCH   4   7
BRANCH   1  18
ATOM     17  C   UNL     1       8.233   6.455  18.631  0.00  0.00    +0.000 C 
ATOM     18  C   UNL     1       7.194   6.591  17.516  0.00  0.00    +0.000 C 
BRANCH  18  19
ATOM     19  C   UNL     1       7.400   5.409  16.522  0.00  0.00    +0.000 C 
ATOM     20  O   UNL     1       7.842   4.316  16.869  0.00  0.00    +0.000 OA
ATOM     21  N   UNL     1       7.134   5.711  15.203  0.00  0.00    +0.000 N 
ATOM     22  H   UNL     1       6.491   6.485  15.058  0.00  0.00    +0.000 HD
BRANCH  21  23
ATOM     23  C   UNL     1       7.314   4.717  14.166  0.00  0.00    +0.000 C 
ATOM     24  C   UNL     1       6.019   4.019  13.779  0.00  0.00    +0.000 C 
ATOM     25  C   UNL     1       6.330   3.395  12.424  0.00  0.00    +0.000 C 
ATOM     26  C   UNL     1       7.374   4.304  11.776  0.00  0.00    +0.000 C 
ATOM     27  C   UNL     1       7.798   5.309  12.847  0.00  0.00    +0.000 C 
ENDBRANCH  21  23
ENDBRANCH  18  19
ENDBRANCH   1  18
TORSDOF 5
ENDMDL
MODEL 4
REMARK VINA RESULT:      -6.9      1.798      2.638
REMARK  Name = 
REMARK  6 active torsions:
REMARK  status: ('A' for Active; 'I' for Inactive)
REMARK    1  A    between atoms: C_1  and  C_2
REMARK    2  A    between atoms: C_2  and  C_3
REMARK    3  A    between atoms: C_2  and  N_11
REMARK    4  A    between atoms: N_5  and  C_6
REMARK    5  A    between atoms: N_14  and  S_15
REMARK    6  A    between atoms: S_15  and  C_18
REMARK                            x       y       z     vdW  Elec       q    Type
REMARK                         _______ _______ _______ _____ _____    ______ ____
ROOT
ATOM      1  N   UNL     1       5.795   6.666  17.967  0.00  0.00    +0.000 NA
ATOM      2  C   UNL     1       4.835   6.726  16.849  0.00  0.00    +0.000 C 
ATOM      3  C   UNL     1       4.371   5.362  16.283  0.00  0.00    +0.000 C 
ATOM      4  N   UNL     1       3.845   4.456  17.349  0.00  0.00    +0.000 NA
ATOM      5  C   UNL     1       4.829   4.329  18.466  0.00  0.00    +0.000 C 
ATOM      6  C   UNL     1       5.303   5.708  18.985  0.00  0.00    +0.000 C 
ENDROOT
BRANCH   4   7
ATOM      7  S   UNL     1       2.226   4.677  17.836  0.00  0.00    +0.000 S 
ATOM      8  O   UNL     1       1.974   6.092  18.020  0.00  0.00    +0.000 OA
ATOM      9  O   UNL     1       1.388   3.925  16.923  0.00  0.00    +0.000 OA
BRANCH   7  10
ATOM     10  C   UNL     1       2.121   3.894  19.426  0.00  0.00    +0.000 A 
ATOM     11  C   UNL     1       2.034   2.496  19.470  0.00  0.00    +0.000 A 
ATOM     12  C   UNL     1       1.934   1.827  20.691  0.00  0.00    +0.000 A 
ATOM     13  C   UNL     1       1.930   2.550  21.879  0.00  0.00    +0.000 A 
ATOM     14  C   UNL     1       1.997   3.947  21.839  0.00  0.00    +0.000 A 
ATOM     15  C   UNL     1       2.069   4.629  20.616  0.00  0.00    +0.000 A 
ATOM     16 CL   UNL     1       2.048   6.349  20.692  0.00  0.00    +0.000 Cl
ENDBRANCH   7  10
ENDBRANCH   4   7
BRANCH   1  18
ATOM     17  C   UNL     1       8.256   6.293  18.725  0.00  0.00    +0.000 C 
ATOM     18  C   UNL     1       7.230   6.494  17.608  0.00  0.00    +0.000 C 
BRANCH  18  19
ATOM     19  C   UNL     1       7.415   5.345  16.573  0.00  0.00    +0.000 C 
ATOM     20  O   UNL     1       7.791   4.218  16.889  0.00  0.00    +0.000 OA
ATOM     21  N   UNL     1       7.212   5.713  15.260  0.00  0.00    +0.000 N 
ATOM     22  H   UNL     1       6.614   6.523  15.125  0.00  0.00    +0.000 HD
BRANCH  21  23
ATOM     23  C   UNL     1       7.382   4.754  14.189  0.00  0.00    +0.000 C 
ATOM     24  C   UNL     1       6.101   4.007  13.848  0.00  0.00    +0.000 C 
ATOM     25  C   UNL     1       6.369   3.431  12.464  0.00  0.00    +0.000 C 
ATOM     26  C   UNL     1       7.338   4.402  11.789  0.00  0.00    +0.000 C 
ATOM     27  C   UNL     1       7.771   5.399  12.863  0.00  0.00    +0.000 C 
ENDBRANCH  21  23
ENDBRANCH  18  19
ENDBRANCH   1  18
TORSDOF 5
ENDMDL
MODEL 5
REMARK VINA RESULT:      -6.9      6.931      8.546
REMARK  Name = 
REMARK  6 active torsions:
REMARK  status: ('A' for Active; 'I' for Inactive)
REMARK    1  A    between atoms: C_1  and  C_2
REMARK    2  A    between atoms: C_2  and  C_3
REMARK    3  A    between atoms: C_2  and  N_11
REMARK    4  A    between atoms: N_5  and  C_6
REMARK    5  A    between atoms: N_14  and  S_15
REMARK    6  A    between atoms: S_15  and  C_18
REMARK                            x       y       z     vdW  Elec       q    Type
REMARK                         _______ _______ _______ _____ _____    ______ ____
ROOT
ATOM      1  N   UNL     1       0.727   9.959  19.253  0.00  0.00    +0.000 NA
ATOM      2  C   UNL     1      -0.550  10.027  19.988  0.00  0.00    +0.000 C 
ATOM      3  C   UNL     1      -0.540  10.880  21.280  0.00  0.00    +0.000 C 
ATOM      4  N   UNL     1      -0.022  12.262  21.043  0.00  0.00    +0.000 NA
ATOM      5  C   UNL     1       1.303  12.216  20.354  0.00  0.00    +0.000 C 
ATOM      6  C   UNL     1       1.272  11.326  19.088  0.00  0.00    +0.000 C 
ENDROOT
BRANCH   4   7
ATOM      7  S   UNL     1      -1.116  13.414  20.425  0.00  0.00    +0.000 S 
ATOM      8  O   UNL     1      -0.594  14.744  20.668  0.00  0.00    +0.000 OA
ATOM      9  O   UNL     1      -1.443  13.022  19.068  0.00  0.00    +0.000 OA
BRANCH   7  10
ATOM     10  C   UNL     1      -2.583  13.217  21.406  0.00  0.00    +0.000 A 
ATOM     11  C   UNL     1      -3.773  12.872  20.753  0.00  0.00    +0.000 A 
ATOM     12  C   UNL     1      -4.961  12.719  21.471  0.00  0.00    +0.000 A 
ATOM     13  C   UNL     1      -4.965  12.901  22.850  0.00  0.00    +0.000 A 
ATOM     14  C   UNL     1      -3.782  13.265  23.503  0.00  0.00    +0.000 A 
ATOM     15  C   UNL     1      -2.592  13.449  22.786  0.00  0.00    +0.000 A 
ATOM     16 CL   UNL     1      -1.228  13.992  23.686  0.00  0.00    +0.000 Cl
ENDBRANCH   7  10
ENDBRANCH   4   7
BRANCH   1  18
ATOM     17  C   UNL     1       1.352   8.049  20.905  0.00  0.00    +0.000 C 
ATOM     18  C   UNL     1       1.720   8.957  19.730  0.00  0.00    +0.000 C 
BRANCH  18  19
ATOM     19  C   UNL     1       2.211   8.053  18.560  0.00  0.00    +0.000 C 
ATOM     20  O   UNL     1       2.378   8.474  17.417  0.00  0.00    +0.000 OA
ATOM     21  N   UNL     1       2.357   6.721  18.883  0.00  0.00    +0.000 N 
ATOM     22  H   UNL     1       2.515   6.529  19.869  0.00  0.00    +0.000 HD
BRANCH  21  23
ATOM     23  C   UNL     1       2.776   5.760  17.885  0.00  0.00    +0.000 C 
ATOM     24  C   UNL     1       4.166   5.199  18.143  0.00  0.00    +0.000 C 
ATOM     25  C   UNL     1       4.214   3.933  17.297  0.00  0.00    +0.000 C 
ATOM     26  C   UNL     1       2.774   3.425  17.226  0.00  0.00    +0.000 C 
ATOM     27  C   UNL     1       1.899   4.513  17.848  0.00  0.00    +0.000 C 
ENDBRANCH  21  23
ENDBRANCH  18  19
ENDBRANCH   1  18
TORSDOF 5
ENDMDL
MODEL 6
REMARK VINA RESULT:      -6.9      3.447      5.908
REMARK  Name = 
REMARK  6 active torsions:
REMARK  status: ('A' for Active; 'I' for Inactive)
REMARK    1  A    between atoms: C_1  and  C_2
REMARK    2  A    between atoms: C_2  and  C_3
REMARK    3  A    between atoms: C_2  and  N_11
REMARK    4  A    between atoms: N_5  and  C_6
REMARK    5  A    between atoms: N_14  and  S_15
REMARK    6  A    between atoms: S_15  and  C_18
REMARK                            x       y       z     vdW  Elec       q    Type
REMARK                         _______ _______ _______ _____ _____    ______ ____
ROOT
ATOM      1  N   UNL     1       5.720   5.838  18.394  0.00  0.00    +0.000 NA
ATOM      2  C   UNL     1       4.998   5.510  17.150  0.00  0.00    +0.000 C 
ATOM      3  C   UNL     1       4.750   4.004  16.890  0.00  0.00    +0.000 C 
ATOM      4  N   UNL     1       4.088   3.330  18.048  0.00  0.00    +0.000 NA
ATOM      5  C   UNL     1       4.838   3.597  19.313  0.00  0.00    +0.000 C 
ATOM      6  C   UNL     1       5.104   5.107  19.526  0.00  0.00    +0.000 C 
ENDROOT
BRANCH   4   7
ATOM      7  S   UNL     1       2.393   3.472  18.173  0.00  0.00    +0.000 S 
ATOM      8  O   UNL     1       1.824   3.549  16.842  0.00  0.00    +0.000 OA
ATOM      9  O   UNL     1       1.933   2.437  19.077  0.00  0.00    +0.000 OA
BRANCH   7  10
ATOM     10  C   UNL     1       2.127   5.036  18.970  0.00  0.00    +0.000 A 
ATOM     11  C   UNL     1       2.208   6.197  18.190  0.00  0.00    +0.000 A 
ATOM     12  C   UNL     1       2.023   7.456  18.766  0.00  0.00    +0.000 A 
ATOM     13  C   UNL     1       1.746   7.562  20.125  0.00  0.00    +0.000 A 
ATOM     14  C   UNL     1       1.684   6.406  20.911  0.00  0.00    +0.000 A 
ATOM     15  C   UNL     1       1.897   5.140  20.346  0.00  0.00    +0.000 A 
ATOM     16 CL   UNL     1       1.892   3.804  21.432  0.00  0.00    +0.000 Cl
ENDBRANCH   7  10
ENDBRANCH   4   7
BRANCH   1  18
ATOM     17  C   UNL     1       7.859   4.590  17.598  0.00  0.00    +0.000 C 
ATOM     18  C   UNL     1       7.206   5.754  18.347  0.00  0.00    +0.000 C 
BRANCH  18  19
ATOM     19  C   UNL     1       7.825   7.078  17.810  0.00  0.00    +0.000 C 
ATOM     20  O   UNL     1       7.952   7.317  16.611  0.00  0.00    +0.000 OA
ATOM     21  N   UNL     1       8.306   7.926  18.785  0.00  0.00    +0.000 N 
ATOM     22  H   UNL     1       7.883   7.814  19.702  0.00  0.00    +0.000 HD
BRANCH  21  23
ATOM     23  C   UNL     1       8.938   9.179  18.429  0.00  0.00    +0.000 C 
ATOM     24  C   UNL     1       7.988  10.155  17.751  0.00  0.00    +0.000 C 
ATOM     25  C   UNL     1       8.687  11.501  17.886  0.00  0.00    +0.000 C 
ATOM     26  C   UNL     1       9.509  11.417  19.172  0.00  0.00    +0.000 C 
ATOM     27  C   UNL     1       9.437   9.963  19.638  0.00  0.00    +0.000 C 
ENDBRANCH  21  23
ENDBRANCH  18  19
ENDBRANCH   1  18
TORSDOF 5
ENDMDL
MODEL 7
REMARK VINA RESULT:      -6.7      4.475      8.060
REMARK  Name = 
REMARK  6 active torsions:
REMARK  status: ('A' for Active; 'I' for Inactive)
REMARK    1  A    between atoms: C_1  and  C_2
REMARK    2  A    between atoms: C_2  and  C_3
REMARK    3  A    between atoms: C_2  and  N_11
REMARK    4  A    between atoms: N_5  and  C_6
REMARK    5  A    between atoms: N_14  and  S_15
REMARK    6  A    between atoms: S_15  and  C_18
REMARK                            x       y       z     vdW  Elec       q    Type
REMARK                         _______ _______ _______ _____ _____    ______ ____
ROOT
ATOM      1  N   UNL     1       2.040   7.812  17.961  0.00  0.00    +0.000 NA
ATOM      2  C   UNL     1       3.208   7.535  17.104  0.00  0.00    +0.000 C 
ATOM      3  C   UNL     1       4.504   7.122  17.841  0.00  0.00    +0.000 C 
ATOM      4  N   UNL     1       4.284   5.977  18.776  0.00  0.00    +0.000 NA
ATOM      5  C   UNL     1       3.143   6.261  19.698  0.00  0.00    +0.000 C 
ATOM      6  C   UNL     1       1.874   6.708  18.935  0.00  0.00    +0.000 C 
ENDROOT
BRANCH   4   7
ATOM      7  S   UNL     1       4.297   4.408  18.109  0.00  0.00    +0.000 S 
ATOM      8  O   UNL     1       4.913   3.495  19.053  0.00  0.00    +0.000 OA
ATOM      9  O   UNL     1       2.959   4.126  17.627  0.00  0.00    +0.000 OA
BRANCH   7  10
ATOM     10  C   UNL     1       5.362   4.527  16.693  0.00  0.00    +0.000 A 
ATOM     11  C   UNL     1       4.818   4.248  15.433  0.00  0.00    +0.000 A 
ATOM     12  C   UNL     1       5.612   4.310  14.285  0.00  0.00    +0.000 A 
ATOM     13  C   UNL     1       6.953   4.662  14.390  0.00  0.00    +0.000 A 
ATOM     14  C   UNL     1       7.505   4.922  15.649  0.00  0.00    +0.000 A 
ATOM     15  C   UNL     1       6.723   4.834  16.809  0.00  0.00    +0.000 A 
ATOM     16 CL   UNL     1       7.537   5.080  18.306  0.00  0.00    +0.000 Cl
ENDBRANCH   7  10
ENDBRANCH   4   7
BRANCH   1  18
ATOM     17  C   UNL     1       2.584  10.352  17.810  0.00  0.00    +0.000 C 
ATOM     18  C   UNL     1       1.958   9.174  18.558  0.00  0.00    +0.000 C 
BRANCH  18  19
ATOM     19  C   UNL     1       0.485   9.549  18.897  0.00  0.00    +0.000 C 
ATOM     20  O   UNL     1       0.040   9.535  20.043  0.00  0.00    +0.000 OA
ATOM     21  N   UNL     1      -0.311   9.811  17.802  0.00  0.00    +0.000 N 
ATOM     22  H   UNL     1       0.187  10.112  16.969  0.00  0.00    +0.000 HD
BRANCH  21  23
ATOM     23  C   UNL     1      -1.711  10.141  17.966  0.00  0.00    +0.000 C 
ATOM     24  C   UNL     1      -1.955  11.633  18.136  0.00  0.00    +0.000 C 
ATOM     25  C   UNL     1      -3.439  11.798  17.832  0.00  0.00    +0.000 C 
ATOM     26  C   UNL     1      -3.785  10.691  16.836  0.00  0.00    +0.000 C 
ATOM     27  C   UNL     1      -2.557   9.787  16.748  0.00  0.00    +0.000 C 
ENDBRANCH  21  23
ENDBRANCH  18  19
ENDBRANCH   1  18
TORSDOF 5
ENDMDL
MODEL 8
REMARK VINA RESULT:      -6.5      3.277      4.036
REMARK  Name = 
REMARK  6 active torsions:
REMARK  status: ('A' for Active; 'I' for Inactive)
REMARK    1  A    between atoms: C_1  and  C_2
REMARK    2  A    between atoms: C_2  and  C_3
REMARK    3  A    between atoms: C_2  and  N_11
REMARK    4  A    between atoms: N_5  and  C_6
REMARK    5  A    between atoms: N_14  and  S_15
REMARK    6  A    between atoms: S_15  and  C_18
REMARK                            x       y       z     vdW  Elec       q    Type
REMARK                         _______ _______ _______ _____ _____    ______ ____
ROOT
ATOM      1  N   UNL     1       3.605   5.136  17.124  0.00  0.00    +0.000 NA
ATOM      2  C   UNL     1       2.341   5.207  17.882  0.00  0.00    +0.000 C 
ATOM      3  C   UNL     1       2.380   6.047  19.182  0.00  0.00    +0.000 C 
ATOM      4  N   UNL     1       2.905   7.427  18.949  0.00  0.00    +0.000 NA
ATOM      5  C   UNL     1       4.218   7.379  18.237  0.00  0.00    +0.000 C 
ATOM      6  C   UNL     1       4.158   6.501  16.963  0.00  0.00    +0.000 C 
ENDROOT
BRANCH   4   7
ATOM      7  S   UNL     1       1.809   8.594  18.361  0.00  0.00    +0.000 S 
ATOM      8  O   UNL     1       2.552   9.676  17.747  0.00  0.00    +0.000 OA
ATOM      9  O   UNL     1       0.805   7.897  17.582  0.00  0.00    +0.000 OA
BRANCH   7  10
ATOM     10  C   UNL     1       1.010   9.236  19.811  0.00  0.00    +0.000 A 
ATOM     11  C   UNL     1       1.419   8.750  21.060  0.00  0.00    +0.000 A 
ATOM     12  C   UNL     1       0.815   9.206  22.234  0.00  0.00    +0.000 A 
ATOM     13  C   UNL     1      -0.195  10.160  22.167  0.00  0.00    +0.000 A 
ATOM     14  C   UNL     1      -0.619  10.634  20.921  0.00  0.00    +0.000 A 
ATOM     15  C   UNL     1      -0.038  10.160  19.736  0.00  0.00    +0.000 A 
ATOM     16 CL   UNL     1      -0.711  10.744  18.262  0.00  0.00    +0.000 Cl
ENDBRANCH   7  10
ENDBRANCH   4   7
BRANCH   1  18
ATOM     17  C   UNL     1       4.127   2.692  17.847  0.00  0.00    +0.000 C 
ATOM     18  C   UNL     1       4.598   4.122  17.574  0.00  0.00    +0.000 C 
BRANCH  18  19
ATOM     19  C   UNL     1       5.808   4.051  16.597  0.00  0.00    +0.000 C 
ATOM     20  O   UNL     1       6.974   4.177  16.968  0.00  0.00    +0.000 OA
ATOM     21  N   UNL     1       5.469   3.926  15.266  0.00  0.00    +0.000 N 
ATOM     22  H   UNL     1       4.557   3.515  15.090  0.00  0.00    +0.000 HD
BRANCH  21  23
ATOM     23  C   UNL     1       6.492   3.880  14.243  0.00  0.00    +0.000 C 
ATOM     24  C   UNL     1       5.951   3.495  12.875  0.00  0.00    +0.000 C 
ATOM     25  C   UNL     1       7.039   3.947  11.909  0.00  0.00    +0.000 C 
ATOM     26  C   UNL     1       7.713   5.147  12.573  0.00  0.00    +0.000 C 
ATOM     27  C   UNL     1       7.146   5.234  13.990  0.00  0.00    +0.000 C 
ENDBRANCH  21  23
ENDBRANCH  18  19
ENDBRANCH   1  18
TORSDOF 5
ENDMDL
MODEL 9
REMARK VINA RESULT:      -6.5      6.689      8.340
REMARK  Name = 
REMARK  6 active torsions:
REMARK  status: ('A' for Active; 'I' for Inactive)
REMARK    1  A    between atoms: C_1  and  C_2
REMARK    2  A    between atoms: C_2  and  C_3
REMARK    3  A    between atoms: C_2  and  N_11
REMARK    4  A    between atoms: N_5  and  C_6
REMARK    5  A    between atoms: N_14  and  S_15
REMARK    6  A    between atoms: S_15  and  C_18
REMARK                            x       y       z     vdW  Elec       q    Type
REMARK                         _______ _______ _______ _____ _____    ______ ____
ROOT
ATOM      1  N   UNL     1       0.714   9.731  19.153  0.00  0.00    +0.000 NA
ATOM      2  C   UNL     1      -0.529  10.005  19.900  0.00  0.00    +0.000 C 
ATOM      3  C   UNL     1      -0.429  11.085  21.004  0.00  0.00    +0.000 C 
ATOM      4  N   UNL     1       0.141  12.368  20.491  0.00  0.00    +0.000 NA
ATOM      5  C   UNL     1       1.435  12.124  19.784  0.00  0.00    +0.000 C 
ATOM      6  C   UNL     1       1.313  11.013  18.714  0.00  0.00    +0.000 C 
ENDROOT
BRANCH   4   7
ATOM      7  S   UNL     1      -0.923  13.437  19.697  0.00  0.00    +0.000 S 
ATOM      8  O   UNL     1      -0.415  14.790  19.817  0.00  0.00    +0.000 OA
ATOM      9  O   UNL     1      -1.182  12.897  18.377  0.00  0.00    +0.000 OA
BRANCH   7  10
ATOM     10  C   UNL     1      -2.436  13.340  20.622  0.00  0.00    +0.000 A 
ATOM     11  C   UNL     1      -2.476  13.938  21.888  0.00  0.00    +0.000 A 
ATOM     12  C   UNL     1      -3.634  13.879  22.667  0.00  0.00    +0.000 A 
ATOM     13  C   UNL     1      -4.763  13.230  22.180  0.00  0.00    +0.000 A 
ATOM     14  C   UNL     1      -4.721  12.614  20.925  0.00  0.00    +0.000 A 
ATOM     15  C   UNL     1      -3.554  12.643  20.148  0.00  0.00    +0.000 A 
ATOM     16 CL   UNL     1      -3.594  11.767  18.666  0.00  0.00    +0.000 Cl
ENDBRANCH   7  10
ENDBRANCH   4   7
BRANCH   1  18
ATOM     17  C   UNL     1       1.218   7.939  20.970  0.00  0.00    +0.000 C 
ATOM     18  C   UNL     1       1.678   8.788  19.783  0.00  0.00    +0.000 C 
BRANCH  18  19
ATOM     19  C   UNL     1       2.302   7.833  18.722  0.00  0.00    +0.000 C 
ATOM     20  O   UNL     1       2.676   8.218  17.617  0.00  0.00    +0.000 OA
ATOM     21  N   UNL     1       2.318   6.502  19.083  0.00  0.00    +0.000 N 
ATOM     22  H   UNL     1       2.302   6.325  20.084  0.00  0.00    +0.000 HD
BRANCH  21  23
ATOM     23  C   UNL     1       2.839   5.498  18.180  0.00  0.00    +0.000 C 
ATOM     24  C   UNL     1       3.922   4.634  18.810  0.00  0.00    +0.000 C 
ATOM     25  C   UNL     1       3.989   3.411  17.904  0.00  0.00    +0.000 C 
ATOM     26  C   UNL     1       2.582   3.239  17.332  0.00  0.00    +0.000 C 
ATOM     27  C   UNL     1       1.790   4.479  17.748  0.00  0.00    +0.000 C 
ENDBRANCH  21  23
ENDBRANCH  18  19
ENDBRANCH   1  18
TORSDOF 5
ENDMDL
