MODEL 1
REMARK VINA RESULT:      -8.6      0.000      0.000
REMARK  Name = 
REMARK  7 active torsions:
REMARK  status: ('A' for Active; 'I' for Inactive)
REMARK    1  A    between atoms: C_1  and  S_2
REMARK    2  A    between atoms: S_2  and  N_5
REMARK    3  A    between atoms: N_5  and  C_6
REMARK    4  A    between atoms: C_9  and  C_10
REMARK    5  A    between atoms: C_10  and  C_11
REMARK    6  A    between atoms: C_11  and  N_12
REMARK    7  A    between atoms: C_15  and  C_16
REMARK                            x       y       z     vdW  Elec       q    Type
REMARK                         _______ _______ _______ _____ _____    ______ ____
ROOT
ATOM      1  N   UNL     1       1.931   3.757  19.584  0.00  0.00    +0.000 NA
ATOM      2  C   UNL     1       1.981   4.253  18.202  0.00  0.00    +0.000 C 
ATOM      3  C   UNL     1       2.684   3.324  17.213  0.00  0.00    +0.000 C 
ATOM      4  C   UNL     1       4.083   2.916  17.687  0.00  0.00    +0.000 C 
ATOM      5  C   UNL     1       3.889   2.266  19.071  0.00  0.00    +0.000 C 
ATOM      6  C   UNL     1       3.209   3.210  20.061  0.00  0.00    +0.000 C 
ENDROOT
BRANCH   4   7
ATOM      7  C   UNL     1       5.185   3.974  17.644  0.00  0.00    +0.000 A 
ATOM      8  C   UNL     1       5.559   4.613  18.849  0.00  0.00    +0.000 A 
ATOM      9  C   UNL     1       6.582   5.580  18.898  0.00  0.00    +0.000 A 
ATOM     10  C   UNL     1       7.270   5.937  17.744  0.00  0.00    +0.000 A 
ATOM     11  C   UNL     1       6.921   5.300  16.575  0.00  0.00    +0.000 A 
ATOM     12  C   UNL     1       5.926   4.339  16.524  0.00  0.00    +0.000 A 
ATOM     13  O   UNL     1       5.824   3.829  15.264  0.00  0.00    +0.000 OA
ATOM     14  C   UNL     1       6.750   4.644  14.529  0.00  0.00    +0.000 C 
ATOM     15  O   UNL     1       7.513   5.524  15.369  0.00  0.00    +0.000 OA
ENDBRANCH   4   7
BRANCH   1  16
ATOM     16  C   UNL     1       1.501   4.841  20.494  0.00  0.00    +0.000 C 
BRANCH  16  17
ATOM     17  C   UNL     1       2.331   6.127  20.353  0.00  0.00    +0.000 C 
BRANCH  17  21
ATOM     18  C   UNL     1       1.385  10.170  19.054  0.00  0.00    +0.000 C 
ATOM     19  C   UNL     1       0.572   9.586  20.202  0.00  0.00    +0.000 C 
ATOM     20  C   UNL     1       1.236   8.352  20.784  0.00  0.00    +0.000 C 
ATOM     21  C   UNL     1       1.541   7.287  19.724  0.00  0.00    +0.000 C 
ATOM     22  C   UNL     1       2.307   7.881  18.535  0.00  0.00    +0.000 C 
ATOM     23  C   UNL     1       1.588   9.105  17.966  0.00  0.00    +0.000 C 
BRANCH  18  24
ATOM     24  N   UNL     1       0.717  11.338  18.459  0.00  0.00    +0.000 NA
ATOM     25  H   UNL     1       0.529  11.302  17.457  0.00  0.00    +0.000 HD
BRANCH  24  27
ATOM     26  C   UNL     1       2.567  13.292  18.138  0.00  0.00    +0.000 C 
ATOM     27  S   UNL     1       1.044  12.902  18.977  0.00  0.00    +0.000 S 
ATOM     28  O   UNL     1       1.285  12.904  20.398  0.00  0.00    +0.000 OA
ATOM     29  O   UNL     1       0.005  13.714  18.394  0.00  0.00    +0.000 OA
ENDBRANCH  24  27
ENDBRANCH  18  24
ENDBRANCH  17  21
ENDBRANCH  16  17
ENDBRANCH   1  16
TORSDOF 6
ENDMDL
MODEL 2
REMARK VINA RESULT:      -8.4      1.215      1.705
REMARK  Name = 
REMARK  7 active torsions:
REMARK  status: ('A' for Active; 'I' for Inactive)
REMARK    1  A    between atoms: C_1  and  S_2
REMARK    2  A    between atoms: S_2  and  N_5
REMARK    3  A    between atoms: N_5  and  C_6
REMARK    4  A    between atoms: C_9  and  C_10
REMARK    5  A    between atoms: C_10  and  C_11
REMARK    6  A    between atoms: C_11  and  N_12
REMARK    7  A    between atoms: C_15  and  C_16
REMARK                            x       y       z     vdW  Elec       q    Type
REMARK                         _______ _______ _______ _____ _____    ______ ____
ROOT
ATOM      1  N   UNL     1       1.685   3.856  19.269  0.00  0.00    +0.000 NA
ATOM      2  C   UNL     1       1.874   4.243  17.864  0.00  0.00    +0.000 C 
ATOM      3  C   UNL     1       2.685   3.252  17.030  0.00  0.00    +0.000 C 
ATOM      4  C   UNL     1       4.031   2.907  17.677  0.00  0.00    +0.000 C 
ATOM      5  C   UNL     1       3.700   2.365  19.081  0.00  0.00    +0.000 C 
ATOM      6  C   UNL     1       2.911   3.372  19.918  0.00  0.00    +0.000 C 
ENDROOT
BRANCH   4   7
ATOM      7  C   UNL     1       5.121   3.978  17.664  0.00  0.00    +0.000 A 
ATOM      8  C   UNL     1       5.442   4.635  18.875  0.00  0.00    +0.000 A 
ATOM      9  C   UNL     1       6.450   5.615  18.952  0.00  0.00    +0.000 A 
ATOM     10  C   UNL     1       7.178   5.968  17.821  0.00  0.00    +0.000 A 
ATOM     11  C   UNL     1       6.880   5.314  16.647  0.00  0.00    +0.000 A 
ATOM     12  C   UNL     1       5.900   4.341  16.569  0.00  0.00    +0.000 A 
ATOM     13  O   UNL     1       5.851   3.816  15.312  0.00  0.00    +0.000 OA
ATOM     14  C   UNL     1       6.796   4.634  14.603  0.00  0.00    +0.000 C 
ATOM     15  O   UNL     1       7.515   5.532  15.462  0.00  0.00    +0.000 OA
ENDBRANCH   4   7
BRANCH   1  16
ATOM     16  C   UNL     1       1.151   5.000  20.040  0.00  0.00    +0.000 C 
BRANCH  16  17
ATOM     17  C   UNL     1       2.241   5.845  20.719  0.00  0.00    +0.000 C 
BRANCH  17  21
ATOM     18  C   UNL     1       0.638   9.560  19.121  0.00  0.00    +0.000 C 
ATOM     19  C   UNL     1       1.840   8.946  18.415  0.00  0.00    +0.000 C 
ATOM     20  C   UNL     1       2.054   7.503  18.835  0.00  0.00    +0.000 C 
ATOM     21  C   UNL     1       2.161   7.337  20.355  0.00  0.00    +0.000 C 
ATOM     22  C   UNL     1       0.985   8.008  21.077  0.00  0.00    +0.000 C 
ATOM     23  C   UNL     1       0.824   9.465  20.642  0.00  0.00    +0.000 C 
BRANCH  18  24
ATOM     24  N   UNL     1       0.459  10.973  18.750  0.00  0.00    +0.000 NA
ATOM     25  H   UNL     1       1.137  11.638  19.124  0.00  0.00    +0.000 HD
BRANCH  24  27
ATOM     26  C   UNL     1      -1.521  12.024  20.272  0.00  0.00    +0.000 C 
ATOM     27  S   UNL     1      -1.065  11.658  18.589  0.00  0.00    +0.000 S 
ATOM     28  O   UNL     1      -1.985  10.681  18.062  0.00  0.00    +0.000 OA
ATOM     29  O   UNL     1      -0.842  12.913  17.915  0.00  0.00    +0.000 OA
ENDBRANCH  24  27
ENDBRANCH  18  24
ENDBRANCH  17  21
ENDBRANCH  16  17
ENDBRANCH   1  16
TORSDOF 6
ENDMDL
MODEL 3
REMARK VINA RESULT:      -8.3      1.056      1.421
REMARK  Name = 
REMARK  7 active torsions:
REMARK  status: ('A' for Active; 'I' for Inactive)
REMARK    1  A    between atoms: C_1  and  S_2
REMARK    2  A    between atoms: S_2  and  N_5
REMARK    3  A    between atoms: N_5  and  C_6
REMARK    4  A    between atoms: C_9  and  C_10
REMARK    5  A    between atoms: C_10  and  C_11
REMARK    6  A    between atoms: C_11  and  N_12
REMARK    7  A    between atoms: C_15  and  C_16
REMARK                            x       y       z     vdW  Elec       q    Type
REMARK                         _______ _______ _______ _____ _____    ______ ____
ROOT
ATOM      1  N   UNL     1       1.652   3.716  19.219  0.00  0.00    +0.000 NA
ATOM      2  C   UNL     1       1.856   4.131  17.824  0.00  0.00    +0.000 C 
ATOM      3  C   UNL     1       2.691   3.165  16.984  0.00  0.00    +0.000 C 
ATOM      4  C   UNL     1       4.032   2.826  17.643  0.00  0.00    +0.000 C 
ATOM      5  C   UNL     1       3.689   2.254  19.033  0.00  0.00    +0.000 C 
ATOM      6  C   UNL     1       2.876   3.236  19.876  0.00  0.00    +0.000 C 
ENDROOT
BRANCH   4   7
ATOM      7  C   UNL     1       5.108   3.911  17.665  0.00  0.00    +0.000 A 
ATOM      8  C   UNL     1       5.407   4.546  18.892  0.00  0.00    +0.000 A 
ATOM      9  C   UNL     1       6.402   5.538  19.000  0.00  0.00    +0.000 A 
ATOM     10  C   UNL     1       7.138   5.923  17.885  0.00  0.00    +0.000 A 
ATOM     11  C   UNL     1       6.862   5.289  16.695  0.00  0.00    +0.000 A 
ATOM     12  C   UNL     1       5.895   4.305  16.586  0.00  0.00    +0.000 A 
ATOM     13  O   UNL     1       5.867   3.806  15.318  0.00  0.00    +0.000 OA
ATOM     14  C   UNL     1       6.809   4.650  14.637  0.00  0.00    +0.000 C 
ATOM     15  O   UNL     1       7.507   5.539  15.522  0.00  0.00    +0.000 OA
ENDBRANCH   4   7
BRANCH   1  16
ATOM     16  C   UNL     1       1.094   4.840  20.002  0.00  0.00    +0.000 C 
BRANCH  16  17
ATOM     17  C   UNL     1       2.152   5.621  20.797  0.00  0.00    +0.000 C 
BRANCH  17  21
ATOM     18  C   UNL     1       0.849   9.453  19.202  0.00  0.00    +0.000 C 
ATOM     19  C   UNL     1       2.023   8.764  18.519  0.00  0.00    +0.000 C 
ATOM     20  C   UNL     1       2.127   7.306  18.927  0.00  0.00    +0.000 C 
ATOM     21  C   UNL     1       2.184   7.118  20.448  0.00  0.00    +0.000 C 
ATOM     22  C   UNL     1       1.040   7.862  21.149  0.00  0.00    +0.000 C 
ATOM     23  C   UNL     1       0.990   9.331  20.727  0.00  0.00    +0.000 C 
BRANCH  18  24
ATOM     24  N   UNL     1       0.777  10.878  18.843  0.00  0.00    +0.000 NA
ATOM     25  H   UNL     1       1.664  11.375  18.743  0.00  0.00    +0.000 HD
BRANCH  24  27
ATOM     26  C   UNL     1      -0.499  13.187  18.225  0.00  0.00    +0.000 C 
ATOM     27  S   UNL     1      -0.436  11.878  19.432  0.00  0.00    +0.000 S 
ATOM     28  O   UNL     1      -0.035  12.436  20.699  0.00  0.00    +0.000 OA
ATOM     29  O   UNL     1      -1.649  11.109  19.306  0.00  0.00    +0.000 OA
ENDBRANCH  24  27
ENDBRANCH  18  24
ENDBRANCH  17  21
ENDBRANCH  16  17
ENDBRANCH   1  16
TORSDOF 6
ENDMDL
MODEL 4
REMARK VINA RESULT:      -8.2      1.676      2.015
REMARK  Name = 
REMARK  7 active torsions:
REMARK  status: ('A' for Active; 'I' for Inactive)
REMARK    1  A    between atoms: C_1  and  S_2
REMARK    2  A    between atoms: S_2  and  N_5
REMARK    3  A    between atoms: N_5  and  C_6
REMARK    4  A    between atoms: C_9  and  C_10
REMARK    5  A    between atoms: C_10  and  C_11
REMARK    6  A    between atoms: C_11  and  N_12
REMARK    7  A    between atoms: C_15  and  C_16
REMARK                            x       y       z     vdW  Elec       q    Type
REMARK                         _______ _______ _______ _____ _____    ______ ____
ROOT
ATOM      1  N   UNL     1       1.868   4.458  19.604  0.00  0.00    +0.000 NA
ATOM      2  C   UNL     1       1.999   4.747  18.169  0.00  0.00    +0.000 C 
ATOM      3  C   UNL     1       2.637   3.629  17.346  0.00  0.00    +0.000 C 
ATOM      4  C   UNL     1       3.979   3.170  17.925  0.00  0.00    +0.000 C 
ATOM      5  C   UNL     1       3.691   2.742  19.377  0.00  0.00    +0.000 C 
ATOM      6  C   UNL     1       3.076   3.873  20.201  0.00  0.00    +0.000 C 
ENDROOT
BRANCH   4   7
ATOM      7  C   UNL     1       5.176   4.109  17.779  0.00  0.00    +0.000 A 
ATOM      8  C   UNL     1       5.692   4.736  18.936  0.00  0.00    +0.000 A 
ATOM      9  C   UNL     1       6.807   5.595  18.889  0.00  0.00    +0.000 A 
ATOM     10  C   UNL     1       7.448   5.853  17.683  0.00  0.00    +0.000 A 
ATOM     11  C   UNL     1       6.959   5.226  16.559  0.00  0.00    +0.000 A 
ATOM     12  C   UNL     1       5.873   4.371  16.602  0.00  0.00    +0.000 A 
ATOM     13  O   UNL     1       5.635   3.843  15.368  0.00  0.00    +0.000 OA
ATOM     14  C   UNL     1       6.586   4.542  14.550  0.00  0.00    +0.000 C 
ATOM     15  O   UNL     1       7.487   5.359  15.311  0.00  0.00    +0.000 OA
ENDBRANCH   4   7
BRANCH   1  16
ATOM     16  C   UNL     1       1.517   5.694  20.337  0.00  0.00    +0.000 C 
BRANCH  16  17
ATOM     17  C   UNL     1       2.283   6.935  19.852  0.00  0.00    +0.000 C 
BRANCH  17  21
ATOM     18  C   UNL     1      -0.503  10.179  20.654  0.00  0.00    +0.000 C 
ATOM     19  C   UNL     1       0.724  10.492  19.807  0.00  0.00    +0.000 C 
ATOM     20  C   UNL     1       1.393   9.225  19.306  0.00  0.00    +0.000 C 
ATOM     21  C   UNL     1       1.735   8.248  20.436  0.00  0.00    +0.000 C 
ATOM     22  C   UNL     1       0.519   7.975  21.331  0.00  0.00    +0.000 C 
ATOM     23  C   UNL     1      -0.106   9.278  21.832  0.00  0.00    +0.000 C 
BRANCH  18  24
ATOM     24  N   UNL     1      -1.123  11.406  21.178  0.00  0.00    +0.000 NA
ATOM     25  H   UNL     1      -1.428  11.389  22.153  0.00  0.00    +0.000 HD
BRANCH  24  27
ATOM     26  C   UNL     1      -1.034  13.687  19.719  0.00  0.00    +0.000 C 
ATOM     27  S   UNL     1      -2.119  12.369  20.229  0.00  0.00    +0.000 S 
ATOM     28  O   UNL     1      -3.174  12.924  21.038  0.00  0.00    +0.000 OA
ATOM     29  O   UNL     1      -2.411  11.570  19.065  0.00  0.00    +0.000 OA
ENDBRANCH  24  27
ENDBRANCH  18  24
ENDBRANCH  17  21
ENDBRANCH  16  17
ENDBRANCH   1  16
TORSDOF 6
ENDMDL
MODEL 5
REMARK VINA RESULT:      -8.1      1.580      2.058
REMARK  Name = 
REMARK  7 active torsions:
REMARK  status: ('A' for Active; 'I' for Inactive)
REMARK    1  A    between atoms: C_1  and  S_2
REMARK    2  A    between atoms: S_2  and  N_5
REMARK    3  A    between atoms: N_5  and  C_6
REMARK    4  A    between atoms: C_9  and  C_10
REMARK    5  A    between atoms: C_10  and  C_11
REMARK    6  A    between atoms: C_11  and  N_12
REMARK    7  A    between atoms: C_15  and  C_16
REMARK                            x       y       z     vdW  Elec       q    Type
REMARK                         _______ _______ _______ _____ _____    ______ ____
ROOT
ATOM      1  N   UNL     1       1.815   4.391  19.459  0.00  0.00    +0.000 NA
ATOM      2  C   UNL     1       1.991   4.663  18.026  0.00  0.00    +0.000 C 
ATOM      3  C   UNL     1       2.677   3.545  17.241  0.00  0.00    +0.000 C 
ATOM      4  C   UNL     1       4.006   3.117  17.874  0.00  0.00    +0.000 C 
ATOM      5  C   UNL     1       3.673   2.704  19.321  0.00  0.00    +0.000 C 
ATOM      6  C   UNL     1       3.011   3.836  20.106  0.00  0.00    +0.000 C 
ENDROOT
BRANCH   4   7
ATOM      7  C   UNL     1       5.190   4.074  17.756  0.00  0.00    +0.000 A 
ATOM      8  C   UNL     1       5.676   4.700  18.927  0.00  0.00    +0.000 A 
ATOM      9  C   UNL     1       6.779   5.576  18.907  0.00  0.00    +0.000 A 
ATOM     10  C   UNL     1       7.439   5.851  17.715  0.00  0.00    +0.000 A 
ATOM     11  C   UNL     1       6.979   5.226  16.578  0.00  0.00    +0.000 A 
ATOM     12  C   UNL     1       5.905   4.354  16.595  0.00  0.00    +0.000 A 
ATOM     13  O   UNL     1       5.698   3.832  15.353  0.00  0.00    +0.000 OA
ATOM     14  C   UNL     1       6.655   4.550  14.557  0.00  0.00    +0.000 C 
ATOM     15  O   UNL     1       7.529   5.376  15.341  0.00  0.00    +0.000 OA
ENDBRANCH   4   7
BRANCH   1  16
ATOM     16  C   UNL     1       1.417   5.631  20.162  0.00  0.00    +0.000 C 
BRANCH  16  17
ATOM     17  C   UNL     1       2.403   6.794  19.962  0.00  0.00    +0.000 C 
BRANCH  17  21
ATOM     18  C   UNL     1      -0.492  10.016  20.365  0.00  0.00    +0.000 C 
ATOM     19  C   UNL     1       0.701  10.246  19.446  0.00  0.00    +0.000 C 
ATOM     20  C   UNL     1       1.408   8.945  19.115  0.00  0.00    +0.000 C 
ATOM     21  C   UNL     1       1.816   8.157  20.365  0.00  0.00    +0.000 C 
ATOM     22  C   UNL     1       0.634   7.974  21.325  0.00  0.00    +0.000 C 
ATOM     23  C   UNL     1      -0.030   9.313  21.650  0.00  0.00    +0.000 C 
BRANCH  18  24
ATOM     24  N   UNL     1      -1.148  11.283  20.724  0.00  0.00    +0.000 NA
ATOM     25  H   UNL     1      -1.590  11.805  19.966  0.00  0.00    +0.000 HD
BRANCH  24  27
ATOM     26  C   UNL     1      -1.443  13.806  21.665  0.00  0.00    +0.000 C 
ATOM     27  S   UNL     1      -0.518  12.302  21.900  0.00  0.00    +0.000 S 
ATOM     28  O   UNL     1       0.871  12.566  21.622  0.00  0.00    +0.000 OA
ATOM     29  O   UNL     1      -0.933  11.727  23.155  0.00  0.00    +0.000 OA
ENDBRANCH  24  27
ENDBRANCH  18  24
ENDBRANCH  17  21
ENDBRANCH  16  17
ENDBRANCH   1  16
TORSDOF 6
ENDMDL
MODEL 6
REMARK VINA RESULT:      -8.1      2.502      2.944
REMARK  Name = 
REMARK  7 active torsions:
REMARK  status: ('A' for Active; 'I' for Inactive)
REMARK    1  A    between atoms: C_1  and  S_2
REMARK    2  A    between atoms: S_2  and  N_5
REMARK    3  A    between atoms: N_5  and  C_6
REMARK    4  A    between atoms: C_9  and  C_10
REMARK    5  A    between atoms: C_10  and  C_11
REMARK    6  A    between atoms: C_11  and  N_12
REMARK    7  A    between atoms: C_15  and  C_16
REMARK                            x       y       z     vdW  Elec       q    Type
REMARK                         _______ _______ _______ _____ _____    ______ ____
ROOT
ATOM      1  N   UNL     1       1.849   5.103  19.878  0.00  0.00    +0.000 NA
ATOM      2  C   UNL     1       2.016   5.579  18.498  0.00  0.00    +0.000 C 
ATOM      3  C   UNL     1       2.442   4.505  17.497  0.00  0.00    +0.000 C 
ATOM      4  C   UNL     1       3.688   3.740  17.955  0.00  0.00    +0.000 C 
ATOM      5  C   UNL     1       3.342   3.154  19.338  0.00  0.00    +0.000 C 
ATOM      6  C   UNL     1       2.943   4.237  20.339  0.00  0.00    +0.000 C 
ENDROOT
BRANCH   4   7
ATOM      7  C   UNL     1       5.029   4.471  17.907  0.00  0.00    +0.000 A 
ATOM      8  C   UNL     1       5.605   4.913  19.120  0.00  0.00    +0.000 A 
ATOM      9  C   UNL     1       6.849   5.572  19.162  0.00  0.00    +0.000 A 
ATOM     10  C   UNL     1       7.564   5.806  17.993  0.00  0.00    +0.000 A 
ATOM     11  C   UNL     1       7.013   5.357  16.814  0.00  0.00    +0.000 A 
ATOM     12  C   UNL     1       5.798   4.697  16.768  0.00  0.00    +0.000 A 
ATOM     13  O   UNL     1       5.515   4.311  15.492  0.00  0.00    +0.000 OA
ATOM     14  C   UNL     1       6.597   4.897  14.750  0.00  0.00    +0.000 C 
ATOM     15  O   UNL     1       7.597   5.491  15.590  0.00  0.00    +0.000 OA
ENDBRANCH   4   7
BRANCH   1  16
ATOM     16  C   UNL     1       1.727   6.256  20.797  0.00  0.00    +0.000 C 
BRANCH  16  17
ATOM     17  C   UNL     1       1.724   7.616  20.080  0.00  0.00    +0.000 C 
BRANCH  17  21
ATOM     18  C   UNL     1      -0.620  10.633  22.162  0.00  0.00    +0.000 C 
ATOM     19  C   UNL     1       0.362  11.107  21.099  0.00  0.00    +0.000 C 
ATOM     20  C   UNL     1       0.824   9.962  20.216  0.00  0.00    +0.000 C 
ATOM     21  C   UNL     1       1.401   8.790  21.019  0.00  0.00    +0.000 C 
ATOM     22  C   UNL     1       0.444   8.346  22.132  0.00  0.00    +0.000 C 
ATOM     23  C   UNL     1       0.026   9.527  23.010  0.00  0.00    +0.000 C 
BRANCH  18  24
ATOM     24  N   UNL     1      -1.031  11.734  23.046  0.00  0.00    +0.000 NA
ATOM     25  H   UNL     1      -0.717  11.689  24.017  0.00  0.00    +0.000 HD
BRANCH  24  27
ATOM     26  C   UNL     1      -2.224  14.137  23.425  0.00  0.00    +0.000 C 
ATOM     27  S   UNL     1      -2.539  12.460  22.911  0.00  0.00    +0.000 S 
ATOM     28  O   UNL     1      -3.456  11.855  23.843  0.00  0.00    +0.000 OA
ATOM     29  O   UNL     1      -2.817  12.483  21.497  0.00  0.00    +0.000 OA
ENDBRANCH  24  27
ENDBRANCH  18  24
ENDBRANCH  17  21
ENDBRANCH  16  17
ENDBRANCH   1  16
TORSDOF 6
ENDMDL
MODEL 7
REMARK VINA RESULT:      -7.9      1.423      1.806
REMARK  Name = 
REMARK  7 active torsions:
REMARK  status: ('A' for Active; 'I' for Inactive)
REMARK    1  A    between atoms: C_1  and  S_2
REMARK    2  A    between atoms: S_2  and  N_5
REMARK    3  A    between atoms: N_5  and  C_6
REMARK    4  A    between atoms: C_9  and  C_10
REMARK    5  A    between atoms: C_10  and  C_11
REMARK    6  A    between atoms: C_11  and  N_12
REMARK    7  A    between atoms: C_15  and  C_16
REMARK                            x       y       z     vdW  Elec       q    Type
REMARK                         _______ _______ _______ _____ _____    ______ ____
ROOT
ATOM      1  N   UNL     1       2.008   3.529  19.689  0.00  0.00    +0.000 NA
ATOM      2  C   UNL     1       1.864   3.788  18.250  0.00  0.00    +0.000 C 
ATOM      3  C   UNL     1       2.851   3.032  17.361  0.00  0.00    +0.000 C 
ATOM      4  C   UNL     1       4.305   3.233  17.799  0.00  0.00    +0.000 C 
ATOM      5  C   UNL     1       4.372   2.781  19.271  0.00  0.00    +0.000 C 
ATOM      6  C   UNL     1       3.401   3.560  20.157  0.00  0.00    +0.000 C 
ENDROOT
BRANCH   4   7
ATOM      7  C   UNL     1       4.945   4.596  17.536  0.00  0.00    +0.000 A 
ATOM      8  C   UNL     1       4.318   5.476  16.624  0.00  0.00    +0.000 A 
ATOM      9  C   UNL     1       4.831   6.758  16.347  0.00  0.00    +0.000 A 
ATOM     10  C   UNL     1       5.985   7.208  16.978  0.00  0.00    +0.000 A 
ATOM     11  C   UNL     1       6.584   6.359  17.882  0.00  0.00    +0.000 A 
ATOM     12  C   UNL     1       6.077   5.104  18.168  0.00  0.00    +0.000 A 
ATOM     13  O   UNL     1       6.823   4.500  19.135  0.00  0.00    +0.000 OA
ATOM     14  C   UNL     1       7.894   5.438  19.324  0.00  0.00    +0.000 C 
ATOM     15  O   UNL     1       7.706   6.660  18.594  0.00  0.00    +0.000 OA
ENDBRANCH   4   7
BRANCH   1  16
ATOM     16  C   UNL     1       1.218   4.513  20.460  0.00  0.00    +0.000 C 
BRANCH  16  17
ATOM     17  C   UNL     1       1.984   5.810  20.769  0.00  0.00    +0.000 C 
BRANCH  17  21
ATOM     18  C   UNL     1       1.519   9.951  19.518  0.00  0.00    +0.000 C 
ATOM     19  C   UNL     1       0.538   9.408  20.550  0.00  0.00    +0.000 C 
ATOM     20  C   UNL     1       1.032   8.107  21.157  0.00  0.00    +0.000 C 
ATOM     21  C   UNL     1       1.366   7.049  20.099  0.00  0.00    +0.000 C 
ATOM     22  C   UNL     1       2.304   7.607  19.022  0.00  0.00    +0.000 C 
ATOM     23  C   UNL     1       1.754   8.901  18.422  0.00  0.00    +0.000 C 
BRANCH  18  24
ATOM     24  N   UNL     1       1.017  11.186  18.896  0.00  0.00    +0.000 NA
ATOM     25  H   UNL     1       1.254  11.339  17.915  0.00  0.00    +0.000 HD
BRANCH  24  27
ATOM     26  C   UNL     1       1.613  13.814  18.607  0.00  0.00    +0.000 C 
ATOM     27  S   UNL     1       0.926  12.631  19.748  0.00  0.00    +0.000 S 
ATOM     28  O   UNL     1       1.774  12.564  20.911  0.00  0.00    +0.000 OA
ATOM     29  O   UNL     1      -0.484  12.907  19.866  0.00  0.00    +0.000 OA
ENDBRANCH  24  27
ENDBRANCH  18  24
ENDBRANCH  17  21
ENDBRANCH  16  17
ENDBRANCH   1  16
TORSDOF 6
ENDMDL
MODEL 8
REMARK VINA RESULT:      -7.8      5.049      6.780
REMARK  Name = 
REMARK  7 active torsions:
REMARK  status: ('A' for Active; 'I' for Inactive)
REMARK    1  A    between atoms: C_1  and  S_2
REMARK    2  A    between atoms: S_2  and  N_5
REMARK    3  A    between atoms: N_5  and  C_6
REMARK    4  A    between atoms: C_9  and  C_10
REMARK    5  A    between atoms: C_10  and  C_11
REMARK    6  A    between atoms: C_11  and  N_12
REMARK    7  A    between atoms: C_15  and  C_16
REMARK                            x       y       z     vdW  Elec       q    Type
REMARK                         _______ _______ _______ _____ _____    ______ ____
ROOT
ATOM      1  N   UNL     1       7.465   7.134  17.092  0.00  0.00    +0.000 NA
ATOM      2  C   UNL     1       7.603   6.174  18.196  0.00  0.00    +0.000 C 
ATOM      3  C   UNL     1       7.260   4.729  17.834  0.00  0.00    +0.000 C 
ATOM      4  C   UNL     1       5.880   4.601  17.181  0.00  0.00    +0.000 C 
ATOM      5  C   UNL     1       5.905   5.528  15.950  0.00  0.00    +0.000 C 
ATOM      6  C   UNL     1       6.223   6.975  16.324  0.00  0.00    +0.000 C 
ENDROOT
BRANCH   4   7
ATOM      7  C   UNL     1       4.652   4.784  18.073  0.00  0.00    +0.000 A 
ATOM      8  C   UNL     1       3.782   5.869  17.816  0.00  0.00    +0.000 A 
ATOM      9  C   UNL     1       2.617   6.092  18.576  0.00  0.00    +0.000 A 
ATOM     10  C   UNL     1       2.279   5.234  19.616  0.00  0.00    +0.000 A 
ATOM     11  C   UNL     1       3.115   4.166  19.853  0.00  0.00    +0.000 A 
ATOM     12  C   UNL     1       4.252   3.935  19.101  0.00  0.00    +0.000 A 
ATOM     13  O   UNL     1       4.863   2.785  19.505  0.00  0.00    +0.000 OA
ATOM     14  C   UNL     1       4.072   2.404  20.642  0.00  0.00    +0.000 C 
ATOM     15  O   UNL     1       2.911   3.228  20.820  0.00  0.00    +0.000 OA
ENDBRANCH   4   7
BRANCH   1  16
ATOM     16  C   UNL     1       7.535   8.516  17.615  0.00  0.00    +0.000 C 
BRANCH  16  17
ATOM     17  C   UNL     1       8.598   8.706  18.709  0.00  0.00    +0.000 C 
BRANCH  17  21
ATOM     18  C   UNL     1       9.117  12.993  19.242  0.00  0.00    +0.000 C 
ATOM     19  C   UNL     1       8.976  12.467  17.819  0.00  0.00    +0.000 C 
ATOM     20  C   UNL     1       8.440  11.048  17.800  0.00  0.00    +0.000 C 
ATOM     21  C   UNL     1       9.268  10.090  18.664  0.00  0.00    +0.000 C 
ATOM     22  C   UNL     1       9.467  10.641  20.082  0.00  0.00    +0.000 C 
ATOM     23  C   UNL     1      10.032  12.062  20.052  0.00  0.00    +0.000 C 
BRANCH  18  24
ATOM     24  N   UNL     1       9.681  14.351  19.262  0.00  0.00    +0.000 NA
ATOM     25  H   UNL     1      10.339  14.567  20.011  0.00  0.00    +0.000 HD
BRANCH  24  27
ATOM     26  C   UNL     1       9.322  16.943  19.968  0.00  0.00    +0.000 C 
ATOM     27  S   UNL     1       8.770  15.693  18.825  0.00  0.00    +0.000 S 
ATOM     28  O   UNL     1       7.373  15.432  19.065  0.00  0.00    +0.000 OA
ATOM     29  O   UNL     1       9.247  16.059  17.515  0.00  0.00    +0.000 OA
ENDBRANCH  24  27
ENDBRANCH  18  24
ENDBRANCH  17  21
ENDBRANCH  16  17
ENDBRANCH   1  16
TORSDOF 6
ENDMDL
MODEL 9
REMARK VINA RESULT:      -7.8      1.713      2.419
REMARK  Name = 
REMARK  7 active torsions:
REMARK  status: ('A' for Active; 'I' for Inactive)
REMARK    1  A    between atoms: C_1  and  S_2
REMARK    2  A    between atoms: S_2  and  N_5
REMARK    3  A    between atoms: N_5  and  C_6
REMARK    4  A    between atoms: C_9  and  C_10
REMARK    5  A    between atoms: C_10  and  C_11
REMARK    6  A    between atoms: C_11  and  N_12
REMARK    7  A    between atoms: C_15  and  C_16
REMARK                            x       y       z     vdW  Elec       q    Type
REMARK                         _______ _______ _______ _____ _____    ______ ____
ROOT
ATOM      1  N   UNL     1       1.909   4.004  19.443  0.00  0.00    +0.000 NA
ATOM      2  C   UNL     1       1.902   4.110  17.978  0.00  0.00    +0.000 C 
ATOM      3  C   UNL     1       2.896   3.194  17.264  0.00  0.00    +0.000 C 
ATOM      4  C   UNL     1       4.321   3.343  17.806  0.00  0.00    +0.000 C 
ATOM      5  C   UNL     1       4.233   3.055  19.318  0.00  0.00    +0.000 C 
ATOM      6  C   UNL     1       3.257   3.992  20.028  0.00  0.00    +0.000 C 
ENDROOT
BRANCH   4   7
ATOM      7  C   UNL     1       5.084   4.621  17.460  0.00  0.00    +0.000 A 
ATOM      8  C   UNL     1       4.636   5.405  16.371  0.00  0.00    +0.000 A 
ATOM      9  C   UNL     1       5.269   6.608  16.004  0.00  0.00    +0.000 A 
ATOM     10  C   UNL     1       6.368   7.073  16.716  0.00  0.00    +0.000 A 
ATOM     11  C   UNL     1       6.791   6.321  17.789  0.00  0.00    +0.000 A 
ATOM     12  C   UNL     1       6.165   5.146  18.163  0.00  0.00    +0.000 A 
ATOM     13  O   UNL     1       6.744   4.636  19.286  0.00  0.00    +0.000 OA
ATOM     14  C   UNL     1       7.849   5.531  19.493  0.00  0.00    +0.000 C 
ATOM     15  O   UNL     1       7.837   6.652  18.597  0.00  0.00    +0.000 OA
ENDBRANCH   4   7
BRANCH   1  16
ATOM     16  C   UNL     1       1.137   5.120  20.033  0.00  0.00    +0.000 C 
BRANCH  16  17
ATOM     17  C   UNL     1       1.986   6.062  20.902  0.00  0.00    +0.000 C 
BRANCH  17  21
ATOM     18  C   UNL     1       0.611   9.685  18.924  0.00  0.00    +0.000 C 
ATOM     19  C   UNL     1       1.772   8.929  18.291  0.00  0.00    +0.000 C 
ATOM     20  C   UNL     1       1.899   7.526  18.857  0.00  0.00    +0.000 C 
ATOM     21  C   UNL     1       1.997   7.511  20.387  0.00  0.00    +0.000 C 
ATOM     22  C   UNL     1       0.865   8.322  21.030  0.00  0.00    +0.000 C 
ATOM     23  C   UNL     1       0.792   9.734  20.448  0.00  0.00    +0.000 C 
BRANCH  18  24
ATOM     24  N   UNL     1       0.518  11.060  18.409  0.00  0.00    +0.000 NA
ATOM     25  H   UNL     1       1.342  11.652  18.522  0.00  0.00    +0.000 HD
BRANCH  24  27
ATOM     26  C   UNL     1      -1.991  11.084  17.386  0.00  0.00    +0.000 C 
ATOM     27  S   UNL     1      -0.905  11.945  18.506  0.00  0.00    +0.000 S 
ATOM     28  O   UNL     1      -0.685  13.278  18.003  0.00  0.00    +0.000 OA
ATOM     29  O   UNL     1      -1.394  11.723  19.844  0.00  0.00    +0.000 OA
ENDBRANCH  24  27
ENDBRANCH  18  24
ENDBRANCH  17  21
ENDBRANCH  16  17
ENDBRANCH   1  16
TORSDOF 6
ENDMDL
