MODEL 1
REMARK VINA RESULT:      -9.9      0.000      0.000
REMARK  Name = 
REMARK  5 active torsions:
REMARK  status: ('A' for Active; 'I' for Inactive)
REMARK    1  A    between atoms: S_2  and  N_4
REMARK    2  A    between atoms: S_2  and  C_21
REMARK    3  A    between atoms: N_4  and  C_5
REMARK    4  A    between atoms: C_8  and  C_9
REMARK    5  A    between atoms: C_25  and  C_26
REMARK                            x       y       z     vdW  Elec       q    Type
REMARK                         _______ _______ _______ _____ _____    ______ ____
ROOT
ATOM      1  C   UNL     1       4.543   5.314  17.447  0.00  0.00    +0.000 A 
ATOM      2  C   UNL     1       4.439   6.588  16.906  0.00  0.00    +0.000 A 
ATOM      3  C   UNL     1       3.552   7.505  17.472  0.00  0.00    +0.000 A 
ATOM      4  C   UNL     1       2.737   7.166  18.575  0.00  0.00    +0.000 A 
ATOM      5  C   UNL     1       2.863   5.838  19.117  0.00  0.00    +0.000 A 
ATOM      6  C   UNL     1       2.093   5.320  20.185  0.00  0.00    +0.000 A 
ATOM      7  C   UNL     1       2.333   4.061  20.724  0.00  0.00    +0.000 A 
ATOM      8  C   UNL     1       3.301   3.288  20.129  0.00  0.00    +0.000 A 
ATOM      9  N   UNL     1       4.006   3.681  19.051  0.00  0.00    +0.000 NA
ATOM     10  C   UNL     1       3.804   4.929  18.566  0.00  0.00    +0.000 A 
ENDROOT
BRANCH   4  11
ATOM     11  C   UNL     1       1.808   8.211  19.115  0.00  0.00    +0.000 A 
ATOM     12  C   UNL     1       1.236   9.187  18.273  0.00  0.00    +0.000 A 
ATOM     13  C   UNL     1       0.390  10.187  18.770  0.00  0.00    +0.000 A 
ATOM     14  C   UNL     1       0.051  10.208  20.118  0.00  0.00    +0.000 A 
ATOM     15  C   UNL     1       0.589   9.255  20.972  0.00  0.00    +0.000 A 
ATOM     16  C   UNL     1       1.488   8.303  20.483  0.00  0.00    +0.000 A 
ENDBRANCH   4  11
BRANCH   1  17
ATOM     17  N   UNL     1       5.446   4.371  16.817  0.00  0.00    +0.000 N 
ATOM     18  H   UNL     1       5.595   3.598  17.472  0.00  0.00    +0.000 HD
BRANCH  17  20
ATOM     19  O   UNL     1       6.952   6.407  16.650  0.00  0.00    +0.000 OA
ATOM     20  S   UNL     1       6.973   4.985  16.367  0.00  0.00    +0.000 S 
ATOM     21  O   UNL     1       8.028   4.140  16.881  0.00  0.00    +0.000 OA
BRANCH  20  22
ATOM     22  C   UNL     1       6.967   4.835  14.584  0.00  0.00    +0.000 A 
ATOM     23  C   UNL     1       8.019   5.386  13.847  0.00  0.00    +0.000 A 
ATOM     24  C   UNL     1       8.050   5.221  12.457  0.00  0.00    +0.000 A 
ATOM     25  C   UNL     1       7.042   4.501  11.816  0.00  0.00    +0.000 A 
ATOM     26  C   UNL     1       5.991   3.928  12.553  0.00  0.00    +0.000 A 
ATOM     27  C   UNL     1       5.967   4.092  13.948  0.00  0.00    +0.000 A 
BRANCH  26  28
ATOM     28  C   UNL     1       4.900   3.144  11.865  0.00  0.00    +0.000 C 
ATOM     29  F   UNL     1       3.777   2.995  12.625  0.00  0.00    +0.000 F 
ATOM     30  F   UNL     1       4.490   3.722  10.704  0.00  0.00    +0.000 F 
ATOM     31  F   UNL     1       5.295   1.881  11.541  0.00  0.00    +0.000 F 
ENDBRANCH  26  28
ENDBRANCH  20  22
ENDBRANCH  17  20
ENDBRANCH   1  17
TORSDOF 5
ENDMDL
MODEL 2
REMARK VINA RESULT:      -9.9      0.166      1.127
REMARK  Name = 
REMARK  5 active torsions:
REMARK  status: ('A' for Active; 'I' for Inactive)
REMARK    1  A    between atoms: S_2  and  N_4
REMARK    2  A    between atoms: S_2  and  C_21
REMARK    3  A    between atoms: N_4  and  C_5
REMARK    4  A    between atoms: C_8  and  C_9
REMARK    5  A    between atoms: C_25  and  C_26
REMARK                            x       y       z     vdW  Elec       q    Type
REMARK                         _______ _______ _______ _____ _____    ______ ____
ROOT
ATOM      1  C   UNL     1       4.450   5.358  17.476  0.00  0.00    +0.000 A 
ATOM      2  C   UNL     1       4.326   6.645  16.974  0.00  0.00    +0.000 A 
ATOM      3  C   UNL     1       3.466   7.548  17.601  0.00  0.00    +0.000 A 
ATOM      4  C   UNL     1       2.698   7.181  18.728  0.00  0.00    +0.000 A 
ATOM      5  C   UNL     1       2.844   5.839  19.230  0.00  0.00    +0.000 A 
ATOM      6  C   UNL     1       2.120   5.294  20.315  0.00  0.00    +0.000 A 
ATOM      7  C   UNL     1       2.379   4.021  20.810  0.00  0.00    +0.000 A 
ATOM      8  C   UNL     1       3.319   3.263  20.154  0.00  0.00    +0.000 A 
ATOM      9  N   UNL     1       3.979   3.683  19.058  0.00  0.00    +0.000 NA
ATOM     10  C   UNL     1       3.759   4.944  18.615  0.00  0.00    +0.000 A 
ENDROOT
BRANCH   4  11
ATOM     11  C   UNL     1       1.795   8.212  19.334  0.00  0.00    +0.000 A 
ATOM     12  C   UNL     1       1.474   8.189  20.707  0.00  0.00    +0.000 A 
ATOM     13  C   UNL     1       0.608   9.130  21.279  0.00  0.00    +0.000 A 
ATOM     14  C   UNL     1       0.076  10.152  20.502  0.00  0.00    +0.000 A 
ATOM     15  C   UNL     1       0.380  10.210  19.148  0.00  0.00    +0.000 A 
ATOM     16  C   UNL     1       1.189   9.227  18.569  0.00  0.00    +0.000 A 
ENDBRANCH   4  11
BRANCH   1  17
ATOM     17  N   UNL     1       5.324   4.431  16.783  0.00  0.00    +0.000 N 
ATOM     18  H   UNL     1       5.452   3.614  17.388  0.00  0.00    +0.000 HD
BRANCH  17  20
ATOM     19  O   UNL     1       6.850   6.453  16.630  0.00  0.00    +0.000 OA
ATOM     20  S   UNL     1       6.868   5.028  16.367  0.00  0.00    +0.000 S 
ATOM     21  O   UNL     1       7.901   4.183  16.922  0.00  0.00    +0.000 OA
BRANCH  20  22
ATOM     22  C   UNL     1       6.910   4.852  14.587  0.00  0.00    +0.000 A 
ATOM     23  C   UNL     1       7.985   5.385  13.871  0.00  0.00    +0.000 A 
ATOM     24  C   UNL     1       8.054   5.201  12.485  0.00  0.00    +0.000 A 
ATOM     25  C   UNL     1       7.057   4.479  11.827  0.00  0.00    +0.000 A 
ATOM     26  C   UNL     1       5.982   3.924  12.542  0.00  0.00    +0.000 A 
ATOM     27  C   UNL     1       5.922   4.108  13.935  0.00  0.00    +0.000 A 
BRANCH  26  28
ATOM     28  C   UNL     1       4.904   3.139  11.836  0.00  0.00    +0.000 C 
ATOM     29  F   UNL     1       5.298   1.887  11.467  0.00  0.00    +0.000 F 
ATOM     30  F   UNL     1       3.792   2.970  12.600  0.00  0.00    +0.000 F 
ATOM     31  F   UNL     1       4.488   3.746  10.690  0.00  0.00    +0.000 F 
ENDBRANCH  26  28
ENDBRANCH  20  22
ENDBRANCH  17  20
ENDBRANCH   1  17
TORSDOF 5
ENDMDL
MODEL 3
REMARK VINA RESULT:      -9.8      0.683      1.043
REMARK  Name = 
REMARK  5 active torsions:
REMARK  status: ('A' for Active; 'I' for Inactive)
REMARK    1  A    between atoms: S_2  and  N_4
REMARK    2  A    between atoms: S_2  and  C_21
REMARK    3  A    between atoms: N_4  and  C_5
REMARK    4  A    between atoms: C_8  and  C_9
REMARK    5  A    between atoms: C_25  and  C_26
REMARK                            x       y       z     vdW  Elec       q    Type
REMARK                         _______ _______ _______ _____ _____    ______ ____
ROOT
ATOM      1  C   UNL     1       3.815   5.765  17.531  0.00  0.00    +0.000 A 
ATOM      2  C   UNL     1       3.658   7.101  17.192  0.00  0.00    +0.000 A 
ATOM      3  C   UNL     1       2.917   7.938  18.026  0.00  0.00    +0.000 A 
ATOM      4  C   UNL     1       2.301   7.459  19.204  0.00  0.00    +0.000 A 
ATOM      5  C   UNL     1       2.478   6.068  19.532  0.00  0.00    +0.000 A 
ATOM      6  C   UNL     1       1.895   5.414  20.643  0.00  0.00    +0.000 A 
ATOM      7  C   UNL     1       2.185   4.091  20.956  0.00  0.00    +0.000 A 
ATOM      8  C   UNL     1       3.006   3.399  20.098  0.00  0.00    +0.000 A 
ATOM      9  N   UNL     1       3.520   3.930  18.972  0.00  0.00    +0.000 NA
ATOM     10  C   UNL     1       3.276   5.235  18.702  0.00  0.00    +0.000 A 
ENDROOT
BRANCH   4  11
ATOM     11  C   UNL     1       1.517   8.427  20.037  0.00  0.00    +0.000 A 
ATOM     12  C   UNL     1       0.843   9.518  19.452  0.00  0.00    +0.000 A 
ATOM     13  C   UNL     1       0.131  10.447  20.222  0.00  0.00    +0.000 A 
ATOM     14  C   UNL     1       0.033  10.282  21.599  0.00  0.00    +0.000 A 
ATOM     15  C   UNL     1       0.677   9.212  22.206  0.00  0.00    +0.000 A 
ATOM     16  C   UNL     1       1.444   8.328  21.439  0.00  0.00    +0.000 A 
ENDBRANCH   4  11
BRANCH   1  17
ATOM     17  N   UNL     1       4.561   4.910  16.627  0.00  0.00    +0.000 N 
ATOM     18  H   UNL     1       4.493   3.951  16.980  0.00  0.00    +0.000 HD
BRANCH  17  20
ATOM     19  O   UNL     1       6.335   6.723  16.594  0.00  0.00    +0.000 OA
ATOM     20  S   UNL     1       6.213   5.287  16.432  0.00  0.00    +0.000 S 
ATOM     21  O   UNL     1       7.032   4.380  17.205  0.00  0.00    +0.000 OA
BRANCH  20  22
ATOM     22  C   UNL     1       6.509   4.956  14.699  0.00  0.00    +0.000 A 
ATOM     23  C   UNL     1       7.721   5.349  14.124  0.00  0.00    +0.000 A 
ATOM     24  C   UNL     1       7.983   5.041  12.784  0.00  0.00    +0.000 A 
ATOM     25  C   UNL     1       7.042   4.336  12.033  0.00  0.00    +0.000 A 
ATOM     26  C   UNL     1       5.829   3.922  12.609  0.00  0.00    +0.000 A 
ATOM     27  C   UNL     1       5.573   4.229  13.957  0.00  0.00    +0.000 A 
BRANCH  26  28
ATOM     28  C   UNL     1       4.809   3.156  11.802  0.00  0.00    +0.000 C 
ATOM     29  F   UNL     1       4.448   3.783  10.647  0.00  0.00    +0.000 F 
ATOM     30  F   UNL     1       5.249   1.922  11.435  0.00  0.00    +0.000 F 
ATOM     31  F   UNL     1       3.650   2.955  12.489  0.00  0.00    +0.000 F 
ENDBRANCH  26  28
ENDBRANCH  20  22
ENDBRANCH  17  20
ENDBRANCH   1  17
TORSDOF 5
ENDMDL
MODEL 4
REMARK VINA RESULT:      -9.8      4.637      8.175
REMARK  Name = 
REMARK  5 active torsions:
REMARK  status: ('A' for Active; 'I' for Inactive)
REMARK    1  A    between atoms: S_2  and  N_4
REMARK    2  A    between atoms: S_2  and  C_21
REMARK    3  A    between atoms: N_4  and  C_5
REMARK    4  A    between atoms: C_8  and  C_9
REMARK    5  A    between atoms: C_25  and  C_26
REMARK                            x       y       z     vdW  Elec       q    Type
REMARK                         _______ _______ _______ _____ _____    ______ ____
ROOT
ATOM      1  C   UNL     1       4.469   3.761  18.589  0.00  0.00    +0.000 A 
ATOM      2  C   UNL     1       3.906   3.137  17.485  0.00  0.00    +0.000 A 
ATOM      3  C   UNL     1       4.490   3.303  16.229  0.00  0.00    +0.000 A 
ATOM      4  C   UNL     1       5.634   4.110  16.043  0.00  0.00    +0.000 A 
ATOM      5  C   UNL     1       6.198   4.749  17.203  0.00  0.00    +0.000 A 
ATOM      6  C   UNL     1       7.309   5.625  17.190  0.00  0.00    +0.000 A 
ATOM      7  C   UNL     1       7.863   6.131  18.359  0.00  0.00    +0.000 A 
ATOM      8  C   UNL     1       7.244   5.817  19.545  0.00  0.00    +0.000 A 
ATOM      9  N   UNL     1       6.129   5.066  19.624  0.00  0.00    +0.000 NA
ATOM     10  C   UNL     1       5.626   4.533  18.486  0.00  0.00    +0.000 A 
ENDROOT
BRANCH   4  11
ATOM     11  C   UNL     1       6.190   4.239  14.657  0.00  0.00    +0.000 A 
ATOM     12  C   UNL     1       5.653   3.503  13.581  0.00  0.00    +0.000 A 
ATOM     13  C   UNL     1       6.183   3.592  12.287  0.00  0.00    +0.000 A 
ATOM     14  C   UNL     1       7.236   4.460  12.022  0.00  0.00    +0.000 A 
ATOM     15  C   UNL     1       7.782   5.207  13.058  0.00  0.00    +0.000 A 
ATOM     16  C   UNL     1       7.294   5.061  14.361  0.00  0.00    +0.000 A 
ENDBRANCH   4  11
BRANCH   1  17
ATOM     17  N   UNL     1       3.821   3.599  19.876  0.00  0.00    +0.000 N 
ATOM     18  H   UNL     1       3.935   2.622  20.160  0.00  0.00    +0.000 HD
BRANCH  17  20
ATOM     19  O   UNL     1       1.554   3.358  18.762  0.00  0.00    +0.000 OA
ATOM     20  S   UNL     1       2.157   3.974  19.927  0.00  0.00    +0.000 S 
ATOM     21  O   UNL     1       1.628   3.736  21.252  0.00  0.00    +0.000 OA
BRANCH  20  22
ATOM     22  C   UNL     1       2.123   5.738  19.630  0.00  0.00    +0.000 A 
ATOM     23  C   UNL     1       2.469   6.225  18.366  0.00  0.00    +0.000 A 
ATOM     24  C   UNL     1       2.388   7.599  18.109  0.00  0.00    +0.000 A 
ATOM     25  C   UNL     1       1.955   8.472  19.108  0.00  0.00    +0.000 A 
ATOM     26  C   UNL     1       1.589   7.987  20.375  0.00  0.00    +0.000 A 
ATOM     27  C   UNL     1       1.666   6.606  20.626  0.00  0.00    +0.000 A 
BRANCH  26  28
ATOM     28  C   UNL     1       1.115   8.926  21.457  0.00  0.00    +0.000 C 
ATOM     29  F   UNL     1       1.018  10.223  21.047  0.00  0.00    +0.000 F 
ATOM     30  F   UNL     1      -0.113   8.595  21.940  0.00  0.00    +0.000 F 
ATOM     31  F   UNL     1       1.953   8.943  22.531  0.00  0.00    +0.000 F 
ENDBRANCH  26  28
ENDBRANCH  20  22
ENDBRANCH  17  20
ENDBRANCH   1  17
TORSDOF 5
ENDMDL
MODEL 5
REMARK VINA RESULT:      -9.6      3.984      4.712
REMARK  Name = 
REMARK  5 active torsions:
REMARK  status: ('A' for Active; 'I' for Inactive)
REMARK    1  A    between atoms: S_2  and  N_4
REMARK    2  A    between atoms: S_2  and  C_21
REMARK    3  A    between atoms: N_4  and  C_5
REMARK    4  A    between atoms: C_8  and  C_9
REMARK    5  A    between atoms: C_25  and  C_26
REMARK                            x       y       z     vdW  Elec       q    Type
REMARK                         _______ _______ _______ _____ _____    ______ ____
ROOT
ATOM      1  C   UNL     1       3.801   5.529  17.507  0.00  0.00    +0.000 A 
ATOM      2  C   UNL     1       3.693   6.863  17.141  0.00  0.00    +0.000 A 
ATOM      3  C   UNL     1       2.980   7.744  17.955  0.00  0.00    +0.000 A 
ATOM      4  C   UNL     1       2.343   7.311  19.139  0.00  0.00    +0.000 A 
ATOM      5  C   UNL     1       2.468   5.921  19.496  0.00  0.00    +0.000 A 
ATOM      6  C   UNL     1       1.857   5.312  20.617  0.00  0.00    +0.000 A 
ATOM      7  C   UNL     1       2.098   3.987  20.959  0.00  0.00    +0.000 A 
ATOM      8  C   UNL     1       2.896   3.248  20.119  0.00  0.00    +0.000 A 
ATOM      9  N   UNL     1       3.433   3.737  18.985  0.00  0.00    +0.000 NA
ATOM     10  C   UNL     1       3.238   5.043  18.687  0.00  0.00    +0.000 A 
ENDROOT
BRANCH   4  11
ATOM     11  C   UNL     1       1.592   8.324  19.948  0.00  0.00    +0.000 A 
ATOM     12  C   UNL     1       1.007   9.455  19.345  0.00  0.00    +0.000 A 
ATOM     13  C   UNL     1       0.327  10.425  20.094  0.00  0.00    +0.000 A 
ATOM     14  C   UNL     1       0.172  10.263  21.466  0.00  0.00    +0.000 A 
ATOM     15  C   UNL     1       0.728   9.155  22.091  0.00  0.00    +0.000 A 
ATOM     16  C   UNL     1       1.465   8.227  21.347  0.00  0.00    +0.000 A 
ENDBRANCH   4  11
BRANCH   1  17
ATOM     17  N   UNL     1       4.518   4.629  16.625  0.00  0.00    +0.000 N 
ATOM     18  H   UNL     1       4.826   3.827  17.182  0.00  0.00    +0.000 HD
BRANCH  17  20
ATOM     19  O   UNL     1       6.655   4.162  15.339  0.00  0.00    +0.000 OA
ATOM     20  S   UNL     1       5.884   5.283  15.839  0.00  0.00    +0.000 S 
ATOM     21  O   UNL     1       5.491   6.365  14.963  0.00  0.00    +0.000 OA
BRANCH  20  22
ATOM     22  C   UNL     1       6.837   5.981  17.183  0.00  0.00    +0.000 A 
ATOM     23  C   UNL     1       7.274   5.147  18.217  0.00  0.00    +0.000 A 
ATOM     24  C   UNL     1       8.069   5.675  19.241  0.00  0.00    +0.000 A 
ATOM     25  C   UNL     1       8.430   7.022  19.221  0.00  0.00    +0.000 A 
ATOM     26  C   UNL     1       8.010   7.862  18.175  0.00  0.00    +0.000 A 
ATOM     27  C   UNL     1       7.216   7.326  17.146  0.00  0.00    +0.000 A 
BRANCH  26  28
ATOM     28  C   UNL     1       8.401   9.319  18.146  0.00  0.00    +0.000 C 
ATOM     29  F   UNL     1       8.876   9.778  19.339  0.00  0.00    +0.000 F 
ATOM     30  F   UNL     1       9.373   9.584  17.232  0.00  0.00    +0.000 F 
ATOM     31  F   UNL     1       7.353  10.131  17.831  0.00  0.00    +0.000 F 
ENDBRANCH  26  28
ENDBRANCH  20  22
ENDBRANCH  17  20
ENDBRANCH   1  17
TORSDOF 5
ENDMDL
MODEL 6
REMARK VINA RESULT:      -9.6      4.067      4.874
REMARK  Name = 
REMARK  5 active torsions:
REMARK  status: ('A' for Active; 'I' for Inactive)
REMARK    1  A    between atoms: S_2  and  N_4
REMARK    2  A    between atoms: S_2  and  C_21
REMARK    3  A    between atoms: N_4  and  C_5
REMARK    4  A    between atoms: C_8  and  C_9
REMARK    5  A    between atoms: C_25  and  C_26
REMARK                            x       y       z     vdW  Elec       q    Type
REMARK                         _______ _______ _______ _____ _____    ______ ____
ROOT
ATOM      1  C   UNL     1       3.697   5.703  17.654  0.00  0.00    +0.000 A 
ATOM      2  C   UNL     1       3.571   7.041  17.309  0.00  0.00    +0.000 A 
ATOM      3  C   UNL     1       2.858   7.902  18.144  0.00  0.00    +0.000 A 
ATOM      4  C   UNL     1       2.240   7.444  19.329  0.00  0.00    +0.000 A 
ATOM      5  C   UNL     1       2.384   6.050  19.663  0.00  0.00    +0.000 A 
ATOM      6  C   UNL     1       1.792   5.417  20.782  0.00  0.00    +0.000 A 
ATOM      7  C   UNL     1       2.051   4.090  21.100  0.00  0.00    +0.000 A 
ATOM      8  C   UNL     1       2.847   3.372  20.240  0.00  0.00    +0.000 A 
ATOM      9  N   UNL     1       3.366   3.884  19.107  0.00  0.00    +0.000 NA
ATOM     10  C   UNL     1       3.153   5.193  18.832  0.00  0.00    +0.000 A 
ENDROOT
BRANCH   4  11
ATOM     11  C   UNL     1       1.487   8.436  20.163  0.00  0.00    +0.000 A 
ATOM     12  C   UNL     1       1.425   8.315  21.566  0.00  0.00    +0.000 A 
ATOM     13  C   UNL     1       0.701   9.220  22.354  0.00  0.00    +0.000 A 
ATOM     14  C   UNL     1       0.059  10.301  21.764  0.00  0.00    +0.000 A 
ATOM     15  C   UNL     1       0.108  10.455  20.384  0.00  0.00    +0.000 A 
ATOM     16  C   UNL     1       0.774   9.510  19.597  0.00  0.00    +0.000 A 
ENDBRANCH   4  11
BRANCH   1  17
ATOM     17  N   UNL     1       4.414   4.825  16.749  0.00  0.00    +0.000 N 
ATOM     18  H   UNL     1       4.774   4.039  17.299  0.00  0.00    +0.000 HD
BRANCH  17  20
ATOM     19  O   UNL     1       6.465   4.433  15.307  0.00  0.00    +0.000 OA
ATOM     20  S   UNL     1       5.722   5.525  15.907  0.00  0.00    +0.000 S 
ATOM     21  O   UNL     1       5.268   6.642  15.109  0.00  0.00    +0.000 OA
BRANCH  20  22
ATOM     22  C   UNL     1       6.757   6.168  17.217  0.00  0.00    +0.000 A 
ATOM     23  C   UNL     1       7.219   5.303  18.212  0.00  0.00    +0.000 A 
ATOM     24  C   UNL     1       8.077   5.787  19.207  0.00  0.00    +0.000 A 
ATOM     25  C   UNL     1       8.474   7.124  19.195  0.00  0.00    +0.000 A 
ATOM     26  C   UNL     1       8.029   7.997  18.187  0.00  0.00    +0.000 A 
ATOM     27  C   UNL     1       7.173   7.503  17.187  0.00  0.00    +0.000 A 
BRANCH  26  28
ATOM     28  C   UNL     1       8.460   9.443  18.167  0.00  0.00    +0.000 C 
ATOM     29  F   UNL     1       9.527   9.680  17.353  0.00  0.00    +0.000 F 
ATOM     30  F   UNL     1       7.474  10.278  17.743  0.00  0.00    +0.000 F 
ATOM     31  F   UNL     1       8.832   9.889  19.399  0.00  0.00    +0.000 F 
ENDBRANCH  26  28
ENDBRANCH  20  22
ENDBRANCH  17  20
ENDBRANCH   1  17
TORSDOF 5
ENDMDL
MODEL 7
REMARK VINA RESULT:      -9.1      1.136      1.599
REMARK  Name = 
REMARK  5 active torsions:
REMARK  status: ('A' for Active; 'I' for Inactive)
REMARK    1  A    between atoms: S_2  and  N_4
REMARK    2  A    between atoms: S_2  and  C_21
REMARK    3  A    between atoms: N_4  and  C_5
REMARK    4  A    between atoms: C_8  and  C_9
REMARK    5  A    between atoms: C_25  and  C_26
REMARK                            x       y       z     vdW  Elec       q    Type
REMARK                         _______ _______ _______ _____ _____    ______ ____
ROOT
ATOM      1  C   UNL     1       3.596   5.710  17.718  0.00  0.00    +0.000 A 
ATOM      2  C   UNL     1       3.317   7.061  17.576  0.00  0.00    +0.000 A 
ATOM      3  C   UNL     1       2.613   7.727  18.580  0.00  0.00    +0.000 A 
ATOM      4  C   UNL     1       2.155   7.057  19.736  0.00  0.00    +0.000 A 
ATOM      5  C   UNL     1       2.455   5.654  19.859  0.00  0.00    +0.000 A 
ATOM      6  C   UNL     1       2.034   4.823  20.923  0.00  0.00    +0.000 A 
ATOM      7  C   UNL     1       2.441   3.498  21.030  0.00  0.00    +0.000 A 
ATOM      8  C   UNL     1       3.212   2.985  20.014  0.00  0.00    +0.000 A 
ATOM      9  N   UNL     1       3.572   3.692  18.925  0.00  0.00    +0.000 NA
ATOM     10  C   UNL     1       3.216   4.997  18.855  0.00  0.00    +0.000 A 
ENDROOT
BRANCH   4  11
ATOM     11  C   UNL     1       1.400   7.849  20.760  0.00  0.00    +0.000 A 
ATOM     12  C   UNL     1       2.065   8.712  21.654  0.00  0.00    +0.000 A 
ATOM     13  C   UNL     1       1.374   9.435  22.635  0.00  0.00    +0.000 A 
ATOM     14  C   UNL     1      -0.011   9.353  22.717  0.00  0.00    +0.000 A 
ATOM     15  C   UNL     1      -0.698   8.520  21.844  0.00  0.00    +0.000 A 
ATOM     16  C   UNL     1       0.004   7.748  20.913  0.00  0.00    +0.000 A 
ENDBRANCH   4  11
BRANCH   1  17
ATOM     17  N   UNL     1       4.298   5.036  16.643  0.00  0.00    +0.000 N 
ATOM     18  H   UNL     1       4.169   4.028  16.772  0.00  0.00    +0.000 HD
BRANCH  17  20
ATOM     19  O   UNL     1       6.143   6.778  16.679  0.00  0.00    +0.000 OA
ATOM     20  S   UNL     1       5.973   5.346  16.534  0.00  0.00    +0.000 S 
ATOM     21  O   UNL     1       6.711   4.422  17.366  0.00  0.00    +0.000 OA
BRANCH  20  22
ATOM     22  C   UNL     1       6.349   4.972  14.826  0.00  0.00    +0.000 A 
ATOM     23  C   UNL     1       7.605   5.309  14.312  0.00  0.00    +0.000 A 
ATOM     24  C   UNL     1       7.927   4.967  12.993  0.00  0.00    +0.000 A 
ATOM     25  C   UNL     1       7.002   4.283  12.203  0.00  0.00    +0.000 A 
ATOM     26  C   UNL     1       5.744   3.925  12.719  0.00  0.00    +0.000 A 
ATOM     27  C   UNL     1       5.428   4.266  14.045  0.00  0.00    +0.000 A 
BRANCH  26  28
ATOM     28  C   UNL     1       4.742   3.182  11.870  0.00  0.00    +0.000 C 
ATOM     29  F   UNL     1       5.177   1.955  11.464  0.00  0.00    +0.000 F 
ATOM     30  F   UNL     1       3.565   2.964  12.517  0.00  0.00    +0.000 F 
ATOM     31  F   UNL     1       4.428   3.856  10.729  0.00  0.00    +0.000 F 
ENDBRANCH  26  28
ENDBRANCH  20  22
ENDBRANCH  17  20
ENDBRANCH   1  17
TORSDOF 5
ENDMDL
MODEL 8
REMARK VINA RESULT:      -8.9      3.577      7.622
REMARK  Name = 
REMARK  5 active torsions:
REMARK  status: ('A' for Active; 'I' for Inactive)
REMARK    1  A    between atoms: S_2  and  N_4
REMARK    2  A    between atoms: S_2  and  C_21
REMARK    3  A    between atoms: N_4  and  C_5
REMARK    4  A    between atoms: C_8  and  C_9
REMARK    5  A    between atoms: C_25  and  C_26
REMARK                            x       y       z     vdW  Elec       q    Type
REMARK                         _______ _______ _______ _____ _____    ______ ____
ROOT
ATOM      1  C   UNL     1       4.520   3.667  18.537  0.00  0.00    +0.000 A 
ATOM      2  C   UNL     1       3.987   3.042  17.419  0.00  0.00    +0.000 A 
ATOM      3  C   UNL     1       4.576   3.247  16.171  0.00  0.00    +0.000 A 
ATOM      4  C   UNL     1       5.694   4.093  16.007  0.00  0.00    +0.000 A 
ATOM      5  C   UNL     1       6.228   4.732  17.183  0.00  0.00    +0.000 A 
ATOM      6  C   UNL     1       7.309   5.644  17.192  0.00  0.00    +0.000 A 
ATOM      7  C   UNL     1       7.837   6.150  18.374  0.00  0.00    +0.000 A 
ATOM      8  C   UNL     1       7.218   5.797  19.550  0.00  0.00    +0.000 A 
ATOM      9  N   UNL     1       6.127   5.009  19.607  0.00  0.00    +0.000 NA
ATOM     10  C   UNL     1       5.652   4.478  18.456  0.00  0.00    +0.000 A 
ENDROOT
BRANCH   4  11
ATOM     11  C   UNL     1       6.258   4.262  14.629  0.00  0.00    +0.000 A 
ATOM     12  C   UNL     1       5.735   3.547  13.532  0.00  0.00    +0.000 A 
ATOM     13  C   UNL     1       6.272   3.673  12.244  0.00  0.00    +0.000 A 
ATOM     14  C   UNL     1       7.318   4.558  12.007  0.00  0.00    +0.000 A 
ATOM     15  C   UNL     1       7.850   5.285  13.064  0.00  0.00    +0.000 A 
ATOM     16  C   UNL     1       7.355   5.102  14.360  0.00  0.00    +0.000 A 
ENDBRANCH   4  11
BRANCH   1  17
ATOM     17  N   UNL     1       3.866   3.464  19.815  0.00  0.00    +0.000 N 
ATOM     18  H   UNL     1       4.088   2.515  20.130  0.00  0.00    +0.000 HD
BRANCH  17  20
ATOM     19  O   UNL     1       1.701   3.249  18.510  0.00  0.00    +0.000 OA
ATOM     20  S   UNL     1       2.169   3.642  19.824  0.00  0.00    +0.000 S 
ATOM     21  O   UNL     1       1.607   3.054  21.020  0.00  0.00    +0.000 OA
BRANCH  20  22
ATOM     22  C   UNL     1       1.942   5.414  19.922  0.00  0.00    +0.000 A 
ATOM     23  C   UNL     1       1.537   5.987  21.131  0.00  0.00    +0.000 A 
ATOM     24  C   UNL     1       1.415   7.378  21.231  0.00  0.00    +0.000 A 
ATOM     25  C   UNL     1       1.706   8.185  20.131  0.00  0.00    +0.000 A 
ATOM     26  C   UNL     1       2.131   7.618  18.918  0.00  0.00    +0.000 A 
ATOM     27  C   UNL     1       2.259   6.221  18.825  0.00  0.00    +0.000 A 
BRANCH  26  28
ATOM     28  C   UNL     1       2.452   8.487  17.726  0.00  0.00    +0.000 C 
ATOM     29  F   UNL     1       3.306   7.899  16.840  0.00  0.00    +0.000 F 
ATOM     30  F   UNL     1       1.346   8.825  17.010  0.00  0.00    +0.000 F 
ATOM     31  F   UNL     1       3.045   9.660  18.085  0.00  0.00    +0.000 F 
ENDBRANCH  26  28
ENDBRANCH  20  22
ENDBRANCH  17  20
ENDBRANCH   1  17
TORSDOF 5
ENDMDL
MODEL 9
REMARK VINA RESULT:      -8.8      6.136      9.302
REMARK  Name = 
REMARK  5 active torsions:
REMARK  status: ('A' for Active; 'I' for Inactive)
REMARK    1  A    between atoms: S_2  and  N_4
REMARK    2  A    between atoms: S_2  and  C_21
REMARK    3  A    between atoms: N_4  and  C_5
REMARK    4  A    between atoms: C_8  and  C_9
REMARK    5  A    between atoms: C_25  and  C_26
REMARK                            x       y       z     vdW  Elec       q    Type
REMARK                         _______ _______ _______ _____ _____    ______ ____
ROOT
ATOM      1  C   UNL     1      -1.050  11.751  21.561  0.00  0.00    +0.000 A 
ATOM      2  C   UNL     1      -1.187  12.149  22.883  0.00  0.00    +0.000 A 
ATOM      3  C   UNL     1      -2.385  12.727  23.306  0.00  0.00    +0.000 A 
ATOM      4  C   UNL     1      -3.462  12.939  22.417  0.00  0.00    +0.000 A 
ATOM      5  C   UNL     1      -3.293  12.519  21.050  0.00  0.00    +0.000 A 
ATOM      6  C   UNL     1      -4.248  12.699  20.021  0.00  0.00    +0.000 A 
ATOM      7  C   UNL     1      -4.061  12.183  18.744  0.00  0.00    +0.000 A 
ATOM      8  C   UNL     1      -2.869  11.552  18.480  0.00  0.00    +0.000 A 
ATOM      9  N   UNL     1      -1.878  11.429  19.384  0.00  0.00    +0.000 NA
ATOM     10  C   UNL     1      -2.089  11.887  20.641  0.00  0.00    +0.000 A 
ENDROOT
BRANCH   4  11
ATOM     11  C   UNL     1      -4.709  13.573  22.955  0.00  0.00    +0.000 A 
ATOM     12  C   UNL     1      -4.877  14.973  22.955  0.00  0.00    +0.000 A 
ATOM     13  C   UNL     1      -6.025  15.579  23.482  0.00  0.00    +0.000 A 
ATOM     14  C   UNL     1      -7.061  14.798  23.980  0.00  0.00    +0.000 A 
ATOM     15  C   UNL     1      -6.931  13.415  23.986  0.00  0.00    +0.000 A 
ATOM     16  C   UNL     1      -5.754  12.819  23.523  0.00  0.00    +0.000 A 
ENDBRANCH   4  11
BRANCH   1  17
ATOM     17  N   UNL     1       0.218  11.186  21.142  0.00  0.00    +0.000 N 
ATOM     18  H   UNL     1       0.232  11.182  20.117  0.00  0.00    +0.000 HD
BRANCH  17  20
ATOM     19  O   UNL     1       1.620   9.704  22.651  0.00  0.00    +0.000 OA
ATOM     20  S   UNL     1       0.546   9.601  21.682  0.00  0.00    +0.000 S 
ATOM     21  O   UNL     1      -0.685   8.915  22.007  0.00  0.00    +0.000 OA
BRANCH  20  22
ATOM     22  C   UNL     1       1.253   8.813  20.240  0.00  0.00    +0.000 A 
ATOM     23  C   UNL     1       1.216   9.476  19.010  0.00  0.00    +0.000 A 
ATOM     24  C   UNL     1       1.819   8.891  17.890  0.00  0.00    +0.000 A 
ATOM     25  C   UNL     1       2.461   7.658  18.008  0.00  0.00    +0.000 A 
ATOM     26  C   UNL     1       2.518   6.993  19.245  0.00  0.00    +0.000 A 
ATOM     27  C   UNL     1       1.916   7.588  20.367  0.00  0.00    +0.000 A 
BRANCH  26  28
ATOM     28  C   UNL     1       3.214   5.661  19.378  0.00  0.00    +0.000 C 
ATOM     29  F   UNL     1       2.844   4.757  18.427  0.00  0.00    +0.000 F 
ATOM     30  F   UNL     1       4.568   5.765  19.287  0.00  0.00    +0.000 F 
ATOM     31  F   UNL     1       2.960   5.061  20.574  0.00  0.00    +0.000 F 
ENDBRANCH  26  28
ENDBRANCH  20  22
ENDBRANCH  17  20
ENDBRANCH   1  17
TORSDOF 5
ENDMDL
