MODEL 1
REMARK VINA RESULT:      -8.7      0.000      0.000
REMARK  Name = 
REMARK  6 active torsions:
REMARK  status: ('A' for Active; 'I' for Inactive)
REMARK    1  A    between atoms: C_2  and  C_3
REMARK    2  A    between atoms: N_7  and  C_8
REMARK    3  A    between atoms: C_16  and  N_17
REMARK    4  A    between atoms: N_17  and  C_18
REMARK    5  A    between atoms: C_18  and  C_19
REMARK    6  A    between atoms: C_25  and  N_26
REMARK                            x       y       z     vdW  Elec       q    Type
REMARK                         _______ _______ _______ _____ _____    ______ ____
ROOT
ATOM      1  C   UNL     1       1.435   8.659  19.654  0.00  0.00    +0.000 A 
ATOM      2  C   UNL     1       1.589   9.436  18.521  0.00  0.00    +0.000 A 
ATOM      3  N   UNL     1       2.363   9.097  17.470  0.00  0.00    +0.000 NA
ATOM      4  C   UNL     1       3.038   7.950  17.582  0.00  0.00    +0.000 A 
ATOM      5  N   UNL     1       3.857   7.583  16.518  0.00  0.00    +0.000 N 
ATOM      6  N   UNL     1       2.943   7.142  18.655  0.00  0.00    +0.000 NA
ATOM      7  C   UNL     1       2.158   7.485  19.693  0.00  0.00    +0.000 A 
ATOM      8  H   UNL     1       3.783   8.234  15.749  0.00  0.00    +0.000 HD
ENDROOT
BRANCH   5   9
ATOM      9  C   UNL     1       4.982   6.748  16.536  0.00  0.00    +0.000 A 
ATOM     10  C   UNL     1       5.258   5.926  15.436  0.00  0.00    +0.000 A 
ATOM     11  C   UNL     1       6.311   5.008  15.475  0.00  0.00    +0.000 A 
ATOM     12  C   UNL     1       7.112   4.908  16.611  0.00  0.00    +0.000 A 
ATOM     13  C   UNL     1       6.864   5.738  17.699  0.00  0.00    +0.000 A 
ATOM     14 BR   UNL     1       7.952   5.630  19.240  0.00  0.00    +0.000 Br
ATOM     15  C   UNL     1       5.810   6.646  17.665  0.00  0.00    +0.000 A 
ENDBRANCH   5   9
BRANCH   1  17
ATOM     16  N   UNL     1      -0.091   9.438  21.585  0.00  0.00    +0.000 NA
ATOM     17  C   UNL     1       0.612   9.109  20.719  0.00  0.00    +0.000 C 
ENDBRANCH   1  17
BRANCH   7  18
ATOM     18  N   UNL     1       2.121   6.637  20.829  0.00  0.00    +0.000 N 
ATOM     19  H   UNL     1       1.875   7.182  21.654  0.00  0.00    +0.000 HD
BRANCH  18  20
ATOM     20  C   UNL     1       1.258   5.464  20.660  0.00  0.00    +0.000 C 
BRANCH  20  21
ATOM     21  C   UNL     1       1.931   4.281  19.918  0.00  0.00    +0.000 C 
ATOM     22  C   UNL     1       1.514   4.420  18.425  0.00  0.00    +0.000 C 
ATOM     23  C   UNL     1       2.181   3.352  17.555  0.00  0.00    +0.000 C 
ATOM     24  C   UNL     1       3.703   3.509  17.679  0.00  0.00    +0.000 C 
ATOM     25  C   UNL     1       4.143   3.277  19.138  0.00  0.00    +0.000 C 
ATOM     26  C   UNL     1       3.478   4.353  20.022  0.00  0.00    +0.000 C 
ATOM     27  C   UNL     1       3.702   1.882  19.638  0.00  0.00    +0.000 C 
ATOM     28  C   UNL     1       2.161   1.770  19.513  0.00  0.00    +0.000 C 
ATOM     29  C   UNL     1       1.731   1.971  18.046  0.00  0.00    +0.000 C 
ATOM     30  C   UNL     1       1.495   2.870  20.392  0.00  0.00    +0.000 C 
BRANCH  27  31
ATOM     31  N   UNL     1       4.411   0.817  18.920  0.00  0.00    +0.000 NA
ATOM     32  H   UNL     1       5.368   0.723  19.255  0.00  0.00    +0.000 HD
ATOM     33  H   UNL     1       4.481   1.049  17.931  0.00  0.00    +0.000 HD
ENDBRANCH  27  31
ENDBRANCH  20  21
ENDBRANCH  18  20
ENDBRANCH   7  18
TORSDOF 6
ENDMDL
MODEL 2
REMARK VINA RESULT:      -8.5      1.142      1.451
REMARK  Name = 
REMARK  6 active torsions:
REMARK  status: ('A' for Active; 'I' for Inactive)
REMARK    1  A    between atoms: C_2  and  C_3
REMARK    2  A    between atoms: N_7  and  C_8
REMARK    3  A    between atoms: C_16  and  N_17
REMARK    4  A    between atoms: N_17  and  C_18
REMARK    5  A    between atoms: C_18  and  C_19
REMARK    6  A    between atoms: C_25  and  N_26
REMARK                            x       y       z     vdW  Elec       q    Type
REMARK                         _______ _______ _______ _____ _____    ______ ____
ROOT
ATOM      1  C   UNL     1       1.289   8.948  19.744  0.00  0.00    +0.000 A 
ATOM      2  C   UNL     1       1.495   9.735  18.626  0.00  0.00    +0.000 A 
ATOM      3  N   UNL     1       2.265   9.374  17.579  0.00  0.00    +0.000 NA
ATOM      4  C   UNL     1       2.880   8.193  17.679  0.00  0.00    +0.000 A 
ATOM      5  N   UNL     1       3.693   7.802  16.619  0.00  0.00    +0.000 N 
ATOM      6  N   UNL     1       2.731   7.373  18.738  0.00  0.00    +0.000 NA
ATOM      7  C   UNL     1       1.951   7.739  19.772  0.00  0.00    +0.000 A 
ATOM      8  H   UNL     1       3.661   8.468  15.860  0.00  0.00    +0.000 HD
ENDROOT
BRANCH   5   9
ATOM      9  C   UNL     1       4.775   6.913  16.636  0.00  0.00    +0.000 A 
ATOM     10  C   UNL     1       5.706   6.968  17.683  0.00  0.00    +0.000 A 
ATOM     11  C   UNL     1       6.850   6.166  17.665  0.00  0.00    +0.000 A 
ATOM     12  C   UNL     1       7.074   5.287  16.608  0.00  0.00    +0.000 A 
ATOM     13  C   UNL     1       6.144   5.204  15.577  0.00  0.00    +0.000 A 
ATOM     14 BR   UNL     1       6.420   4.003  14.145  0.00  0.00    +0.000 Br
ATOM     15  C   UNL     1       5.008   6.009  15.589  0.00  0.00    +0.000 A 
ENDBRANCH   5   9
BRANCH   1  17
ATOM     16  N   UNL     1      -0.152   9.800  21.708  0.00  0.00    +0.000 NA
ATOM     17  C   UNL     1       0.476   9.422  20.807  0.00  0.00    +0.000 C 
ENDBRANCH   1  17
BRANCH   7  18
ATOM     18  N   UNL     1       1.858   6.876  20.893  0.00  0.00    +0.000 N 
ATOM     19  H   UNL     1       1.499   7.393  21.693  0.00  0.00    +0.000 HD
BRANCH  18  20
ATOM     20  C   UNL     1       1.093   5.653  20.632  0.00  0.00    +0.000 C 
BRANCH  20  21
ATOM     21  C   UNL     1       1.948   4.463  20.127  0.00  0.00    +0.000 C 
ATOM     22  C   UNL     1       1.490   4.197  18.663  0.00  0.00    +0.000 C 
ATOM     23  C   UNL     1       2.317   3.089  18.009  0.00  0.00    +0.000 C 
ATOM     24  C   UNL     1       3.792   3.518  18.016  0.00  0.00    +0.000 C 
ATOM     25  C   UNL     1       4.287   3.690  19.466  0.00  0.00    +0.000 C 
ATOM     26  C   UNL     1       3.460   4.811  20.131  0.00  0.00    +0.000 C 
ATOM     27  C   UNL     1       4.101   2.387  20.277  0.00  0.00    +0.000 C 
ATOM     28  C   UNL     1       2.601   1.998  20.261  0.00  0.00    +0.000 C 
ATOM     29  C   UNL     1       2.120   1.795  18.810  0.00  0.00    +0.000 C 
ATOM     30  C   UNL     1       1.769   3.140  20.917  0.00  0.00    +0.000 C 
BRANCH  27  31
ATOM     31  N   UNL     1       4.972   1.322  19.769  0.00  0.00    +0.000 NA
ATOM     32  H   UNL     1       4.531   0.822  18.999  0.00  0.00    +0.000 HD
ATOM     33  H   UNL     1       5.137   0.628  20.496  0.00  0.00    +0.000 HD
ENDBRANCH  27  31
ENDBRANCH  20  21
ENDBRANCH  18  20
ENDBRANCH   7  18
TORSDOF 6
ENDMDL
MODEL 3
REMARK VINA RESULT:      -8.3      0.582      1.582
REMARK  Name = 
REMARK  6 active torsions:
REMARK  status: ('A' for Active; 'I' for Inactive)
REMARK    1  A    between atoms: C_2  and  C_3
REMARK    2  A    between atoms: N_7  and  C_8
REMARK    3  A    between atoms: C_16  and  N_17
REMARK    4  A    between atoms: N_17  and  C_18
REMARK    5  A    between atoms: C_18  and  C_19
REMARK    6  A    between atoms: C_25  and  N_26
REMARK                            x       y       z     vdW  Elec       q    Type
REMARK                         _______ _______ _______ _____ _____    ______ ____
ROOT
ATOM      1  C   UNL     1       1.375   8.945  19.582  0.00  0.00    +0.000 A 
ATOM      2  C   UNL     1       1.572   9.630  18.397  0.00  0.00    +0.000 A 
ATOM      3  N   UNL     1       2.340   9.181  17.383  0.00  0.00    +0.000 NA
ATOM      4  C   UNL     1       2.965   8.018  17.586  0.00  0.00    +0.000 A 
ATOM      5  N   UNL     1       3.777   7.540  16.562  0.00  0.00    +0.000 N 
ATOM      6  N   UNL     1       2.826   7.296  18.715  0.00  0.00    +0.000 NA
ATOM      7  C   UNL     1       2.047   7.748  19.716  0.00  0.00    +0.000 A 
ATOM      8  H   UNL     1       3.737   8.134  15.746  0.00  0.00    +0.000 HD
ENDROOT
BRANCH   5   9
ATOM      9  C   UNL     1       4.865   6.663  16.655  0.00  0.00    +0.000 A 
ATOM     10  C   UNL     1       5.062   5.689  15.667  0.00  0.00    +0.000 A 
ATOM     11  C   UNL     1       6.076   4.736  15.795  0.00  0.00    +0.000 A 
ATOM     12  C   UNL     1       6.916   4.749  16.906  0.00  0.00    +0.000 A 
ATOM     13  C   UNL     1       6.747   5.727  17.880  0.00  0.00    +0.000 A 
ATOM     14 BR   UNL     1       7.889   5.774  19.385  0.00  0.00    +0.000 Br
ATOM     15  C   UNL     1       5.732   6.672  17.759  0.00  0.00    +0.000 A 
ENDBRANCH   5   9
BRANCH   1  17
ATOM     16  N   UNL     1      -0.132   9.985  21.400  0.00  0.00    +0.000 NA
ATOM     17  C   UNL     1       0.563   9.507  20.601  0.00  0.00    +0.000 C 
ENDBRANCH   1  17
BRANCH   7  18
ATOM     18  N   UNL     1       1.965   6.989  20.911  0.00  0.00    +0.000 N 
ATOM     19  H   UNL     1       1.635   7.582  21.670  0.00  0.00    +0.000 HD
BRANCH  18  20
ATOM     20  C   UNL     1       1.169   5.764  20.776  0.00  0.00    +0.000 C 
BRANCH  20  21
ATOM     21  C   UNL     1       1.940   4.570  20.157  0.00  0.00    +0.000 C 
ATOM     22  C   UNL     1       1.639   3.346  21.071  0.00  0.00    +0.000 C 
ATOM     23  C   UNL     1       2.279   2.069  20.526  0.00  0.00    +0.000 C 
ATOM     24  C   UNL     1       1.718   1.809  19.120  0.00  0.00    +0.000 C 
ATOM     25  C   UNL     1       2.092   2.970  18.177  0.00  0.00    +0.000 C 
ATOM     26  C   UNL     1       1.447   4.263  18.718  0.00  0.00    +0.000 C 
ATOM     27  C   UNL     1       3.625   3.167  18.118  0.00  0.00    +0.000 C 
ATOM     28  C   UNL     1       4.149   3.443  19.550  0.00  0.00    +0.000 C 
ATOM     29  C   UNL     1       3.799   2.264  20.480  0.00  0.00    +0.000 C 
ATOM     30  C   UNL     1       3.480   4.738  20.099  0.00  0.00    +0.000 C 
BRANCH  27  31
ATOM     31  N   UNL     1       4.279   2.018  17.482  0.00  0.00    +0.000 NA
ATOM     32  H   UNL     1       3.597   1.398  17.052  0.00  0.00    +0.000 HD
ATOM     33  H   UNL     1       4.764   1.460  18.184  0.00  0.00    +0.000 HD
ENDBRANCH  27  31
ENDBRANCH  20  21
ENDBRANCH  18  20
ENDBRANCH   7  18
TORSDOF 6
ENDMDL
MODEL 4
REMARK VINA RESULT:      -8.0      1.178      2.060
REMARK  Name = 
REMARK  6 active torsions:
REMARK  status: ('A' for Active; 'I' for Inactive)
REMARK    1  A    between atoms: C_2  and  C_3
REMARK    2  A    between atoms: N_7  and  C_8
REMARK    3  A    between atoms: C_16  and  N_17
REMARK    4  A    between atoms: N_17  and  C_18
REMARK    5  A    between atoms: C_18  and  C_19
REMARK    6  A    between atoms: C_25  and  N_26
REMARK                            x       y       z     vdW  Elec       q    Type
REMARK                         _______ _______ _______ _____ _____    ______ ____
ROOT
ATOM      1  C   UNL     1       1.256   8.964  19.819  0.00  0.00    +0.000 A 
ATOM      2  C   UNL     1       1.451   9.751  18.699  0.00  0.00    +0.000 A 
ATOM      3  N   UNL     1       2.218   9.394  17.649  0.00  0.00    +0.000 NA
ATOM      4  C   UNL     1       2.843   8.218  17.748  0.00  0.00    +0.000 A 
ATOM      5  N   UNL     1       3.653   7.832  16.684  0.00  0.00    +0.000 N 
ATOM      6  N   UNL     1       2.705   7.399  18.809  0.00  0.00    +0.000 NA
ATOM      7  C   UNL     1       1.928   7.760  19.846  0.00  0.00    +0.000 A 
ATOM      8  H   UNL     1       3.613   8.496  15.924  0.00  0.00    +0.000 HD
ENDROOT
BRANCH   5   9
ATOM      9  C   UNL     1       4.742   6.950  16.698  0.00  0.00    +0.000 A 
ATOM     10  C   UNL     1       5.675   7.010  17.743  0.00  0.00    +0.000 A 
ATOM     11  C   UNL     1       6.824   6.217  17.722  0.00  0.00    +0.000 A 
ATOM     12  C   UNL     1       7.054   5.343  16.662  0.00  0.00    +0.000 A 
ATOM     13  C   UNL     1       6.123   5.256  15.632  0.00  0.00    +0.000 A 
ATOM     14 BR   UNL     1       6.407   4.061  14.196  0.00  0.00    +0.000 Br
ATOM     15  C   UNL     1       4.981   6.052  15.647  0.00  0.00    +0.000 A 
ENDBRANCH   5   9
BRANCH   1  17
ATOM     16  N   UNL     1      -0.215   9.773  21.780  0.00  0.00    +0.000 NA
ATOM     17  C   UNL     1       0.445   9.434  20.885  0.00  0.00    +0.000 C 
ENDBRANCH   1  17
BRANCH   7  18
ATOM     18  N   UNL     1       1.847   6.898  20.969  0.00  0.00    +0.000 N 
ATOM     19  H   UNL     1       1.471   7.410  21.766  0.00  0.00    +0.000 HD
BRANCH  18  20
ATOM     20  C   UNL     1       1.110   5.658  20.707  0.00  0.00    +0.000 C 
BRANCH  20  21
ATOM     21  C   UNL     1       1.942   4.564  19.989  0.00  0.00    +0.000 C 
ATOM     22  C   UNL     1       1.592   3.225  20.701  0.00  0.00    +0.000 C 
ATOM     23  C   UNL     1       2.288   2.037  20.034  0.00  0.00    +0.000 C 
ATOM     24  C   UNL     1       1.836   1.972  18.568  0.00  0.00    +0.000 C 
ATOM     25  C   UNL     1       2.262   3.253  17.825  0.00  0.00    +0.000 C 
ATOM     26  C   UNL     1       1.560   4.457  18.489  0.00  0.00    +0.000 C 
ATOM     27  C   UNL     1       3.792   3.463  17.908  0.00  0.00    +0.000 C 
ATOM     28  C   UNL     1       4.206   3.541  19.400  0.00  0.00    +0.000 C 
ATOM     29  C   UNL     1       3.805   2.243  20.130  0.00  0.00    +0.000 C 
ATOM     30  C   UNL     1       3.479   4.745  20.070  0.00  0.00    +0.000 C 
BRANCH  27  31
ATOM     31  N   UNL     1       4.508   2.417  17.171  0.00  0.00    +0.000 NA
ATOM     32  H   UNL     1       4.508   1.538  17.687  0.00  0.00    +0.000 HD
ATOM     33  H   UNL     1       5.487   2.676  17.058  0.00  0.00    +0.000 HD
ENDBRANCH  27  31
ENDBRANCH  20  21
ENDBRANCH  18  20
ENDBRANCH   7  18
TORSDOF 6
ENDMDL
MODEL 5
REMARK VINA RESULT:      -7.7      1.210      1.989
REMARK  Name = 
REMARK  6 active torsions:
REMARK  status: ('A' for Active; 'I' for Inactive)
REMARK    1  A    between atoms: C_2  and  C_3
REMARK    2  A    between atoms: N_7  and  C_8
REMARK    3  A    between atoms: C_16  and  N_17
REMARK    4  A    between atoms: N_17  and  C_18
REMARK    5  A    between atoms: C_18  and  C_19
REMARK    6  A    between atoms: C_25  and  N_26
REMARK                            x       y       z     vdW  Elec       q    Type
REMARK                         _______ _______ _______ _____ _____    ______ ____
ROOT
ATOM      1  C   UNL     1       1.317   8.722  19.795  0.00  0.00    +0.000 A 
ATOM      2  C   UNL     1       1.473   9.570  18.715  0.00  0.00    +0.000 A 
ATOM      3  N   UNL     1       2.243   9.294  17.642  0.00  0.00    +0.000 NA
ATOM      4  C   UNL     1       2.910   8.138  17.677  0.00  0.00    +0.000 A 
ATOM      5  N   UNL     1       3.724   7.835  16.590  0.00  0.00    +0.000 N 
ATOM      6  N   UNL     1       2.812   7.263  18.697  0.00  0.00    +0.000 NA
ATOM      7  C   UNL     1       2.032   7.543  19.757  0.00  0.00    +0.000 A 
ATOM      8  H   UNL     1       3.653   8.534  15.864  0.00  0.00    +0.000 HD
ENDROOT
BRANCH   5   9
ATOM      9  C   UNL     1       4.844   6.994  16.551  0.00  0.00    +0.000 A 
ATOM     10  C   UNL     1       5.852   7.131  17.515  0.00  0.00    +0.000 A 
ATOM     11  C   UNL     1       7.027   6.379  17.433  0.00  0.00    +0.000 A 
ATOM     12  C   UNL     1       7.206   5.469  16.393  0.00  0.00    +0.000 A 
ATOM     13  C   UNL     1       6.201   5.305  15.446  0.00  0.00    +0.000 A 
ATOM     14 BR   UNL     1       6.418   4.062  14.040  0.00  0.00    +0.000 Br
ATOM     15  C   UNL     1       5.034   6.060  15.521  0.00  0.00    +0.000 A 
ENDBRANCH   5   9
BRANCH   1  17
ATOM     16  N   UNL     1      -0.129   9.427  21.814  0.00  0.00    +0.000 NA
ATOM     17  C   UNL     1       0.500   9.108  20.890  0.00  0.00    +0.000 C 
ENDBRANCH   1  17
BRANCH   7  18
ATOM     18  N   UNL     1       1.993   6.624  20.836  0.00  0.00    +0.000 N 
ATOM     19  H   UNL     1       1.583   7.074  21.653  0.00  0.00    +0.000 HD
BRANCH  18  20
ATOM     20  C   UNL     1       1.330   5.358  20.507  0.00  0.00    +0.000 C 
BRANCH  20  21
ATOM     21  C   UNL     1       2.264   4.301  19.863  0.00  0.00    +0.000 C 
ATOM     22  C   UNL     1       3.708   4.866  19.997  0.00  0.00    +0.000 C 
ATOM     23  C   UNL     1       4.748   3.877  19.469  0.00  0.00    +0.000 C 
ATOM     24  C   UNL     1       4.629   2.574  20.274  0.00  0.00    +0.000 C 
ATOM     25  C   UNL     1       3.234   1.952  20.073  0.00  0.00    +0.000 C 
ATOM     26  C   UNL     1       2.178   2.942  20.607  0.00  0.00    +0.000 C 
ATOM     27  C   UNL     1       2.953   1.687  18.575  0.00  0.00    +0.000 C 
ATOM     28  C   UNL     1       3.065   3.025  17.801  0.00  0.00    +0.000 C 
ATOM     29  C   UNL     1       4.473   3.627  17.981  0.00  0.00    +0.000 C 
ATOM     30  C   UNL     1       2.010   4.027  18.358  0.00  0.00    +0.000 C 
BRANCH  27  31
ATOM     31  N   UNL     1       3.843   0.647  18.048  0.00  0.00    +0.000 NA
ATOM     32  H   UNL     1       4.730   0.634  18.549  0.00  0.00    +0.000 HD
ATOM     33  H   UNL     1       4.073   0.844  17.075  0.00  0.00    +0.000 HD
ENDBRANCH  27  31
ENDBRANCH  20  21
ENDBRANCH  18  20
ENDBRANCH   7  18
TORSDOF 6
ENDMDL
MODEL 6
REMARK VINA RESULT:      -7.5      0.550      1.400
REMARK  Name = 
REMARK  6 active torsions:
REMARK  status: ('A' for Active; 'I' for Inactive)
REMARK    1  A    between atoms: C_2  and  C_3
REMARK    2  A    between atoms: N_7  and  C_8
REMARK    3  A    between atoms: C_16  and  N_17
REMARK    4  A    between atoms: N_17  and  C_18
REMARK    5  A    between atoms: C_18  and  C_19
REMARK    6  A    between atoms: C_25  and  N_26
REMARK                            x       y       z     vdW  Elec       q    Type
REMARK                         _______ _______ _______ _____ _____    ______ ____
ROOT
ATOM      1  C   UNL     1       1.327   8.707  19.675  0.00  0.00    +0.000 A 
ATOM      2  C   UNL     1       1.452   9.509  18.556  0.00  0.00    +0.000 A 
ATOM      3  N   UNL     1       2.231   9.213  17.496  0.00  0.00    +0.000 NA
ATOM      4  C   UNL     1       2.941   8.085  17.583  0.00  0.00    +0.000 A 
ATOM      5  N   UNL     1       3.766   7.763  16.509  0.00  0.00    +0.000 N 
ATOM      6  N   UNL     1       2.875   7.254  18.641  0.00  0.00    +0.000 NA
ATOM      7  C   UNL     1       2.085   7.555  19.689  0.00  0.00    +0.000 A 
ATOM      8  H   UNL     1       3.669   8.425  15.752  0.00  0.00    +0.000 HD
ENDROOT
BRANCH   5   9
ATOM      9  C   UNL     1       4.916   6.963  16.507  0.00  0.00    +0.000 A 
ATOM     10  C   UNL     1       5.181   6.125  15.415  0.00  0.00    +0.000 A 
ATOM     11  C   UNL     1       6.261   5.240  15.438  0.00  0.00    +0.000 A 
ATOM     12  C   UNL     1       7.101   5.187  16.549  0.00  0.00    +0.000 A 
ATOM     13  C   UNL     1       6.864   6.032  17.628  0.00  0.00    +0.000 A 
ATOM     14 BR   UNL     1       8.003   5.990  19.134  0.00  0.00    +0.000 Br
ATOM     15  C   UNL     1       5.782   6.909  17.610  0.00  0.00    +0.000 A 
ENDBRANCH   5   9
BRANCH   1  17
ATOM     16  N   UNL     1      -0.209   9.401  21.630  0.00  0.00    +0.000 NA
ATOM     17  C   UNL     1       0.496   9.112  20.752  0.00  0.00    +0.000 C 
ENDBRANCH   1  17
BRANCH   7  18
ATOM     18  N   UNL     1       2.080   6.685  20.809  0.00  0.00    +0.000 N 
ATOM     19  H   UNL     1       1.715   7.178  21.622  0.00  0.00    +0.000 HD
BRANCH  18  20
ATOM     20  C   UNL     1       1.381   5.418  20.567  0.00  0.00    +0.000 C 
BRANCH  20  21
ATOM     21  C   UNL     1       2.261   4.321  19.914  0.00  0.00    +0.000 C 
ATOM     22  C   UNL     1       3.720   4.862  19.957  0.00  0.00    +0.000 C 
ATOM     23  C   UNL     1       4.715   3.835  19.413  0.00  0.00    +0.000 C 
ATOM     24  C   UNL     1       4.613   2.563  20.268  0.00  0.00    +0.000 C 
ATOM     25  C   UNL     1       3.198   1.962  20.157  0.00  0.00    +0.000 C 
ATOM     26  C   UNL     1       2.188   2.991  20.709  0.00  0.00    +0.000 C 
ATOM     27  C   UNL     1       2.837   1.652  18.685  0.00  0.00    +0.000 C 
ATOM     28  C   UNL     1       2.934   2.961  17.861  0.00  0.00    +0.000 C 
ATOM     29  C   UNL     1       4.361   3.540  17.949  0.00  0.00    +0.000 C 
ATOM     30  C   UNL     1       1.927   4.003  18.434  0.00  0.00    +0.000 C 
BRANCH  27  31
ATOM     31  N   UNL     1       3.681   0.578  18.151  0.00  0.00    +0.000 NA
ATOM     32  H   UNL     1       4.307   0.212  18.866  0.00  0.00    +0.000 HD
ATOM     33  H   UNL     1       4.280   0.939  17.411  0.00  0.00    +0.000 HD
ENDBRANCH  27  31
ENDBRANCH  20  21
ENDBRANCH  18  20
ENDBRANCH   7  18
TORSDOF 6
ENDMDL
MODEL 7
REMARK VINA RESULT:      -7.5      3.635      5.583
REMARK  Name = 
REMARK  6 active torsions:
REMARK  status: ('A' for Active; 'I' for Inactive)
REMARK    1  A    between atoms: C_2  and  C_3
REMARK    2  A    between atoms: N_7  and  C_8
REMARK    3  A    between atoms: C_16  and  N_17
REMARK    4  A    between atoms: N_17  and  C_18
REMARK    5  A    between atoms: C_18  and  C_19
REMARK    6  A    between atoms: C_25  and  N_26
REMARK                            x       y       z     vdW  Elec       q    Type
REMARK                         _______ _______ _______ _____ _____    ______ ____
ROOT
ATOM      1  C   UNL     1       6.796   5.019  17.425  0.00  0.00    +0.000 A 
ATOM      2  C   UNL     1       7.617   5.790  16.624  0.00  0.00    +0.000 A 
ATOM      3  N   UNL     1       7.601   5.760  15.275  0.00  0.00    +0.000 NA
ATOM      4  C   UNL     1       6.755   4.893  14.714  0.00  0.00    +0.000 A 
ATOM      5  N   UNL     1       6.730   4.830  13.324  0.00  0.00    +0.000 N 
ATOM      6  N   UNL     1       5.927   4.106  15.429  0.00  0.00    +0.000 NA
ATOM      7  C   UNL     1       5.943   4.153  16.774  0.00  0.00    +0.000 A 
ATOM      8  H   UNL     1       7.341   5.519  12.909  0.00  0.00    +0.000 HD
ENDROOT
BRANCH   5   9
ATOM      9  C   UNL     1       6.336   3.760  12.510  0.00  0.00    +0.000 A 
ATOM     10  C   UNL     1       7.269   2.781  12.145  0.00  0.00    +0.000 A 
ATOM     11  C   UNL     1       6.928   1.766  11.248  0.00  0.00    +0.000 A 
ATOM     12  C   UNL     1       5.643   1.708  10.711  0.00  0.00    +0.000 A 
ATOM     13  C   UNL     1       4.700   2.658  11.087  0.00  0.00    +0.000 A 
ATOM     14 BR   UNL     1       2.947   2.584  10.386  0.00  0.00    +0.000 Br
ATOM     15  C   UNL     1       5.041   3.675  11.974  0.00  0.00    +0.000 A 
ENDBRANCH   5   9
BRANCH   1  17
ATOM     16  N   UNL     1       6.993   5.224  19.991  0.00  0.00    +0.000 NA
ATOM     17  C   UNL     1       6.897   5.105  18.838  0.00  0.00    +0.000 C 
ENDBRANCH   1  17
BRANCH   7  18
ATOM     18  N   UNL     1       5.096   3.273  17.496  0.00  0.00    +0.000 N 
ATOM     19  H   UNL     1       5.426   3.193  18.456  0.00  0.00    +0.000 HD
BRANCH  18  20
ATOM     20  C   UNL     1       3.676   3.633  17.424  0.00  0.00    +0.000 C 
BRANCH  20  21
ATOM     21  C   UNL     1       2.943   3.604  18.790  0.00  0.00    +0.000 C 
ATOM     22  C   UNL     1       2.725   5.092  19.191  0.00  0.00    +0.000 C 
ATOM     23  C   UNL     1       1.932   5.211  20.494  0.00  0.00    +0.000 C 
ATOM     24  C   UNL     1       0.571   4.527  20.296  0.00  0.00    +0.000 C 
ATOM     25  C   UNL     1       0.770   3.029  19.994  0.00  0.00    +0.000 C 
ATOM     26  C   UNL     1       1.565   2.900  18.678  0.00  0.00    +0.000 C 
ATOM     27  C   UNL     1       1.564   2.333  21.124  0.00  0.00    +0.000 C 
ATOM     28  C   UNL     1       2.935   3.039  21.281  0.00  0.00    +0.000 C 
ATOM     29  C   UNL     1       2.729   4.531  21.614  0.00  0.00    +0.000 C 
ATOM     30  C   UNL     1       3.725   2.923  19.943  0.00  0.00    +0.000 C 
BRANCH  27  31
ATOM     31  N   UNL     1       0.791   2.306  22.371  0.00  0.00    +0.000 NA
ATOM     32  H   UNL     1       1.382   2.509  23.174  0.00  0.00    +0.000 HD
ATOM     33  H   UNL     1       0.414   1.372  22.528  0.00  0.00    +0.000 HD
ENDBRANCH  27  31
ENDBRANCH  20  21
ENDBRANCH  18  20
ENDBRANCH   7  18
TORSDOF 6
ENDMDL
MODEL 8
REMARK VINA RESULT:      -7.4      0.782      1.075
REMARK  Name = 
REMARK  6 active torsions:
REMARK  status: ('A' for Active; 'I' for Inactive)
REMARK    1  A    between atoms: C_2  and  C_3
REMARK    2  A    between atoms: N_7  and  C_8
REMARK    3  A    between atoms: C_16  and  N_17
REMARK    4  A    between atoms: N_17  and  C_18
REMARK    5  A    between atoms: C_18  and  C_19
REMARK    6  A    between atoms: C_25  and  N_26
REMARK                            x       y       z     vdW  Elec       q    Type
REMARK                         _______ _______ _______ _____ _____    ______ ____
ROOT
ATOM      1  C   UNL     1       1.391   8.999  19.525  0.00  0.00    +0.000 A 
ATOM      2  C   UNL     1       1.722   9.740  18.406  0.00  0.00    +0.000 A 
ATOM      3  N   UNL     1       2.532   9.301  17.421  0.00  0.00    +0.000 NA
ATOM      4  C   UNL     1       3.059   8.086  17.589  0.00  0.00    +0.000 A 
ATOM      5  N   UNL     1       3.912   7.614  16.594  0.00  0.00    +0.000 N 
ATOM      6  N   UNL     1       2.788   7.307  18.654  0.00  0.00    +0.000 NA
ATOM      7  C   UNL     1       1.969   7.750  19.625  0.00  0.00    +0.000 A 
ATOM      8  H   UNL     1       3.974   8.260  15.820  0.00  0.00    +0.000 HD
ENDROOT
BRANCH   5   9
ATOM      9  C   UNL     1       4.929   6.657  16.704  0.00  0.00    +0.000 A 
ATOM     10  C   UNL     1       4.980   5.588  15.799  0.00  0.00    +0.000 A 
ATOM     11  C   UNL     1       5.918   4.565  15.955  0.00  0.00    +0.000 A 
ATOM     12  C   UNL     1       6.827   4.600  17.010  0.00  0.00    +0.000 A 
ATOM     13  C   UNL     1       6.803   5.670  17.899  0.00  0.00    +0.000 A 
ATOM     14 BR   UNL     1       8.040   5.746  19.325  0.00  0.00    +0.000 Br
ATOM     15  C   UNL     1       5.863   6.686  17.751  0.00  0.00    +0.000 A 
ENDBRANCH   5   9
BRANCH   1  17
ATOM     16  N   UNL     1      -0.109  10.009  21.367  0.00  0.00    +0.000 NA
ATOM     17  C   UNL     1       0.545   9.553  20.521  0.00  0.00    +0.000 C 
ENDBRANCH   1  17
BRANCH   7  18
ATOM     18  N   UNL     1       1.746   6.925  20.757  0.00  0.00    +0.000 N 
ATOM     19  H   UNL     1       1.360   7.485  21.516  0.00  0.00    +0.000 HD
BRANCH  18  20
ATOM     20  C   UNL     1       0.932   5.740  20.470  0.00  0.00    +0.000 C 
BRANCH  20  21
ATOM     21  C   UNL     1       1.754   4.446  20.238  0.00  0.00    +0.000 C 
ATOM     22  C   UNL     1       0.747   3.392  19.691  0.00  0.00    +0.000 C 
ATOM     23  C   UNL     1       1.447   2.078  19.339  0.00  0.00    +0.000 C 
ATOM     24  C   UNL     1       2.515   2.369  18.274  0.00  0.00    +0.000 C 
ATOM     25  C   UNL     1       3.574   3.338  18.837  0.00  0.00    +0.000 C 
ATOM     26  C   UNL     1       2.876   4.668  19.191  0.00  0.00    +0.000 C 
ATOM     27  C   UNL     1       4.229   2.765  20.115  0.00  0.00    +0.000 C 
ATOM     28  C   UNL     1       3.124   2.502  21.169  0.00  0.00    +0.000 C 
ATOM     29  C   UNL     1       2.084   1.508  20.612  0.00  0.00    +0.000 C 
ATOM     30  C   UNL     1       2.410   3.845  21.508  0.00  0.00    +0.000 C 
BRANCH  27  31
ATOM     31  N   UNL     1       5.022   1.570  19.810  0.00  0.00    +0.000 NA
ATOM     32  H   UNL     1       6.003   1.708  20.048  0.00  0.00    +0.000 HD
ATOM     33  H   UNL     1       5.001   1.382  18.809  0.00  0.00    +0.000 HD
ENDBRANCH  27  31
ENDBRANCH  20  21
ENDBRANCH  18  20
ENDBRANCH   7  18
TORSDOF 6
ENDMDL
MODEL 9
REMARK VINA RESULT:      -7.3      7.074     11.727
REMARK  Name = 
REMARK  6 active torsions:
REMARK  status: ('A' for Active; 'I' for Inactive)
REMARK    1  A    between atoms: C_2  and  C_3
REMARK    2  A    between atoms: N_7  and  C_8
REMARK    3  A    between atoms: C_16  and  N_17
REMARK    4  A    between atoms: N_17  and  C_18
REMARK    5  A    between atoms: C_18  and  C_19
REMARK    6  A    between atoms: C_25  and  N_26
REMARK                            x       y       z     vdW  Elec       q    Type
REMARK                         _______ _______ _______ _____ _____    ______ ____
ROOT
ATOM      1  C   UNL     1      -1.079  10.425  18.054  0.00  0.00    +0.000 A 
ATOM      2  C   UNL     1      -1.695   9.755  17.014  0.00  0.00    +0.000 A 
ATOM      3  N   UNL     1      -2.939  10.028  16.570  0.00  0.00    +0.000 NA
ATOM      4  C   UNL     1      -3.601  10.987  17.224  0.00  0.00    +0.000 A 
ATOM      5  N   UNL     1      -4.893  11.279  16.796  0.00  0.00    +0.000 N 
ATOM      6  N   UNL     1      -3.068  11.681  18.248  0.00  0.00    +0.000 NA
ATOM      7  C   UNL     1      -1.822  11.407  18.675  0.00  0.00    +0.000 A 
ATOM      8  H   UNL     1      -5.145  10.742  15.978  0.00  0.00    +0.000 HD
ENDROOT
BRANCH   5   9
ATOM      9  C   UNL     1      -5.942  11.847  17.529  0.00  0.00    +0.000 A 
ATOM     10  C   UNL     1      -6.528  13.044  17.096  0.00  0.00    +0.000 A 
ATOM     11  C   UNL     1      -7.500  13.685  17.867  0.00  0.00    +0.000 A 
ATOM     12  C   UNL     1      -7.912  13.132  19.078  0.00  0.00    +0.000 A 
ATOM     13  C   UNL     1      -7.357  11.930  19.506  0.00  0.00    +0.000 A 
ATOM     14 BR   UNL     1      -7.916  11.155  21.136  0.00  0.00    +0.000 Br
ATOM     15  C   UNL     1      -6.381  11.295  18.743  0.00  0.00    +0.000 A 
ENDBRANCH   5   9
BRANCH   1  17
ATOM     16  N   UNL     1       1.314   9.794  18.790  0.00  0.00    +0.000 NA
ATOM     17  C   UNL     1       0.228  10.053  18.465  0.00  0.00    +0.000 C 
ENDBRANCH   1  17
BRANCH   7  18
ATOM     18  N   UNL     1      -1.312  12.121  19.790  0.00  0.00    +0.000 N 
ATOM     19  H   UNL     1      -0.304  12.233  19.691  0.00  0.00    +0.000 HD
BRANCH  18  20
ATOM     20  C   UNL     1      -1.992  13.397  20.032  0.00  0.00    +0.000 C 
BRANCH  20  21
ATOM     21  C   UNL     1      -2.686  13.495  21.415  0.00  0.00    +0.000 C 
ATOM     22  C   UNL     1      -2.957  15.010  21.651  0.00  0.00    +0.000 C 
ATOM     23  C   UNL     1      -3.718  15.246  22.957  0.00  0.00    +0.000 C 
ATOM     24  C   UNL     1      -5.054  14.491  22.881  0.00  0.00    +0.000 C 
ATOM     25  C   UNL     1      -4.800  12.977  22.744  0.00  0.00    +0.000 C 
ATOM     26  C   UNL     1      -4.035  12.730  21.426  0.00  0.00    +0.000 C 
ATOM     27  C   UNL     1      -3.947  12.446  23.920  0.00  0.00    +0.000 C 
ATOM     28  C   UNL     1      -2.604  13.219  23.952  0.00  0.00    +0.000 C 
ATOM     29  C   UNL     1      -2.863  14.730  24.121  0.00  0.00    +0.000 C 
ATOM     30  C   UNL     1      -1.845  12.982  22.612  0.00  0.00    +0.000 C 
BRANCH  27  31
ATOM     31  N   UNL     1      -4.684  12.532  25.185  0.00  0.00    +0.000 NA
ATOM     32  H   UNL     1      -5.662  12.765  25.026  0.00  0.00    +0.000 HD
ATOM     33  H   UNL     1      -4.306  13.283  25.760  0.00  0.00    +0.000 HD
ENDBRANCH  27  31
ENDBRANCH  20  21
ENDBRANCH  18  20
ENDBRANCH   7  18
TORSDOF 6
ENDMDL
