MODEL 1
REMARK VINA RESULT:      -7.6      0.000      0.000
REMARK  Name = 
REMARK  5 active torsions:
REMARK  status: ('A' for Active; 'I' for Inactive)
REMARK    1  A    between atoms: C_9  and  C_10
REMARK    2  A    between atoms: C_10  and  C_12
REMARK    3  A    between atoms: C_12  and  C_13
REMARK    4  A    between atoms: C_13  and  C_14
REMARK    5  A    between atoms: N_16  and  O_17
REMARK                            x       y       z     vdW  Elec       q    Type
REMARK                         _______ _______ _______ _____ _____    ______ ____
ROOT
ATOM      1  O   UNL     1       1.334   2.326  18.216  0.00  0.00    +0.000 OA
ATOM      2  C   UNL     1       1.743   3.411  18.644  0.00  0.00    +0.000 C 
ATOM      3  C   UNL     1       1.070   4.037  19.859  0.00  0.00    +0.000 C 
ATOM      4  C   UNL     1       2.010   5.028  20.488  0.00  0.00    +0.000 C 
ATOM      5  C   UNL     1       2.461   5.935  19.606  0.00  0.00    +0.000 C 
ATOM      6  C   UNL     1       1.896   7.276  19.645  0.00  0.00    +0.000 C 
ATOM      7  C   UNL     1       2.292   8.204  18.767  0.00  0.00    +0.000 C 
ATOM      8  C   UNL     1       3.344   7.869  17.828  0.00  0.00    +0.000 C 
ATOM      9  C   UNL     1       3.728   6.586  17.652  0.00  0.00    +0.000 C 
ATOM     10  N   UNL     1       3.122   5.547  18.418  0.00  0.00    +0.000 N 
ATOM     11  C   UNL     1       2.923   4.146  17.958  0.00  0.00    +0.000 C 
ENDROOT
BRANCH   9  12
ATOM     12  C   UNL     1       5.020   6.525  16.862  0.00  0.00    +0.000 C 
ATOM     13  O   UNL     1       5.018   5.962  15.756  0.00  0.00    +0.000 OA
BRANCH  12  14
ATOM     14  C   UNL     1       6.350   7.033  17.374  0.00  0.00    +0.000 C 
BRANCH  14  15
ATOM     15  C   UNL     1       7.317   5.838  17.466  0.00  0.00    +0.000 C 
BRANCH  15  16
ATOM     16  C   UNL     1       7.280   5.273  18.867  0.00  0.00    +0.000 C 
ATOM     17  O   UNL     1       6.431   4.465  19.238  0.00  0.00    +0.000 OA
ATOM     18  N   UNL     1       8.277   5.694  19.704  0.00  0.00    +0.000 N 
ATOM     19  H   UNL     1       8.982   6.393  19.497  0.00  0.00    +0.000 HD
BRANCH  18  20
ATOM     20  O   UNL     1       8.201   5.216  21.032  0.00  0.00    +0.000 OA
ATOM     21  H   UNL     1       8.886   5.754  21.486  0.00  0.00    +0.000 HD
ENDBRANCH  18  20
ENDBRANCH  15  16
ENDBRANCH  14  15
ENDBRANCH  12  14
ENDBRANCH   9  12
TORSDOF 5
ENDMDL
MODEL 2
REMARK VINA RESULT:      -7.5      1.035      1.202
REMARK  Name = 
REMARK  5 active torsions:
REMARK  status: ('A' for Active; 'I' for Inactive)
REMARK    1  A    between atoms: C_9  and  C_10
REMARK    2  A    between atoms: C_10  and  C_12
REMARK    3  A    between atoms: C_12  and  C_13
REMARK    4  A    between atoms: C_13  and  C_14
REMARK    5  A    between atoms: N_16  and  O_17
REMARK                            x       y       z     vdW  Elec       q    Type
REMARK                         _______ _______ _______ _____ _____    ______ ____
ROOT
ATOM      1  O   UNL     1       2.142   1.782  17.516  0.00  0.00    +0.000 OA
ATOM      2  C   UNL     1       2.535   2.892  17.894  0.00  0.00    +0.000 C 
ATOM      3  C   UNL     1       1.784   3.609  19.009  0.00  0.00    +0.000 C 
ATOM      4  C   UNL     1       2.691   4.634  19.633  0.00  0.00    +0.000 C 
ATOM      5  C   UNL     1       3.217   5.472  18.724  0.00  0.00    +0.000 C 
ATOM      6  C   UNL     1       2.669   6.817  18.627  0.00  0.00    +0.000 C 
ATOM      7  C   UNL     1       3.139   7.676  17.716  0.00  0.00    +0.000 C 
ATOM      8  C   UNL     1       4.252   7.266  16.882  0.00  0.00    +0.000 C 
ATOM      9  C   UNL     1       4.629   5.970  16.826  0.00  0.00    +0.000 C 
ATOM     10  N   UNL     1       3.955   4.993  17.618  0.00  0.00    +0.000 N 
ATOM     11  C   UNL     1       3.771   3.566  17.245  0.00  0.00    +0.000 C 
ENDROOT
BRANCH   9  12
ATOM     12  C   UNL     1       5.974   5.841  16.138  0.00  0.00    +0.000 C 
ATOM     13  O   UNL     1       6.021   5.918  14.900  0.00  0.00    +0.000 OA
BRANCH  12  14
ATOM     14  C   UNL     1       7.268   5.533  16.859  0.00  0.00    +0.000 C 
BRANCH  14  15
ATOM     15  C   UNL     1       7.388   6.490  18.059  0.00  0.00    +0.000 C 
BRANCH  15  16
ATOM     16  C   UNL     1       7.342   5.691  19.341  0.00  0.00    +0.000 C 
ATOM     17  O   UNL     1       6.349   5.062  19.700  0.00  0.00    +0.000 OA
ATOM     18  N   UNL     1       8.496   5.681  20.077  0.00  0.00    +0.000 N 
ATOM     19  H   UNL     1       9.339   6.209  19.882  0.00  0.00    +0.000 HD
BRANCH  18  20
ATOM     20  O   UNL     1       8.428   4.988  21.307  0.00  0.00    +0.000 OA
ATOM     21  H   UNL     1       8.417   4.050  21.016  0.00  0.00    +0.000 HD
ENDBRANCH  18  20
ENDBRANCH  15  16
ENDBRANCH  14  15
ENDBRANCH  12  14
ENDBRANCH   9  12
TORSDOF 5
ENDMDL
MODEL 3
REMARK VINA RESULT:      -7.4      2.257      3.153
REMARK  Name = 
REMARK  5 active torsions:
REMARK  status: ('A' for Active; 'I' for Inactive)
REMARK    1  A    between atoms: C_9  and  C_10
REMARK    2  A    between atoms: C_10  and  C_12
REMARK    3  A    between atoms: C_12  and  C_13
REMARK    4  A    between atoms: C_13  and  C_14
REMARK    5  A    between atoms: N_16  and  O_17
REMARK                            x       y       z     vdW  Elec       q    Type
REMARK                         _______ _______ _______ _____ _____    ______ ____
ROOT
ATOM      1  O   UNL     1       1.702   1.783  19.309  0.00  0.00    +0.000 OA
ATOM      2  C   UNL     1       2.078   2.955  19.429  0.00  0.00    +0.000 C 
ATOM      3  C   UNL     1       1.159   3.969  20.098  0.00  0.00    +0.000 C 
ATOM      4  C   UNL     1       1.979   5.133  20.583  0.00  0.00    +0.000 C 
ATOM      5  C   UNL     1       2.736   5.666  19.609  0.00  0.00    +0.000 C 
ATOM      6  C   UNL     1       2.309   6.923  19.012  0.00  0.00    +0.000 C 
ATOM      7  C   UNL     1       3.013   7.474  18.018  0.00  0.00    +0.000 C 
ATOM      8  C   UNL     1       4.247   6.836  17.602  0.00  0.00    +0.000 C 
ATOM      9  C   UNL     1       4.543   5.582  18.005  0.00  0.00    +0.000 C 
ATOM     10  N   UNL     1       3.657   4.882  18.877  0.00  0.00    +0.000 N 
ATOM     11  C   UNL     1       3.463   3.408  18.900  0.00  0.00    +0.000 C 
ENDROOT
BRANCH   9  12
ATOM     12  C   UNL     1       5.991   5.255  17.694  0.00  0.00    +0.000 C 
ATOM     13  O   UNL     1       6.882   5.951  18.206  0.00  0.00    +0.000 OA
BRANCH  12  14
ATOM     14  C   UNL     1       6.426   4.182  16.722  0.00  0.00    +0.000 C 
BRANCH  14  15
ATOM     15  C   UNL     1       5.598   4.337  15.433  0.00  0.00    +0.000 C 
BRANCH  15  16
ATOM     16  C   UNL     1       6.532   4.531  14.261  0.00  0.00    +0.000 C 
ATOM     17  O   UNL     1       6.435   3.891  13.216  0.00  0.00    +0.000 OA
ATOM     18  N   UNL     1       7.490   5.496  14.418  0.00  0.00    +0.000 N 
ATOM     19  H   UNL     1       7.672   6.032  15.259  0.00  0.00    +0.000 HD
BRANCH  18  20
ATOM     20  O   UNL     1       8.403   5.629  13.347  0.00  0.00    +0.000 OA
ATOM     21  H   UNL     1       8.092   4.937  12.722  0.00  0.00    +0.000 HD
ENDBRANCH  18  20
ENDBRANCH  15  16
ENDBRANCH  14  15
ENDBRANCH  12  14
ENDBRANCH   9  12
TORSDOF 5
ENDMDL
MODEL 4
REMARK VINA RESULT:      -7.4      1.939      3.110
REMARK  Name = 
REMARK  5 active torsions:
REMARK  status: ('A' for Active; 'I' for Inactive)
REMARK    1  A    between atoms: C_9  and  C_10
REMARK    2  A    between atoms: C_10  and  C_12
REMARK    3  A    between atoms: C_12  and  C_13
REMARK    4  A    between atoms: C_13  and  C_14
REMARK    5  A    between atoms: N_16  and  O_17
REMARK                            x       y       z     vdW  Elec       q    Type
REMARK                         _______ _______ _______ _____ _____    ______ ____
ROOT
ATOM      1  O   UNL     1       2.026   2.010  20.180  0.00  0.00    +0.000 OA
ATOM      2  C   UNL     1       2.278   3.216  20.065  0.00  0.00    +0.000 C 
ATOM      3  C   UNL     1       1.148   4.230  20.196  0.00  0.00    +0.000 C 
ATOM      4  C   UNL     1       1.731   5.575  20.531  0.00  0.00    +0.000 C 
ATOM      5  C   UNL     1       2.682   5.951  19.660  0.00  0.00    +0.000 C 
ATOM      6  C   UNL     1       2.347   6.956  18.662  0.00  0.00    +0.000 C 
ATOM      7  C   UNL     1       3.253   7.339  17.755  0.00  0.00    +0.000 C 
ATOM      8  C   UNL     1       4.592   6.789  17.835  0.00  0.00    +0.000 C 
ATOM      9  C   UNL     1       4.853   5.722  18.620  0.00  0.00    +0.000 C 
ATOM     10  N   UNL     1       3.815   5.143  19.410  0.00  0.00    +0.000 N 
ATOM     11  C   UNL     1       3.720   3.707  19.782  0.00  0.00    +0.000 C 
ENDROOT
BRANCH   9  12
ATOM     12  C   UNL     1       6.349   5.526  18.765  0.00  0.00    +0.000 C 
ATOM     13  O   UNL     1       6.811   5.261  19.886  0.00  0.00    +0.000 OA
BRANCH  12  14
ATOM     14  C   UNL     1       7.341   5.722  17.640  0.00  0.00    +0.000 C 
BRANCH  14  15
ATOM     15  C   UNL     1       7.481   4.387  16.886  0.00  0.00    +0.000 C 
BRANCH  15  16
ATOM     16  C   UNL     1       7.068   4.583  15.446  0.00  0.00    +0.000 C 
ATOM     17  O   UNL     1       7.445   5.535  14.766  0.00  0.00    +0.000 OA
ATOM     18  N   UNL     1       6.261   3.610  14.922  0.00  0.00    +0.000 N 
ATOM     19  H   UNL     1       5.864   2.823  15.423  0.00  0.00    +0.000 HD
BRANCH  18  20
ATOM     20  O   UNL     1       5.821   3.829  13.596  0.00  0.00    +0.000 OA
ATOM     21  H   UNL     1       6.585   3.505  13.069  0.00  0.00    +0.000 HD
ENDBRANCH  18  20
ENDBRANCH  15  16
ENDBRANCH  14  15
ENDBRANCH  12  14
ENDBRANCH   9  12
TORSDOF 5
ENDMDL
MODEL 5
REMARK VINA RESULT:      -7.3      1.101      1.283
REMARK  Name = 
REMARK  5 active torsions:
REMARK  status: ('A' for Active; 'I' for Inactive)
REMARK    1  A    between atoms: C_9  and  C_10
REMARK    2  A    between atoms: C_10  and  C_12
REMARK    3  A    between atoms: C_12  and  C_13
REMARK    4  A    between atoms: C_13  and  C_14
REMARK    5  A    between atoms: N_16  and  O_17
REMARK                            x       y       z     vdW  Elec       q    Type
REMARK                         _______ _______ _______ _____ _____    ______ ____
ROOT
ATOM      1  O   UNL     1       1.120   1.879  19.443  0.00  0.00    +0.000 OA
ATOM      2  C   UNL     1       1.681   2.977  19.539  0.00  0.00    +0.000 C 
ATOM      3  C   UNL     1       1.204   3.969  20.591  0.00  0.00    +0.000 C 
ATOM      4  C   UNL     1       2.301   4.960  20.868  0.00  0.00    +0.000 C 
ATOM      5  C   UNL     1       2.750   5.551  19.748  0.00  0.00    +0.000 C 
ATOM      6  C   UNL     1       2.334   6.918  19.473  0.00  0.00    +0.000 C 
ATOM      7  C   UNL     1       2.730   7.536  18.355  0.00  0.00    +0.000 C 
ATOM      8  C   UNL     1       3.641   6.844  17.464  0.00  0.00    +0.000 C 
ATOM      9  C   UNL     1       3.870   5.521  17.605  0.00  0.00    +0.000 C 
ATOM     10  N   UNL     1       3.242   4.794  18.659  0.00  0.00    +0.000 N 
ATOM     11  C   UNL     1       2.854   3.360  18.600  0.00  0.00    +0.000 C 
ENDROOT
BRANCH   9  12
ATOM     12  C   UNL     1       5.061   5.099  16.767  0.00  0.00    +0.000 C 
ATOM     13  O   UNL     1       4.915   4.979  15.540  0.00  0.00    +0.000 OA
BRANCH  12  14
ATOM     14  C   UNL     1       6.409   4.724  17.341  0.00  0.00    +0.000 C 
BRANCH  14  15
ATOM     15  C   UNL     1       7.302   5.978  17.330  0.00  0.00    +0.000 C 
BRANCH  15  16
ATOM     16  C   UNL     1       7.878   6.191  18.711  0.00  0.00    +0.000 C 
ATOM     17  O   UNL     1       8.507   7.200  19.024  0.00  0.00    +0.000 OA
ATOM     18  N   UNL     1       7.632   5.196  19.617  0.00  0.00    +0.000 N 
ATOM     19  H   UNL     1       7.170   4.313  19.432  0.00  0.00    +0.000 HD
BRANCH  18  20
ATOM     20  O   UNL     1       8.228   5.367  20.888  0.00  0.00    +0.000 OA
ATOM     21  H   UNL     1       8.984   4.740  20.847  0.00  0.00    +0.000 HD
ENDBRANCH  18  20
ENDBRANCH  15  16
ENDBRANCH  14  15
ENDBRANCH  12  14
ENDBRANCH   9  12
TORSDOF 5
ENDMDL
MODEL 6
REMARK VINA RESULT:      -7.2      3.898      5.227
REMARK  Name = 
REMARK  5 active torsions:
REMARK  status: ('A' for Active; 'I' for Inactive)
REMARK    1  A    between atoms: C_9  and  C_10
REMARK    2  A    between atoms: C_10  and  C_12
REMARK    3  A    between atoms: C_12  and  C_13
REMARK    4  A    between atoms: C_13  and  C_14
REMARK    5  A    between atoms: N_16  and  O_17
REMARK                            x       y       z     vdW  Elec       q    Type
REMARK                         _______ _______ _______ _____ _____    ______ ____
ROOT
ATOM      1  O   UNL     1       1.548   4.033  17.510  0.00  0.00    +0.000 OA
ATOM      2  C   UNL     1       2.754   4.059  17.781  0.00  0.00    +0.000 C 
ATOM      3  C   UNL     1       3.194   3.974  19.237  0.00  0.00    +0.000 C 
ATOM      4  C   UNL     1       4.626   3.517  19.294  0.00  0.00    +0.000 C 
ATOM      5  C   UNL     1       5.435   4.278  18.539  0.00  0.00    +0.000 C 
ATOM      6  C   UNL     1       6.293   5.247  19.207  0.00  0.00    +0.000 C 
ATOM      7  C   UNL     1       7.092   6.048  18.496  0.00  0.00    +0.000 C 
ATOM      8  C   UNL     1       7.143   5.881  17.056  0.00  0.00    +0.000 C 
ATOM      9  C   UNL     1       6.216   5.134  16.417  0.00  0.00    +0.000 C 
ATOM     10  N   UNL     1       5.195   4.472  17.160  0.00  0.00    +0.000 N 
ATOM     11  C   UNL     1       3.822   4.187  16.665  0.00  0.00    +0.000 C 
ENDROOT
BRANCH   9  12
ATOM     12  C   UNL     1       6.647   4.868  14.988  0.00  0.00    +0.000 C 
ATOM     13  O   UNL     1       7.670   5.425  14.559  0.00  0.00    +0.000 OA
BRANCH  12  14
ATOM     14  C   UNL     1       5.856   4.029  14.008  0.00  0.00    +0.000 C 
BRANCH  14  15
ATOM     15  C   UNL     1       6.672   3.913  12.708  0.00  0.00    +0.000 C 
BRANCH  15  16
ATOM     16  C   UNL     1       6.174   2.730  11.911  0.00  0.00    +0.000 C 
ATOM     17  O   UNL     1       4.991   2.570  11.622  0.00  0.00    +0.000 OA
ATOM     18  N   UNL     1       7.134   1.847  11.496  0.00  0.00    +0.000 N 
ATOM     19  H   UNL     1       8.120   1.875  11.732  0.00  0.00    +0.000 HD
BRANCH  18  20
ATOM     20  O   UNL     1       6.659   0.707  10.809  0.00  0.00    +0.000 OA
ATOM     21  H   UNL     1       6.958  -0.026  11.391  0.00  0.00    +0.000 HD
ENDBRANCH  18  20
ENDBRANCH  15  16
ENDBRANCH  14  15
ENDBRANCH  12  14
ENDBRANCH   9  12
TORSDOF 5
ENDMDL
MODEL 7
REMARK VINA RESULT:      -7.2      1.608      1.907
REMARK  Name = 
REMARK  5 active torsions:
REMARK  status: ('A' for Active; 'I' for Inactive)
REMARK    1  A    between atoms: C_9  and  C_10
REMARK    2  A    between atoms: C_10  and  C_12
REMARK    3  A    between atoms: C_12  and  C_13
REMARK    4  A    between atoms: C_13  and  C_14
REMARK    5  A    between atoms: N_16  and  O_17
REMARK                            x       y       z     vdW  Elec       q    Type
REMARK                         _______ _______ _______ _____ _____    ______ ____
ROOT
ATOM      1  O   UNL     1       1.506   2.288  18.162  0.00  0.00    +0.000 OA
ATOM      2  C   UNL     1       1.856   3.387  18.609  0.00  0.00    +0.000 C 
ATOM      3  C   UNL     1       1.154   3.951  19.838  0.00  0.00    +0.000 C 
ATOM      4  C   UNL     1       2.040   4.981  20.482  0.00  0.00    +0.000 C 
ATOM      5  C   UNL     1       2.436   5.929  19.616  0.00  0.00    +0.000 C 
ATOM      6  C   UNL     1       1.797   7.235  19.682  0.00  0.00    +0.000 C 
ATOM      7  C   UNL     1       2.137   8.200  18.820  0.00  0.00    +0.000 C 
ATOM      8  C   UNL     1       3.202   7.942  17.871  0.00  0.00    +0.000 C 
ATOM      9  C   UNL     1       3.656   6.685  17.671  0.00  0.00    +0.000 C 
ATOM     10  N   UNL     1       3.112   5.600  18.419  0.00  0.00    +0.000 N 
ATOM     11  C   UNL     1       2.990   4.199  17.934  0.00  0.00    +0.000 C 
ENDROOT
BRANCH   9  12
ATOM     12  C   UNL     1       4.946   6.711  16.875  0.00  0.00    +0.000 C 
ATOM     13  O   UNL     1       5.947   7.245  17.377  0.00  0.00    +0.000 OA
BRANCH  12  14
ATOM     14  C   UNL     1       5.076   6.201  15.456  0.00  0.00    +0.000 C 
BRANCH  14  15
ATOM     15  C   UNL     1       5.429   4.704  15.514  0.00  0.00    +0.000 C 
BRANCH  15  16
ATOM     16  C   UNL     1       6.857   4.546  15.982  0.00  0.00    +0.000 C 
ATOM     17  O   UNL     1       7.824   4.732  15.248  0.00  0.00    +0.000 OA
ATOM     18  N   UNL     1       7.017   4.207  17.298  0.00  0.00    +0.000 N 
ATOM     19  H   UNL     1       6.279   3.985  17.957  0.00  0.00    +0.000 HD
BRANCH  18  20
ATOM     20  O   UNL     1       8.351   3.994  17.716  0.00  0.00    +0.000 OA
ATOM     21  H   UNL     1       8.575   4.853  18.138  0.00  0.00    +0.000 HD
ENDBRANCH  18  20
ENDBRANCH  15  16
ENDBRANCH  14  15
ENDBRANCH  12  14
ENDBRANCH   9  12
TORSDOF 5
ENDMDL
MODEL 8
REMARK VINA RESULT:      -7.1      2.358      3.276
REMARK  Name = 
REMARK  5 active torsions:
REMARK  status: ('A' for Active; 'I' for Inactive)
REMARK    1  A    between atoms: C_9  and  C_10
REMARK    2  A    between atoms: C_10  and  C_12
REMARK    3  A    between atoms: C_12  and  C_13
REMARK    4  A    between atoms: C_13  and  C_14
REMARK    5  A    between atoms: N_16  and  O_17
REMARK                            x       y       z     vdW  Elec       q    Type
REMARK                         _______ _______ _______ _____ _____    ______ ____
ROOT
ATOM      1  O   UNL     1       0.538   2.054  18.665  0.00  0.00    +0.000 OA
ATOM      2  C   UNL     1       1.160   3.063  19.019  0.00  0.00    +0.000 C 
ATOM      3  C   UNL     1       0.756   3.777  20.303  0.00  0.00    +0.000 C 
ATOM      4  C   UNL     1       1.910   4.610  20.788  0.00  0.00    +0.000 C 
ATOM      5  C   UNL     1       2.372   5.444  19.840  0.00  0.00    +0.000 C 
ATOM      6  C   UNL     1       2.026   6.855  19.933  0.00  0.00    +0.000 C 
ATOM      7  C   UNL     1       2.437   7.716  18.997  0.00  0.00    +0.000 C 
ATOM      8  C   UNL     1       3.293   7.231  17.932  0.00  0.00    +0.000 C 
ATOM      9  C   UNL     1       3.452   5.905  17.727  0.00  0.00    +0.000 C 
ATOM     10  N   UNL     1       2.803   4.966  18.581  0.00  0.00    +0.000 N 
ATOM     11  C   UNL     1       2.336   3.614  18.173  0.00  0.00    +0.000 C 
ENDROOT
BRANCH   9  12
ATOM     12  C   UNL     1       4.604   5.653  16.774  0.00  0.00    +0.000 C 
ATOM     13  O   UNL     1       5.330   6.606  16.449  0.00  0.00    +0.000 OA
BRANCH  12  14
ATOM     14  C   UNL     1       4.879   4.320  16.113  0.00  0.00    +0.000 C 
BRANCH  14  15
ATOM     15  C   UNL     1       6.398   4.196  15.897  0.00  0.00    +0.000 C 
BRANCH  15  16
ATOM     16  C   UNL     1       6.711   4.389  14.431  0.00  0.00    +0.000 C 
ATOM     17  O   UNL     1       7.358   5.344  14.007  0.00  0.00    +0.000 OA
ATOM     18  N   UNL     1       6.251   3.411  13.592  0.00  0.00    +0.000 N 
ATOM     19  H   UNL     1       5.669   2.622  13.848  0.00  0.00    +0.000 HD
BRANCH  18  20
ATOM     20  O   UNL     1       6.487   3.628  12.215  0.00  0.00    +0.000 OA
ATOM     21  H   UNL     1       5.968   4.444  12.042  0.00  0.00    +0.000 HD
ENDBRANCH  18  20
ENDBRANCH  15  16
ENDBRANCH  14  15
ENDBRANCH  12  14
ENDBRANCH   9  12
TORSDOF 5
ENDMDL
MODEL 9
REMARK VINA RESULT:      -7.1      2.458      2.985
REMARK  Name = 
REMARK  5 active torsions:
REMARK  status: ('A' for Active; 'I' for Inactive)
REMARK    1  A    between atoms: C_9  and  C_10
REMARK    2  A    between atoms: C_10  and  C_12
REMARK    3  A    between atoms: C_12  and  C_13
REMARK    4  A    between atoms: C_13  and  C_14
REMARK    5  A    between atoms: N_16  and  O_17
REMARK                            x       y       z     vdW  Elec       q    Type
REMARK                         _______ _______ _______ _____ _____    ______ ____
ROOT
ATOM      1  O   UNL     1       3.300   1.380  17.980  0.00  0.00    +0.000 OA
ATOM      2  C   UNL     1       3.398   2.530  18.427  0.00  0.00    +0.000 C 
ATOM      3  C   UNL     1       2.699   2.885  19.733  0.00  0.00    +0.000 C 
ATOM      4  C   UNL     1       3.350   4.105  20.325  0.00  0.00    +0.000 C 
ATOM      5  C   UNL     1       3.401   5.128  19.456  0.00  0.00    +0.000 C 
ATOM      6  C   UNL     1       2.457   6.224  19.623  0.00  0.00    +0.000 C 
ATOM      7  C   UNL     1       2.450   7.249  18.764  0.00  0.00    +0.000 C 
ATOM      8  C   UNL     1       3.447   7.282  17.712  0.00  0.00    +0.000 C 
ATOM      9  C   UNL     1       4.186   6.188  17.430  0.00  0.00    +0.000 C 
ATOM     10  N   UNL     1       4.017   4.994  18.191  0.00  0.00    +0.000 N 
ATOM     11  C   UNL     1       4.212   3.613  17.674  0.00  0.00    +0.000 C 
ENDROOT
BRANCH   9  12
ATOM     12  C   UNL     1       5.341   6.552  16.517  0.00  0.00    +0.000 C 
ATOM     13  O   UNL     1       5.092   6.977  15.378  0.00  0.00    +0.000 OA
BRANCH  12  14
ATOM     14  C   UNL     1       6.797   6.349  16.873  0.00  0.00    +0.000 C 
BRANCH  14  15
ATOM     15  C   UNL     1       7.164   4.883  16.579  0.00  0.00    +0.000 C 
BRANCH  15  16
ATOM     16  C   UNL     1       7.119   4.648  15.087  0.00  0.00    +0.000 C 
ATOM     17  O   UNL     1       7.736   5.342  14.283  0.00  0.00    +0.000 OA
ATOM     18  N   UNL     1       6.364   3.583  14.676  0.00  0.00    +0.000 N 
ATOM     19  H   UNL     1       5.786   2.992  15.263  0.00  0.00    +0.000 HD
BRANCH  18  20
ATOM     20  O   UNL     1       6.271   3.405  13.277  0.00  0.00    +0.000 OA
ATOM     21  H   UNL     1       5.435   3.876  13.064  0.00  0.00    +0.000 HD
ENDBRANCH  18  20
ENDBRANCH  15  16
ENDBRANCH  14  15
ENDBRANCH  12  14
ENDBRANCH   9  12
TORSDOF 5
ENDMDL
