MODEL 1
REMARK VINA RESULT:      -8.4      0.000      0.000
REMARK  Name = 
REMARK  3 active torsions:
REMARK  status: ('A' for Active; 'I' for Inactive)
REMARK    1  A    between atoms: N_1  and  C_2
REMARK    2  A    between atoms: C_5  and  N_6
REMARK    3  A    between atoms: C_10  and  C_11
REMARK                            x       y       z     vdW  Elec       q    Type
REMARK                         _______ _______ _______ _____ _____    ______ ____
ROOT
ATOM      1  N   UNL     1       3.758   5.147  19.266  0.00  0.00    +0.000 N 
ATOM      2  C   UNL     1       3.776   3.869  19.773  0.00  0.00    +0.000 A 
ATOM      3  C   UNL     1       2.648   3.762  20.542  0.00  0.00    +0.000 A 
ATOM      4  N   UNL     1       1.949   4.935  20.531  0.00  0.00    +0.000 NA
ATOM      5  C   UNL     1       2.604   5.762  19.725  0.00  0.00    +0.000 A 
ENDROOT
BRANCH   5   6
ATOM      6  C   UNL     1       2.169   7.129  19.418  0.00  0.00    +0.000 A 
ATOM      7  C   UNL     1       2.292   7.642  18.139  0.00  0.00    +0.000 A 
ATOM      8  C   UNL     1       1.854   8.940  17.904  0.00  0.00    +0.000 A 
ATOM      9  C   UNL     1       1.316   9.698  18.951  0.00  0.00    +0.000 A 
ATOM     10  C   UNL     1       0.863  11.011  18.736  0.00  0.00    +0.000 A 
ATOM     11  C   UNL     1       0.332  11.760  19.783  0.00  0.00    +0.000 A 
ATOM     12  C   UNL     1       0.245  11.197  21.051  0.00  0.00    +0.000 A 
ATOM     13  C   UNL     1       0.692   9.891  21.264  0.00  0.00    +0.000 A 
ATOM     14 CL   UNL     1       0.532   9.244  22.867  0.00  0.00    +0.000 Cl
ATOM     15  C   UNL     1       1.240   9.112  20.234  0.00  0.00    +0.000 A 
ATOM     16  N   UNL     1       1.669   7.848  20.449  0.00  0.00    +0.000 NA
ENDBRANCH   5   6
BRANCH   1  20
ATOM     17  C   UNL     1       7.340   5.587  16.862  0.00  0.00    +0.000 C 
ATOM     18  C   UNL     1       5.971   5.770  16.194  0.00  0.00    +0.000 C 
ATOM     19  C   UNL     1       4.822   5.190  17.020  0.00  0.00    +0.000 C 
ATOM     20  C   UNL     1       4.832   5.727  18.461  0.00  0.00    +0.000 C 
ATOM     21  C   UNL     1       6.199   5.567  19.146  0.00  0.00    +0.000 C 
ATOM     22  C   UNL     1       7.324   6.150  18.288  0.00  0.00    +0.000 C 
BRANCH  17  23
ATOM     23  N   UNL     1       7.742   4.180  16.875  0.00  0.00    +0.000 NA
ATOM     24  H   UNL     1       8.310   3.993  17.702  0.00  0.00    +0.000 HD
ATOM     25  H   UNL     1       8.331   3.957  16.075  0.00  0.00    +0.000 HD
ENDBRANCH  17  23
ENDBRANCH   1  20
TORSDOF 3
ENDMDL
MODEL 2
REMARK VINA RESULT:      -7.5      1.271      1.862
REMARK  Name = 
REMARK  3 active torsions:
REMARK  status: ('A' for Active; 'I' for Inactive)
REMARK    1  A    between atoms: N_1  and  C_2
REMARK    2  A    between atoms: C_5  and  N_6
REMARK    3  A    between atoms: C_10  and  C_11
REMARK                            x       y       z     vdW  Elec       q    Type
REMARK                         _______ _______ _______ _____ _____    ______ ____
ROOT
ATOM      1  N   UNL     1       4.259   3.753  19.446  0.00  0.00    +0.000 N 
ATOM      2  C   UNL     1       4.105   2.547  20.089  0.00  0.00    +0.000 A 
ATOM      3  C   UNL     1       2.865   2.594  20.668  0.00  0.00    +0.000 A 
ATOM      4  N   UNL     1       2.263   3.792  20.411  0.00  0.00    +0.000 NA
ATOM      5  C   UNL     1       3.095   4.480  19.637  0.00  0.00    +0.000 A 
ENDROOT
BRANCH   5   6
ATOM      6  C   UNL     1       2.812   5.820  19.112  0.00  0.00    +0.000 A 
ATOM      7  C   UNL     1       3.153   6.159  17.814  0.00  0.00    +0.000 A 
ATOM      8  C   UNL     1       2.853   7.441  17.367  0.00  0.00    +0.000 A 
ATOM      9  C   UNL     1       2.232   8.356  18.228  0.00  0.00    +0.000 A 
ATOM     10  C   UNL     1       1.916   9.655  17.797  0.00  0.00    +0.000 A 
ATOM     11  C   UNL     1       1.302  10.560  18.658  0.00  0.00    +0.000 A 
ATOM     12  C   UNL     1       0.995  10.168  19.956  0.00  0.00    +0.000 A 
ATOM     13  C   UNL     1       1.307   8.874  20.384  0.00  0.00    +0.000 A 
ATOM     14 CL   UNL     1       0.874   8.446  22.010  0.00  0.00    +0.000 Cl
ATOM     15  C   UNL     1       1.933   7.941  19.545  0.00  0.00    +0.000 A 
ATOM     16  N   UNL     1       2.229   6.691  19.967  0.00  0.00    +0.000 NA
ENDBRANCH   5   6
BRANCH   1  20
ATOM     17  C   UNL     1       7.101   6.015  17.077  0.00  0.00    +0.000 C 
ATOM     18  C   UNL     1       7.290   5.948  18.598  0.00  0.00    +0.000 C 
ATOM     19  C   UNL     1       6.030   5.494  19.336  0.00  0.00    +0.000 C 
ATOM     20  C   UNL     1       5.486   4.173  18.770  0.00  0.00    +0.000 C 
ATOM     21  C   UNL     1       5.302   4.210  17.244  0.00  0.00    +0.000 C 
ATOM     22  C   UNL     1       6.578   4.677  16.540  0.00  0.00    +0.000 C 
BRANCH  17  23
ATOM     23  N   UNL     1       6.198   7.102  16.700  0.00  0.00    +0.000 NA
ATOM     24  H   UNL     1       5.879   6.966  15.740  0.00  0.00    +0.000 HD
ATOM     25  H   UNL     1       6.679   8.000  16.708  0.00  0.00    +0.000 HD
ENDBRANCH  17  23
ENDBRANCH   1  20
TORSDOF 3
ENDMDL
MODEL 3
REMARK VINA RESULT:      -7.3      2.609      7.191
REMARK  Name = 
REMARK  3 active torsions:
REMARK  status: ('A' for Active; 'I' for Inactive)
REMARK    1  A    between atoms: N_1  and  C_2
REMARK    2  A    between atoms: C_5  and  N_6
REMARK    3  A    between atoms: C_10  and  C_11
REMARK                            x       y       z     vdW  Elec       q    Type
REMARK                         _______ _______ _______ _____ _____    ______ ____
ROOT
ATOM      1  N   UNL     1       0.063  10.061  20.632  0.00  0.00    +0.000 N 
ATOM      2  C   UNL     1      -0.425  10.576  21.810  0.00  0.00    +0.000 A 
ATOM      3  C   UNL     1       0.100   9.790  22.801  0.00  0.00    +0.000 A 
ATOM      4  N   UNL     1       0.882   8.806  22.267  0.00  0.00    +0.000 NA
ATOM      5  C   UNL     1       0.889   8.995  20.953  0.00  0.00    +0.000 A 
ENDROOT
BRANCH   5   6
ATOM      6  C   UNL     1       1.637   8.161  20.006  0.00  0.00    +0.000 A 
ATOM      7  C   UNL     1       2.077   8.678  18.800  0.00  0.00    +0.000 A 
ATOM      8  C   UNL     1       2.789   7.844  17.946  0.00  0.00    +0.000 A 
ATOM      9  C   UNL     1       3.034   6.513  18.308  0.00  0.00    +0.000 A 
ATOM     10  C   UNL     1       3.754   5.653  17.463  0.00  0.00    +0.000 A 
ATOM     11  C   UNL     1       3.990   4.330  17.828  0.00  0.00    +0.000 A 
ATOM     12  C   UNL     1       3.512   3.862  19.046  0.00  0.00    +0.000 A 
ATOM     13  C   UNL     1       2.798   4.719  19.889  0.00  0.00    +0.000 A 
ATOM     14 CL   UNL     1       2.250   4.072  21.404  0.00  0.00    +0.000 Cl
ATOM     15  C   UNL     1       2.535   6.053  19.548  0.00  0.00    +0.000 A 
ATOM     16  N   UNL     1       1.845   6.875  20.370  0.00  0.00    +0.000 NA
ENDBRANCH   5   6
BRANCH   1  20
ATOM     17  C   UNL     1      -2.226  11.709  17.338  0.00  0.00    +0.000 C 
ATOM     18  C   UNL     1      -1.070  12.530  17.922  0.00  0.00    +0.000 C 
ATOM     19  C   UNL     1      -0.632  12.044  19.305  0.00  0.00    +0.000 C 
ATOM     20  C   UNL     1      -0.320  10.539  19.305  0.00  0.00    +0.000 C 
ATOM     21  C   UNL     1      -1.459   9.696  18.709  0.00  0.00    +0.000 C 
ATOM     22  C   UNL     1      -1.877  10.215  17.332  0.00  0.00    +0.000 C 
BRANCH  17  23
ATOM     23  N   UNL     1      -3.468  11.937  18.077  0.00  0.00    +0.000 NA
ATOM     24  H   UNL     1      -4.252  11.979  17.426  0.00  0.00    +0.000 HD
ATOM     25  H   UNL     1      -3.453  12.838  18.552  0.00  0.00    +0.000 HD
ENDBRANCH  17  23
ENDBRANCH   1  20
TORSDOF 3
ENDMDL
MODEL 4
REMARK VINA RESULT:      -7.2      2.138      3.751
REMARK  Name = 
REMARK  3 active torsions:
REMARK  status: ('A' for Active; 'I' for Inactive)
REMARK    1  A    between atoms: N_1  and  C_2
REMARK    2  A    between atoms: C_5  and  N_6
REMARK    3  A    between atoms: C_10  and  C_11
REMARK                            x       y       z     vdW  Elec       q    Type
REMARK                         _______ _______ _______ _____ _____    ______ ____
ROOT
ATOM      1  N   UNL     1       3.857   5.485  17.811  0.00  0.00    +0.000 N 
ATOM      2  C   UNL     1       4.739   5.455  16.756  0.00  0.00    +0.000 A 
ATOM      3  C   UNL     1       4.850   6.752  16.332  0.00  0.00    +0.000 A 
ATOM      4  N   UNL     1       4.056   7.571  17.084  0.00  0.00    +0.000 NA
ATOM      5  C   UNL     1       3.484   6.805  18.006  0.00  0.00    +0.000 A 
ENDROOT
BRANCH   5   6
ATOM      6  C   UNL     1       2.568   7.306  19.037  0.00  0.00    +0.000 A 
ATOM      7  C   UNL     1       2.152   6.487  20.072  0.00  0.00    +0.000 A 
ATOM      8  C   UNL     1       1.291   7.017  21.026  0.00  0.00    +0.000 A 
ATOM      9  C   UNL     1       0.857   8.345  20.918  0.00  0.00    +0.000 A 
ATOM     10  C   UNL     1      -0.011   8.902  21.872  0.00  0.00    +0.000 A 
ATOM     11  C   UNL     1      -0.441  10.222  21.757  0.00  0.00    +0.000 A 
ATOM     12  C   UNL     1       0.000  10.993  20.688  0.00  0.00    +0.000 A 
ATOM     13  C   UNL     1       0.865  10.439  19.740  0.00  0.00    +0.000 A 
ATOM     14 CL   UNL     1       1.393  11.467  18.444  0.00  0.00    +0.000 Cl
ATOM     15  C   UNL     1       1.311   9.112  19.822  0.00  0.00    +0.000 A 
ATOM     16  N   UNL     1       2.149   8.584  18.901  0.00  0.00    +0.000 NA
ENDBRANCH   5   6
BRANCH   1  20
ATOM     17  C   UNL     1       3.256   1.366  19.026  0.00  0.00    +0.000 C 
ATOM     18  C   UNL     1       3.989   2.320  19.977  0.00  0.00    +0.000 C 
ATOM     19  C   UNL     1       4.495   3.584  19.280  0.00  0.00    +0.000 C 
ATOM     20  C   UNL     1       3.371   4.296  18.510  0.00  0.00    +0.000 C 
ATOM     21  C   UNL     1       2.611   3.356  17.561  0.00  0.00    +0.000 C 
ATOM     22  C   UNL     1       2.128   2.100  18.289  0.00  0.00    +0.000 C 
BRANCH  17  23
ATOM     23  N   UNL     1       4.178   0.757  18.067  0.00  0.00    +0.000 NA
ATOM     24  H   UNL     1       4.419  -0.186  18.373  0.00  0.00    +0.000 HD
ATOM     25  H   UNL     1       5.057   1.269  18.026  0.00  0.00    +0.000 HD
ENDBRANCH  17  23
ENDBRANCH   1  20
TORSDOF 3
ENDMDL
MODEL 5
REMARK VINA RESULT:      -7.2      2.171      3.858
REMARK  Name = 
REMARK  3 active torsions:
REMARK  status: ('A' for Active; 'I' for Inactive)
REMARK    1  A    between atoms: N_1  and  C_2
REMARK    2  A    between atoms: C_5  and  N_6
REMARK    3  A    between atoms: C_10  and  C_11
REMARK                            x       y       z     vdW  Elec       q    Type
REMARK                         _______ _______ _______ _____ _____    ______ ____
ROOT
ATOM      1  N   UNL     1       4.521   5.186  17.063  0.00  0.00    +0.000 N 
ATOM      2  C   UNL     1       5.481   4.795  16.160  0.00  0.00    +0.000 A 
ATOM      3  C   UNL     1       5.806   5.925  15.456  0.00  0.00    +0.000 A 
ATOM      4  N   UNL     1       5.068   6.988  15.891  0.00  0.00    +0.000 NA
ATOM      5  C   UNL     1       4.316   6.546  16.892  0.00  0.00    +0.000 A 
ENDROOT
BRANCH   5   6
ATOM      6  C   UNL     1       3.388   7.387  17.657  0.00  0.00    +0.000 A 
ATOM      7  C   UNL     1       3.067   8.662  17.226  0.00  0.00    +0.000 A 
ATOM      8  C   UNL     1       2.175   9.410  17.985  0.00  0.00    +0.000 A 
ATOM      9  C   UNL     1       1.635   8.874  19.161  0.00  0.00    +0.000 A 
ATOM     10  C   UNL     1       0.729   9.610  19.943  0.00  0.00    +0.000 A 
ATOM     11  C   UNL     1       0.198   9.072  21.112  0.00  0.00    +0.000 A 
ATOM     12  C   UNL     1       0.567   7.790  21.504  0.00  0.00    +0.000 A 
ATOM     13  C   UNL     1       1.466   7.057  20.725  0.00  0.00    +0.000 A 
ATOM     14 CL   UNL     1       1.865   5.455  21.262  0.00  0.00    +0.000 Cl
ATOM     15  C   UNL     1       2.026   7.572  19.546  0.00  0.00    +0.000 A 
ATOM     16  N   UNL     1       2.894   6.854  18.798  0.00  0.00    +0.000 NA
ENDBRANCH   5   6
BRANCH   1  20
ATOM     17  C   UNL     1       3.210   1.585  19.094  0.00  0.00    +0.000 C 
ATOM     18  C   UNL     1       4.037   2.617  19.872  0.00  0.00    +0.000 C 
ATOM     19  C   UNL     1       4.773   3.602  18.962  0.00  0.00    +0.000 C 
ATOM     20  C   UNL     1       3.817   4.272  17.961  0.00  0.00    +0.000 C 
ATOM     21  C   UNL     1       2.967   3.258  17.179  0.00  0.00    +0.000 C 
ATOM     22  C   UNL     1       2.253   2.285  18.120  0.00  0.00    +0.000 C 
BRANCH  17  23
ATOM     23  N   UNL     1       4.072   0.647  18.373  0.00  0.00    +0.000 NA
ATOM     24  H   UNL     1       5.050   0.896  18.523  0.00  0.00    +0.000 HD
ATOM     25  H   UNL     1       3.921   0.706  17.368  0.00  0.00    +0.000 HD
ENDBRANCH  17  23
ENDBRANCH   1  20
TORSDOF 3
ENDMDL
MODEL 6
REMARK VINA RESULT:      -7.1      2.362      4.082
REMARK  Name = 
REMARK  3 active torsions:
REMARK  status: ('A' for Active; 'I' for Inactive)
REMARK    1  A    between atoms: N_1  and  C_2
REMARK    2  A    between atoms: C_5  and  N_6
REMARK    3  A    between atoms: C_10  and  C_11
REMARK                            x       y       z     vdW  Elec       q    Type
REMARK                         _______ _______ _______ _____ _____    ______ ____
ROOT
ATOM      1  N   UNL     1       2.899   6.056  18.374  0.00  0.00    +0.000 N 
ATOM      2  C   UNL     1       3.780   5.927  17.327  0.00  0.00    +0.000 A 
ATOM      3  C   UNL     1       4.094   7.205  16.950  0.00  0.00    +0.000 A 
ATOM      4  N   UNL     1       3.425   8.110  17.723  0.00  0.00    +0.000 NA
ATOM      5  C   UNL     1       2.729   7.411  18.613  0.00  0.00    +0.000 A 
ENDROOT
BRANCH   5   6
ATOM      6  C   UNL     1       1.886   8.010  19.653  0.00  0.00    +0.000 A 
ATOM      7  C   UNL     1       1.603   7.323  20.819  0.00  0.00    +0.000 A 
ATOM      8  C   UNL     1       0.806   7.943  21.775  0.00  0.00    +0.000 A 
ATOM      9  C   UNL     1       0.302   9.228  21.538  0.00  0.00    +0.000 A 
ATOM     10  C   UNL     1      -0.503   9.877  22.489  0.00  0.00    +0.000 A 
ATOM     11  C   UNL     1      -1.004  11.153  22.246  0.00  0.00    +0.000 A 
ATOM     12  C   UNL     1      -0.697  11.791  21.050  0.00  0.00    +0.000 A 
ATOM     13  C   UNL     1       0.105  11.147  20.104  0.00  0.00    +0.000 A 
ATOM     14 CL   UNL     1       0.466  12.012  18.642  0.00  0.00    +0.000 Cl
ATOM     15  C   UNL     1       0.619   9.859  20.313  0.00  0.00    +0.000 A 
ATOM     16  N   UNL     1       1.396   9.244  19.393  0.00  0.00    +0.000 NA
ENDBRANCH   5   6
BRANCH   1  20
ATOM     17  C   UNL     1       1.749   2.037  19.528  0.00  0.00    +0.000 C 
ATOM     18  C   UNL     1       2.496   2.914  20.540  0.00  0.00    +0.000 C 
ATOM     19  C   UNL     1       3.196   4.110  19.892  0.00  0.00    +0.000 C 
ATOM     20  C   UNL     1       2.227   4.933  19.027  0.00  0.00    +0.000 C 
ATOM     21  C   UNL     1       1.456   4.072  18.014  0.00  0.00    +0.000 C 
ATOM     22  C   UNL     1       0.777   2.882  18.695  0.00  0.00    +0.000 C 
BRANCH  17  23
ATOM     23  N   UNL     1       2.681   1.324  18.653  0.00  0.00    +0.000 NA
ATOM     24  H   UNL     1       2.158   0.754  17.987  0.00  0.00    +0.000 HD
ATOM     25  H   UNL     1       3.259   0.674  19.182  0.00  0.00    +0.000 HD
ENDBRANCH  17  23
ENDBRANCH   1  20
TORSDOF 3
ENDMDL
MODEL 7
REMARK VINA RESULT:      -7.1      1.919      3.861
REMARK  Name = 
REMARK  3 active torsions:
REMARK  status: ('A' for Active; 'I' for Inactive)
REMARK    1  A    between atoms: N_1  and  C_2
REMARK    2  A    between atoms: C_5  and  N_6
REMARK    3  A    between atoms: C_10  and  C_11
REMARK                            x       y       z     vdW  Elec       q    Type
REMARK                         _______ _______ _______ _____ _____    ______ ____
ROOT
ATOM      1  N   UNL     1       3.091   6.107  18.142  0.00  0.00    +0.000 N 
ATOM      2  C   UNL     1       4.276   5.639  17.626  0.00  0.00    +0.000 A 
ATOM      3  C   UNL     1       4.923   6.741  17.131  0.00  0.00    +0.000 A 
ATOM      4  N   UNL     1       4.167   7.862  17.317  0.00  0.00    +0.000 NA
ATOM      5  C   UNL     1       3.073   7.482  17.966  0.00  0.00    +0.000 A 
ENDROOT
BRANCH   5   6
ATOM      6  C   UNL     1       2.004   8.396  18.384  0.00  0.00    +0.000 A 
ATOM      7  C   UNL     1       1.173   8.989  17.449  0.00  0.00    +0.000 A 
ATOM      8  C   UNL     1       0.172   9.840  17.903  0.00  0.00    +0.000 A 
ATOM      9  C   UNL     1       0.031  10.088  19.274  0.00  0.00    +0.000 A 
ATOM     10  C   UNL     1      -0.975  10.941  19.756  0.00  0.00    +0.000 A 
ATOM     11  C   UNL     1      -1.108  11.186  21.121  0.00  0.00    +0.000 A 
ATOM     12  C   UNL     1      -0.236  10.572  22.012  0.00  0.00    +0.000 A 
ATOM     13  C   UNL     1       0.764   9.721  21.533  0.00  0.00    +0.000 A 
ATOM     14 CL   UNL     1       1.803   8.972  22.705  0.00  0.00    +0.000 Cl
ATOM     15  C   UNL     1       0.930   9.460  20.165  0.00  0.00    +0.000 A 
ATOM     16  N   UNL     1       1.899   8.634  19.711  0.00  0.00    +0.000 NA
ENDBRANCH   5   6
BRANCH   1  20
ATOM     17  C   UNL     1       1.030   2.790  20.027  0.00  0.00    +0.000 C 
ATOM     18  C   UNL     1       1.116   4.129  20.771  0.00  0.00    +0.000 C 
ATOM     19  C   UNL     1       2.196   5.055  20.209  0.00  0.00    +0.000 C 
ATOM     20  C   UNL     1       2.040   5.253  18.692  0.00  0.00    +0.000 C 
ATOM     21  C   UNL     1       1.935   3.924  17.926  0.00  0.00    +0.000 C 
ATOM     22  C   UNL     1       0.854   3.021  18.521  0.00  0.00    +0.000 C 
BRANCH  17  23
ATOM     23  N   UNL     1       2.210   1.963  20.280  0.00  0.00    +0.000 NA
ATOM     24  H   UNL     1       2.418   1.400  19.455  0.00  0.00    +0.000 HD
ATOM     25  H   UNL     1       2.040   1.300  21.034  0.00  0.00    +0.000 HD
ENDBRANCH  17  23
ENDBRANCH   1  20
TORSDOF 3
ENDMDL
MODEL 8
REMARK VINA RESULT:      -7.0      3.409      7.998
REMARK  Name = 
REMARK  3 active torsions:
REMARK  status: ('A' for Active; 'I' for Inactive)
REMARK    1  A    between atoms: N_1  and  C_2
REMARK    2  A    between atoms: C_5  and  N_6
REMARK    3  A    between atoms: C_10  and  C_11
REMARK                            x       y       z     vdW  Elec       q    Type
REMARK                         _______ _______ _______ _____ _____    ______ ____
ROOT
ATOM      1  N   UNL     1      -0.242  11.750  18.813  0.00  0.00    +0.000 N 
ATOM      2  C   UNL     1       0.044  13.049  18.467  0.00  0.00    +0.000 A 
ATOM      3  C   UNL     1       1.364  13.233  18.783  0.00  0.00    +0.000 A 
ATOM      4  N   UNL     1       1.889  12.093  19.322  0.00  0.00    +0.000 NA
ATOM      5  C   UNL     1       0.923  11.182  19.304  0.00  0.00    +0.000 A 
ENDROOT
BRANCH   5   6
ATOM      6  C   UNL     1       1.084   9.803  19.776  0.00  0.00    +0.000 A 
ATOM      7  C   UNL     1       0.464   9.374  20.936  0.00  0.00    +0.000 A 
ATOM      8  C   UNL     1       0.644   8.053  21.331  0.00  0.00    +0.000 A 
ATOM      9  C   UNL     1       1.448   7.197  20.568  0.00  0.00    +0.000 A 
ATOM     10  C   UNL     1       1.642   5.858  20.945  0.00  0.00    +0.000 A 
ATOM     11  C   UNL     1       2.445   5.013  20.183  0.00  0.00    +0.000 A 
ATOM     12  C   UNL     1       3.054   5.503  19.034  0.00  0.00    +0.000 A 
ATOM     13  C   UNL     1       2.859   6.835  18.657  0.00  0.00    +0.000 A 
ATOM     14 CL   UNL     1       3.633   7.372  17.198  0.00  0.00    +0.000 Cl
ATOM     15  C   UNL     1       2.064   7.714  19.406  0.00  0.00    +0.000 A 
ATOM     16  N   UNL     1       1.879   9.000  19.032  0.00  0.00    +0.000 NA
ENDBRANCH   5   6
BRANCH   1  20
ATOM     17  C   UNL     1      -4.264  10.785  17.511  0.00  0.00    +0.000 C 
ATOM     18  C   UNL     1      -3.162   9.729  17.359  0.00  0.00    +0.000 C 
ATOM     19  C   UNL     1      -1.754  10.319  17.455  0.00  0.00    +0.000 C 
ATOM     20  C   UNL     1      -1.574  11.152  18.734  0.00  0.00    +0.000 C 
ATOM     21  C   UNL     1      -2.677  12.208  18.916  0.00  0.00    +0.000 C 
ATOM     22  C   UNL     1      -4.069  11.585  18.805  0.00  0.00    +0.000 C 
BRANCH  17  23
ATOM     23  N   UNL     1      -4.302  11.685  16.357  0.00  0.00    +0.000 NA
ATOM     24  H   UNL     1      -4.494  11.149  15.510  0.00  0.00    +0.000 HD
ATOM     25  H   UNL     1      -3.398  12.128  16.206  0.00  0.00    +0.000 HD
ENDBRANCH  17  23
ENDBRANCH   1  20
TORSDOF 3
ENDMDL
MODEL 9
REMARK VINA RESULT:      -7.0      2.681      7.145
REMARK  Name = 
REMARK  3 active torsions:
REMARK  status: ('A' for Active; 'I' for Inactive)
REMARK    1  A    between atoms: N_1  and  C_2
REMARK    2  A    between atoms: C_5  and  N_6
REMARK    3  A    between atoms: C_10  and  C_11
REMARK                            x       y       z     vdW  Elec       q    Type
REMARK                         _______ _______ _______ _____ _____    ______ ____
ROOT
ATOM      1  N   UNL     1       0.191  10.189  21.029  0.00  0.00    +0.000 N 
ATOM      2  C   UNL     1      -0.396  10.583  22.209  0.00  0.00    +0.000 A 
ATOM      3  C   UNL     1      -0.220   9.537  23.075  0.00  0.00    +0.000 A 
ATOM      4  N   UNL     1       0.442   8.513  22.460  0.00  0.00    +0.000 NA
ATOM      5  C   UNL     1       0.725   8.926  21.230  0.00  0.00    +0.000 A 
ENDROOT
BRANCH   5   6
ATOM      6  C   UNL     1       1.458   8.126  20.242  0.00  0.00    +0.000 A 
ATOM      7  C   UNL     1       1.846   8.676  19.033  0.00  0.00    +0.000 A 
ATOM      8  C   UNL     1       2.547   7.875  18.139  0.00  0.00    +0.000 A 
ATOM      9  C   UNL     1       2.833   6.543  18.467  0.00  0.00    +0.000 A 
ATOM     10  C   UNL     1       3.543   5.716  17.581  0.00  0.00    +0.000 A 
ATOM     11  C   UNL     1       3.821   4.392  17.913  0.00  0.00    +0.000 A 
ATOM     12  C   UNL     1       3.394   3.890  19.137  0.00  0.00    +0.000 A 
ATOM     13  C   UNL     1       2.691   4.714  20.019  0.00  0.00    +0.000 A 
ATOM     14 CL   UNL     1       2.208   4.027  21.539  0.00  0.00    +0.000 Cl
ATOM     15  C   UNL     1       2.387   6.049  19.714  0.00  0.00    +0.000 A 
ATOM     16  N   UNL     1       1.707   6.839  20.574  0.00  0.00    +0.000 NA
ENDBRANCH   5   6
BRANCH   1  20
ATOM     17  C   UNL     1      -0.417  13.419  18.200  0.00  0.00    +0.000 C 
ATOM     18  C   UNL     1       1.017  13.020  18.575  0.00  0.00    +0.000 C 
ATOM     19  C   UNL     1       1.089  12.188  19.856  0.00  0.00    +0.000 C 
ATOM     20  C   UNL     1       0.155  10.968  19.793  0.00  0.00    +0.000 C 
ATOM     21  C   UNL     1      -1.285  11.341  19.404  0.00  0.00    +0.000 C 
ATOM     22  C   UNL     1      -1.318  12.180  18.125  0.00  0.00    +0.000 C 
BRANCH  17  23
ATOM     23  N   UNL     1      -0.964  14.389  19.148  0.00  0.00    +0.000 NA
ATOM     24  H   UNL     1      -1.109  15.284  18.678  0.00  0.00    +0.000 HD
ATOM     25  H   UNL     1      -0.309  14.576  19.904  0.00  0.00    +0.000 HD
ENDBRANCH  17  23
ENDBRANCH   1  20
TORSDOF 3
ENDMDL
