MODEL 1
REMARK VINA RESULT:      -8.2      0.000      0.000
REMARK  Name = 
REMARK  4 active torsions:
REMARK  status: ('A' for Active; 'I' for Inactive)
REMARK    1  A    between atoms: O_1  and  C_2
REMARK    2  A    between atoms: C_10  and  O_11
REMARK    3  A    between atoms: C_10  and  C_12
REMARK    4  A    between atoms: C_17  and  O_18
REMARK                            x       y       z     vdW  Elec       q    Type
REMARK                         _______ _______ _______ _____ _____    ______ ____
ROOT
ATOM      1  C   UNL     1       7.138   5.146  14.507  0.00  0.00    +0.000 A 
ATOM      2  C   UNL     1       6.344   4.079  14.099  0.00  0.00    +0.000 A 
ATOM      3  C   UNL     1       5.383   3.567  14.973  0.00  0.00    +0.000 A 
ATOM      4  C   UNL     1       5.218   4.121  16.252  0.00  0.00    +0.000 A 
ATOM      5  C   UNL     1       5.998   5.222  16.627  0.00  0.00    +0.000 A 
ATOM      6  C   UNL     1       6.970   5.720  15.761  0.00  0.00    +0.000 A 
ATOM      7  O   UNL     1       5.905   5.849  17.839  0.00  0.00    +0.000 OA
ATOM      8  C   UNL     1       4.782   5.469  18.648  0.00  0.00    +0.000 C 
ATOM      9  C   UNL     1       4.504   3.950  18.661  0.00  0.00    +0.000 C 
ATOM     10  C   UNL     1       4.222   3.514  17.210  0.00  0.00    +0.000 C 
ENDROOT
BRANCH   9  11
ATOM     11  C   UNL     1       3.327   3.613  19.599  0.00  0.00    +0.000 A 
ATOM     12  C   UNL     1       2.070   4.224  19.386  0.00  0.00    +0.000 A 
ATOM     13  C   UNL     1       0.972   3.951  20.208  0.00  0.00    +0.000 A 
ATOM     14  C   UNL     1       1.094   3.055  21.264  0.00  0.00    +0.000 A 
ATOM     15  C   UNL     1       2.315   2.437  21.503  0.00  0.00    +0.000 A 
ATOM     16  C   UNL     1       3.412   2.723  20.683  0.00  0.00    +0.000 A 
BRANCH  16  17
ATOM     17  O   UNL     1       4.612   2.125  20.973  0.00  0.00    +0.000 OA
ATOM     18  H   UNL     1       5.277   2.429  20.330  0.00  0.00    +0.000 HD
ENDBRANCH  16  17
ENDBRANCH   9  11
BRANCH   1  19
ATOM     19  O   UNL     1       8.107   5.659  13.696  0.00  0.00    +0.000 OA
ATOM     20  H   UNL     1       7.697   5.942  12.864  0.00  0.00    +0.000 HD
ENDBRANCH   1  19
BRANCH   9  21
ATOM     21  O   UNL     1       5.731   3.297  19.050  0.00  0.00    +0.000 OA
ATOM     22  H   UNL     1       5.493   2.481  19.530  0.00  0.00    +0.000 HD
ENDBRANCH   9  21
TORSDOF 4
ENDMDL
MODEL 2
REMARK VINA RESULT:      -7.7      1.005      1.568
REMARK  Name = 
REMARK  4 active torsions:
REMARK  status: ('A' for Active; 'I' for Inactive)
REMARK    1  A    between atoms: O_1  and  C_2
REMARK    2  A    between atoms: C_10  and  O_11
REMARK    3  A    between atoms: C_10  and  C_12
REMARK    4  A    between atoms: C_17  and  O_18
REMARK                            x       y       z     vdW  Elec       q    Type
REMARK                         _______ _______ _______ _____ _____    ______ ____
ROOT
ATOM      1  C   UNL     1       7.174   5.134  14.521  0.00  0.00    +0.000 A 
ATOM      2  C   UNL     1       6.341   4.113  14.075  0.00  0.00    +0.000 A 
ATOM      3  C   UNL     1       5.350   3.616  14.925  0.00  0.00    +0.000 A 
ATOM      4  C   UNL     1       5.196   4.140  16.218  0.00  0.00    +0.000 A 
ATOM      5  C   UNL     1       6.016   5.198  16.632  0.00  0.00    +0.000 A 
ATOM      6  C   UNL     1       7.016   5.679  15.788  0.00  0.00    +0.000 A 
ATOM      7  O   UNL     1       5.936   5.794  17.859  0.00  0.00    +0.000 OA
ATOM      8  C   UNL     1       4.790   5.438  18.647  0.00  0.00    +0.000 C 
ATOM      9  C   UNL     1       4.450   3.932  18.615  0.00  0.00    +0.000 C 
ATOM     10  C   UNL     1       4.165   3.549  17.149  0.00  0.00    +0.000 C 
ENDROOT
BRANCH   9  11
ATOM     11  C   UNL     1       3.251   3.618  19.532  0.00  0.00    +0.000 A 
ATOM     12  C   UNL     1       3.442   2.813  20.677  0.00  0.00    +0.000 A 
ATOM     13  C   UNL     1       2.388   2.500  21.541  0.00  0.00    +0.000 A 
ATOM     14  C   UNL     1       1.111   2.989  21.290  0.00  0.00    +0.000 A 
ATOM     15  C   UNL     1       0.886   3.783  20.173  0.00  0.00    +0.000 A 
ATOM     16  C   UNL     1       1.944   4.083  19.307  0.00  0.00    +0.000 A 
BRANCH  16  17
ATOM     17  O   UNL     1       1.677   4.837  18.193  0.00  0.00    +0.000 OA
ATOM     18  H   UNL     1       1.660   5.776  18.448  0.00  0.00    +0.000 HD
ENDBRANCH  16  17
ENDBRANCH   9  11
BRANCH   1  19
ATOM     19  O   UNL     1       8.171   5.629  13.733  0.00  0.00    +0.000 OA
ATOM     20  H   UNL     1       7.823   5.758  12.837  0.00  0.00    +0.000 HD
ENDBRANCH   1  19
BRANCH   9  21
ATOM     21  O   UNL     1       5.645   3.218  18.996  0.00  0.00    +0.000 OA
ATOM     22  H   UNL     1       5.677   2.394  18.476  0.00  0.00    +0.000 HD
ENDBRANCH   9  21
TORSDOF 4
ENDMDL
MODEL 3
REMARK VINA RESULT:      -7.6      2.449      5.985
REMARK  Name = 
REMARK  4 active torsions:
REMARK  status: ('A' for Active; 'I' for Inactive)
REMARK    1  A    between atoms: O_1  and  C_2
REMARK    2  A    between atoms: C_10  and  O_11
REMARK    3  A    between atoms: C_10  and  C_12
REMARK    4  A    between atoms: C_17  and  O_18
REMARK                            x       y       z     vdW  Elec       q    Type
REMARK                         _______ _______ _______ _____ _____    ______ ____
ROOT
ATOM      1  C   UNL     1       1.276   2.369  18.865  0.00  0.00    +0.000 A 
ATOM      2  C   UNL     1       1.346   3.136  20.024  0.00  0.00    +0.000 A 
ATOM      3  C   UNL     1       2.364   4.084  20.157  0.00  0.00    +0.000 A 
ATOM      4  C   UNL     1       3.309   4.260  19.135  0.00  0.00    +0.000 A 
ATOM      5  C   UNL     1       3.195   3.508  17.959  0.00  0.00    +0.000 A 
ATOM      6  C   UNL     1       2.189   2.550  17.835  0.00  0.00    +0.000 A 
ATOM      7  O   UNL     1       4.047   3.616  16.895  0.00  0.00    +0.000 OA
ATOM      8  C   UNL     1       4.954   4.727  16.938  0.00  0.00    +0.000 C 
ATOM      9  C   UNL     1       5.587   4.967  18.326  0.00  0.00    +0.000 C 
ATOM     10  C   UNL     1       4.442   5.240  19.321  0.00  0.00    +0.000 C 
ENDROOT
BRANCH   9  11
ATOM     11  C   UNL     1       6.595   6.134  18.278  0.00  0.00    +0.000 A 
ATOM     12  C   UNL     1       6.477   7.114  17.267  0.00  0.00    +0.000 A 
ATOM     13  C   UNL     1       7.364   8.192  17.181  0.00  0.00    +0.000 A 
ATOM     14  C   UNL     1       8.392   8.326  18.107  0.00  0.00    +0.000 A 
ATOM     15  C   UNL     1       8.538   7.381  19.114  0.00  0.00    +0.000 A 
ATOM     16  C   UNL     1       7.653   6.300  19.188  0.00  0.00    +0.000 A 
BRANCH  16  17
ATOM     17  O   UNL     1       7.851   5.364  20.171  0.00  0.00    +0.000 OA
ATOM     18  H   UNL     1       7.091   4.757  20.183  0.00  0.00    +0.000 HD
ENDBRANCH  16  17
ENDBRANCH   9  11
BRANCH   1  19
ATOM     19  O   UNL     1       0.315   1.415  18.705  0.00  0.00    +0.000 OA
ATOM     20  H   UNL     1       0.336   1.106  17.787  0.00  0.00    +0.000 HD
ENDBRANCH   1  19
BRANCH   9  21
ATOM     21  O   UNL     1       6.195   3.724  18.737  0.00  0.00    +0.000 OA
ATOM     22  H   UNL     1       6.607   3.321  17.950  0.00  0.00    +0.000 HD
ENDBRANCH   9  21
TORSDOF 4
ENDMDL
MODEL 4
REMARK VINA RESULT:      -7.3      1.307      6.391
REMARK  Name = 
REMARK  4 active torsions:
REMARK  status: ('A' for Active; 'I' for Inactive)
REMARK    1  A    between atoms: O_1  and  C_2
REMARK    2  A    between atoms: C_10  and  O_11
REMARK    3  A    between atoms: C_10  and  C_12
REMARK    4  A    between atoms: C_17  and  O_18
REMARK                            x       y       z     vdW  Elec       q    Type
REMARK                         _______ _______ _______ _____ _____    ______ ____
ROOT
ATOM      1  C   UNL     1       1.557   2.905  20.861  0.00  0.00    +0.000 A 
ATOM      2  C   UNL     1       0.789   2.965  19.703  0.00  0.00    +0.000 A 
ATOM      3  C   UNL     1       1.409   3.248  18.483  0.00  0.00    +0.000 A 
ATOM      4  C   UNL     1       2.794   3.471  18.425  0.00  0.00    +0.000 A 
ATOM      5  C   UNL     1       3.555   3.363  19.596  0.00  0.00    +0.000 A 
ATOM      6  C   UNL     1       2.931   3.099  20.815  0.00  0.00    +0.000 A 
ATOM      7  O   UNL     1       4.909   3.539  19.648  0.00  0.00    +0.000 OA
ATOM      8  C   UNL     1       5.573   3.615  18.377  0.00  0.00    +0.000 C 
ATOM      9  C   UNL     1       4.829   4.472  17.331  0.00  0.00    +0.000 C 
ATOM     10  C   UNL     1       3.440   3.841  17.112  0.00  0.00    +0.000 C 
ENDROOT
BRANCH   9  11
ATOM     11  C   UNL     1       5.632   4.558  16.016  0.00  0.00    +0.000 A 
ATOM     12  C   UNL     1       5.148   3.903  14.861  0.00  0.00    +0.000 A 
ATOM     13  C   UNL     1       5.838   3.950  13.646  0.00  0.00    +0.000 A 
ATOM     14  C   UNL     1       7.029   4.660  13.546  0.00  0.00    +0.000 A 
ATOM     15  C   UNL     1       7.534   5.316  14.661  0.00  0.00    +0.000 A 
ATOM     16  C   UNL     1       6.844   5.255  15.877  0.00  0.00    +0.000 A 
BRANCH  16  17
ATOM     17  O   UNL     1       7.392   5.880  16.968  0.00  0.00    +0.000 OA
ATOM     18  H   UNL     1       7.751   5.204  17.569  0.00  0.00    +0.000 HD
ENDBRANCH  16  17
ENDBRANCH   9  11
BRANCH   1  19
ATOM     19  O   UNL     1       0.988   2.658  22.076  0.00  0.00    +0.000 OA
ATOM     20  H   UNL     1       0.962   1.700  22.217  0.00  0.00    +0.000 HD
ENDBRANCH   1  19
BRANCH   9  21
ATOM     21  O   UNL     1       4.598   5.766  17.927  0.00  0.00    +0.000 OA
ATOM     22  H   UNL     1       4.204   5.620  18.808  0.00  0.00    +0.000 HD
ENDBRANCH   9  21
TORSDOF 4
ENDMDL
MODEL 5
REMARK VINA RESULT:      -7.2      1.812      6.585
REMARK  Name = 
REMARK  4 active torsions:
REMARK  status: ('A' for Active; 'I' for Inactive)
REMARK    1  A    between atoms: O_1  and  C_2
REMARK    2  A    between atoms: C_10  and  O_11
REMARK    3  A    between atoms: C_10  and  C_12
REMARK    4  A    between atoms: C_17  and  O_18
REMARK                            x       y       z     vdW  Elec       q    Type
REMARK                         _______ _______ _______ _____ _____    ______ ____
ROOT
ATOM      1  C   UNL     1       2.611   5.622  19.933  0.00  0.00    +0.000 A 
ATOM      2  C   UNL     1       2.744   6.827  19.251  0.00  0.00    +0.000 A 
ATOM      3  C   UNL     1       3.411   6.849  18.023  0.00  0.00    +0.000 A 
ATOM      4  C   UNL     1       3.943   5.668  17.482  0.00  0.00    +0.000 A 
ATOM      5  C   UNL     1       3.760   4.459  18.164  0.00  0.00    +0.000 A 
ATOM      6  C   UNL     1       3.111   4.442  19.398  0.00  0.00    +0.000 A 
ATOM      7  O   UNL     1       4.218   3.251  17.717  0.00  0.00    +0.000 OA
ATOM      8  C   UNL     1       4.707   3.235  16.367  0.00  0.00    +0.000 C 
ATOM      9  C   UNL     1       5.580   4.455  16.002  0.00  0.00    +0.000 C 
ATOM     10  C   UNL     1       4.717   5.719  16.188  0.00  0.00    +0.000 C 
ENDROOT
BRANCH   9  11
ATOM     11  C   UNL     1       6.119   4.336  14.562  0.00  0.00    +0.000 A 
ATOM     12  C   UNL     1       5.442   3.518  13.631  0.00  0.00    +0.000 A 
ATOM     13  C   UNL     1       5.889   3.377  12.313  0.00  0.00    +0.000 A 
ATOM     14  C   UNL     1       7.024   4.055  11.885  0.00  0.00    +0.000 A 
ATOM     15  C   UNL     1       7.715   4.868  12.773  0.00  0.00    +0.000 A 
ATOM     16  C   UNL     1       7.268   4.996  14.093  0.00  0.00    +0.000 A 
BRANCH  16  17
ATOM     17  O   UNL     1       7.998   5.775  14.954  0.00  0.00    +0.000 OA
ATOM     18  H   UNL     1       7.776   6.709  14.794  0.00  0.00    +0.000 HD
ENDBRANCH  16  17
ENDBRANCH   9  11
BRANCH   1  19
ATOM     19  O   UNL     1       1.992   5.560  21.147  0.00  0.00    +0.000 OA
ATOM     20  H   UNL     1       1.258   6.193  21.153  0.00  0.00    +0.000 HD
ENDBRANCH   1  19
BRANCH   9  21
ATOM     21  O   UNL     1       6.633   4.534  16.986  0.00  0.00    +0.000 OA
ATOM     22  H   UNL     1       7.047   5.414  16.908  0.00  0.00    +0.000 HD
ENDBRANCH   9  21
TORSDOF 4
ENDMDL
MODEL 6
REMARK VINA RESULT:      -7.2      1.634      6.558
REMARK  Name = 
REMARK  4 active torsions:
REMARK  status: ('A' for Active; 'I' for Inactive)
REMARK    1  A    between atoms: O_1  and  C_2
REMARK    2  A    between atoms: C_10  and  O_11
REMARK    3  A    between atoms: C_10  and  C_12
REMARK    4  A    between atoms: C_17  and  O_18
REMARK                            x       y       z     vdW  Elec       q    Type
REMARK                         _______ _______ _______ _____ _____    ______ ____
ROOT
ATOM      1  C   UNL     1       2.924   4.707  20.042  0.00  0.00    +0.000 A 
ATOM      2  C   UNL     1       1.952   4.442  19.082  0.00  0.00    +0.000 A 
ATOM      3  C   UNL     1       2.333   4.281  17.748  0.00  0.00    +0.000 A 
ATOM      4  C   UNL     1       3.683   4.387  17.377  0.00  0.00    +0.000 A 
ATOM      5  C   UNL     1       4.650   4.611  18.365  0.00  0.00    +0.000 A 
ATOM      6  C   UNL     1       4.265   4.789  19.693  0.00  0.00    +0.000 A 
ATOM      7  O   UNL     1       5.990   4.710  18.116  0.00  0.00    +0.000 OA
ATOM      8  C   UNL     1       6.404   4.334  16.794  0.00  0.00    +0.000 C 
ATOM      9  C   UNL     1       5.478   4.856  15.674  0.00  0.00    +0.000 C 
ATOM     10  C   UNL     1       4.072   4.277  15.923  0.00  0.00    +0.000 C 
ENDROOT
BRANCH   9  11
ATOM     11  C   UNL     1       6.021   4.467  14.284  0.00  0.00    +0.000 A 
ATOM     12  C   UNL     1       5.268   3.601  13.460  0.00  0.00    +0.000 A 
ATOM     13  C   UNL     1       5.715   3.218  12.192  0.00  0.00    +0.000 A 
ATOM     14  C   UNL     1       6.927   3.696  11.705  0.00  0.00    +0.000 A 
ATOM     15  C   UNL     1       7.693   4.549  12.488  0.00  0.00    +0.000 A 
ATOM     16  C   UNL     1       7.244   4.919  13.760  0.00  0.00    +0.000 A 
BRANCH  16  17
ATOM     17  O   UNL     1       8.046   5.731  14.522  0.00  0.00    +0.000 OA
ATOM     18  H   UNL     1       8.340   6.480  13.976  0.00  0.00    +0.000 HD
ENDBRANCH  16  17
ENDBRANCH   9  11
BRANCH   1  19
ATOM     19  O   UNL     1       2.592   4.897  21.351  0.00  0.00    +0.000 OA
ATOM     20  H   UNL     1       2.159   5.760  21.438  0.00  0.00    +0.000 HD
ENDBRANCH   1  19
BRANCH   9  21
ATOM     21  O   UNL     1       5.366   6.285  15.848  0.00  0.00    +0.000 OA
ATOM     22  H   UNL     1       4.418   6.499  15.930  0.00  0.00    +0.000 HD
ENDBRANCH   9  21
TORSDOF 4
ENDMDL
MODEL 7
REMARK VINA RESULT:      -7.1      1.175      1.353
REMARK  Name = 
REMARK  4 active torsions:
REMARK  status: ('A' for Active; 'I' for Inactive)
REMARK    1  A    between atoms: O_1  and  C_2
REMARK    2  A    between atoms: C_10  and  O_11
REMARK    3  A    between atoms: C_10  and  C_12
REMARK    4  A    between atoms: C_17  and  O_18
REMARK                            x       y       z     vdW  Elec       q    Type
REMARK                         _______ _______ _______ _____ _____    ______ ____
ROOT
ATOM      1  C   UNL     1       7.341   5.243  14.151  0.00  0.00    +0.000 A 
ATOM      2  C   UNL     1       6.671   4.098  13.732  0.00  0.00    +0.000 A 
ATOM      3  C   UNL     1       5.624   3.595  14.509  0.00  0.00    +0.000 A 
ATOM      4  C   UNL     1       5.251   4.237  15.700  0.00  0.00    +0.000 A 
ATOM      5  C   UNL     1       5.910   5.412  16.080  0.00  0.00    +0.000 A 
ATOM      6  C   UNL     1       6.967   5.902  15.314  0.00  0.00    +0.000 A 
ATOM      7  O   UNL     1       5.613   6.126  17.208  0.00  0.00    +0.000 OA
ATOM      8  C   UNL     1       4.409   5.739  17.886  0.00  0.00    +0.000 C 
ATOM      9  C   UNL     1       4.213   4.211  17.994  0.00  0.00    +0.000 C 
ATOM     10  C   UNL     1       4.162   3.645  16.562  0.00  0.00    +0.000 C 
ENDROOT
BRANCH   9  11
ATOM     11  C   UNL     1       2.934   3.875  18.789  0.00  0.00    +0.000 A 
ATOM     12  C   UNL     1       2.038   2.904  18.287  0.00  0.00    +0.000 A 
ATOM     13  C   UNL     1       0.866   2.562  18.969  0.00  0.00    +0.000 A 
ATOM     14  C   UNL     1       0.558   3.176  20.177  0.00  0.00    +0.000 A 
ATOM     15  C   UNL     1       1.415   4.135  20.700  0.00  0.00    +0.000 A 
ATOM     16  C   UNL     1       2.580   4.480  20.006  0.00  0.00    +0.000 A 
BRANCH  16  17
ATOM     17  O   UNL     1       3.384   5.459  20.532  0.00  0.00    +0.000 OA
ATOM     18  H   UNL     1       3.708   6.020  19.807  0.00  0.00    +0.000 HD
ENDBRANCH  16  17
ENDBRANCH   9  11
BRANCH   1  19
ATOM     19  O   UNL     1       8.387   5.752  13.438  0.00  0.00    +0.000 OA
ATOM     20  H   UNL     1       8.084   6.542  12.965  0.00  0.00    +0.000 HD
ENDBRANCH   1  19
BRANCH   9  21
ATOM     21  O   UNL     1       5.405   3.672  18.603  0.00  0.00    +0.000 OA
ATOM     22  H   UNL     1       5.645   2.861  18.117  0.00  0.00    +0.000 HD
ENDBRANCH   9  21
TORSDOF 4
ENDMDL
MODEL 8
REMARK VINA RESULT:      -7.0      3.685      5.385
REMARK  Name = 
REMARK  4 active torsions:
REMARK  status: ('A' for Active; 'I' for Inactive)
REMARK    1  A    between atoms: O_1  and  C_2
REMARK    2  A    between atoms: C_10  and  O_11
REMARK    3  A    between atoms: C_10  and  C_12
REMARK    4  A    between atoms: C_17  and  O_18
REMARK                            x       y       z     vdW  Elec       q    Type
REMARK                         _______ _______ _______ _____ _____    ______ ____
ROOT
ATOM      1  C   UNL     1       3.794   1.664  18.507  0.00  0.00    +0.000 A 
ATOM      2  C   UNL     1       2.536   1.785  17.926  0.00  0.00    +0.000 A 
ATOM      3  C   UNL     1       1.910   3.034  17.902  0.00  0.00    +0.000 A 
ATOM      4  C   UNL     1       2.542   4.156  18.461  0.00  0.00    +0.000 A 
ATOM      5  C   UNL     1       3.826   4.021  19.002  0.00  0.00    +0.000 A 
ATOM      6  C   UNL     1       4.441   2.770  19.041  0.00  0.00    +0.000 A 
ATOM      7  O   UNL     1       4.538   5.051  19.551  0.00  0.00    +0.000 OA
ATOM      8  C   UNL     1       3.995   6.362  19.336  0.00  0.00    +0.000 C 
ATOM      9  C   UNL     1       2.463   6.444  19.511  0.00  0.00    +0.000 C 
ATOM     10  C   UNL     1       1.825   5.484  18.487  0.00  0.00    +0.000 C 
ENDROOT
BRANCH   9  11
ATOM     11  C   UNL     1       1.964   7.892  19.327  0.00  0.00    +0.000 A 
ATOM     12  C   UNL     1       2.019   8.490  18.048  0.00  0.00    +0.000 A 
ATOM     13  C   UNL     1       1.578   9.799  17.829  0.00  0.00    +0.000 A 
ATOM     14  C   UNL     1       1.063  10.548  18.881  0.00  0.00    +0.000 A 
ATOM     15  C   UNL     1       0.994   9.992  20.152  0.00  0.00    +0.000 A 
ATOM     16  C   UNL     1       1.448   8.685  20.366  0.00  0.00    +0.000 A 
BRANCH  16  17
ATOM     17  O   UNL     1       1.402   8.183  21.641  0.00  0.00    +0.000 OA
ATOM     18  H   UNL     1       0.716   8.658  22.140  0.00  0.00    +0.000 HD
ENDBRANCH  16  17
ENDBRANCH   9  11
BRANCH   1  19
ATOM     19  O   UNL     1       4.429   0.459  18.576  0.00  0.00    +0.000 OA
ATOM     20  H   UNL     1       3.889  -0.146  19.108  0.00  0.00    +0.000 HD
ENDBRANCH   1  19
BRANCH   9  21
ATOM     21  O   UNL     1       2.155   5.910  20.816  0.00  0.00    +0.000 OA
ATOM     22  H   UNL     1       2.930   6.062  21.389  0.00  0.00    +0.000 HD
ENDBRANCH   9  21
TORSDOF 4
ENDMDL
MODEL 9
REMARK VINA RESULT:      -7.0      1.409      6.473
REMARK  Name = 
REMARK  4 active torsions:
REMARK  status: ('A' for Active; 'I' for Inactive)
REMARK    1  A    between atoms: O_1  and  C_2
REMARK    2  A    between atoms: C_10  and  O_11
REMARK    3  A    between atoms: C_10  and  C_12
REMARK    4  A    between atoms: C_17  and  O_18
REMARK                            x       y       z     vdW  Elec       q    Type
REMARK                         _______ _______ _______ _____ _____    ______ ____
ROOT
ATOM      1  C   UNL     1       1.586   3.303  21.097  0.00  0.00    +0.000 A 
ATOM      2  C   UNL     1       1.614   4.670  20.839  0.00  0.00    +0.000 A 
ATOM      3  C   UNL     1       2.390   5.151  19.780  0.00  0.00    +0.000 A 
ATOM      4  C   UNL     1       3.134   4.265  18.985  0.00  0.00    +0.000 A 
ATOM      5  C   UNL     1       3.057   2.889  19.235  0.00  0.00    +0.000 A 
ATOM      6  C   UNL     1       2.297   2.413  20.303  0.00  0.00    +0.000 A 
ATOM      7  O   UNL     1       3.723   1.941  18.510  0.00  0.00    +0.000 OA
ATOM      8  C   UNL     1       4.341   2.407  17.301  0.00  0.00    +0.000 C 
ATOM      9  C   UNL     1       5.065   3.762  17.449  0.00  0.00    +0.000 C 
ATOM     10  C   UNL     1       4.019   4.805  17.888  0.00  0.00    +0.000 C 
ENDROOT
BRANCH   9  11
ATOM     11  C   UNL     1       5.756   4.164  16.130  0.00  0.00    +0.000 A 
ATOM     12  C   UNL     1       5.216   3.727  14.900  0.00  0.00    +0.000 A 
ATOM     13  C   UNL     1       5.804   4.065  13.677  0.00  0.00    +0.000 A 
ATOM     14  C   UNL     1       6.947   4.857  13.646  0.00  0.00    +0.000 A 
ATOM     15  C   UNL     1       7.505   5.304  14.836  0.00  0.00    +0.000 A 
ATOM     16  C   UNL     1       6.918   4.952  16.057  0.00  0.00    +0.000 A 
BRANCH  16  17
ATOM     17  O   UNL     1       7.519   5.378  17.214  0.00  0.00    +0.000 OA
ATOM     18  H   UNL     1       7.276   4.771  17.934  0.00  0.00    +0.000 HD
ENDBRANCH  16  17
ENDBRANCH   9  11
BRANCH   1  19
ATOM     19  O   UNL     1       0.864   2.794  22.136  0.00  0.00    +0.000 OA
ATOM     20  H   UNL     1       0.107   3.376  22.302  0.00  0.00    +0.000 HD
ENDBRANCH   1  19
BRANCH   9  21
ATOM     21  O   UNL     1       5.993   3.631  18.546  0.00  0.00    +0.000 OA
ATOM     22  H   UNL     1       6.856   3.369  18.175  0.00  0.00    +0.000 HD
ENDBRANCH   9  21
TORSDOF 4
ENDMDL
