MODEL 1
REMARK VINA RESULT:      -9.0      0.000      0.000
REMARK  Name = 
REMARK  7 active torsions:
REMARK  status: ('A' for Active; 'I' for Inactive)
REMARK    1  A    between atoms: C_1  and  C_2
REMARK    2  A    between atoms: N_6  and  C_7
REMARK    3  A    between atoms: N_10  and  C_11
REMARK    4  A    between atoms: C_14  and  N_15
REMARK    5  A    between atoms: C_16  and  C_18
REMARK    6  A    between atoms: C_21  and  C_22
REMARK    7  A    between atoms: C_22  and  N_23
REMARK                            x       y       z     vdW  Elec       q    Type
REMARK                         _______ _______ _______ _____ _____    ______ ____
ROOT
ATOM      1  C   UNL     1       6.055   5.872  17.905  0.00  0.00    +0.000 A 
ATOM      2  C   UNL     1       5.605   7.009  17.233  0.00  0.00    +0.000 A 
ATOM      3  C   UNL     1       6.360   8.184  17.165  0.00  0.00    +0.000 A 
ATOM      4  C   UNL     1       7.605   8.265  17.777  0.00  0.00    +0.000 A 
ATOM      5  C   UNL     1       8.083   7.149  18.457  0.00  0.00    +0.000 A 
ATOM      6  C   UNL     1       7.309   5.977  18.526  0.00  0.00    +0.000 A 
ENDROOT
BRANCH   1  10
ATOM      7  C   UNL     1       4.128   2.828  18.864  0.00  0.00    +0.000 C 
ATOM      8  C   UNL     1       3.861   2.990  17.357  0.00  0.00    +0.000 C 
ATOM      9  C   UNL     1       5.013   3.851  16.857  0.00  0.00    +0.000 C 
ATOM     10  N   UNL     1       5.283   4.738  17.980  0.00  0.00    +0.000 N 
ATOM     11  C   UNL     1       4.926   4.105  19.241  0.00  0.00    +0.000 C 
BRANCH   7  17
ATOM     12  C   UNL     1       0.803   2.265  18.533  0.00  0.00    +0.000 C 
ATOM     13  C   UNL     1       1.704   3.155  19.384  0.00  0.00    +0.000 C 
ATOM     14  C   UNL     1       1.049   3.482  20.722  0.00  0.00    +0.000 C 
ATOM     15  C   UNL     1       2.240   3.724  21.618  0.00  0.00    +0.000 C 
ATOM     16  C   UNL     1       3.217   2.655  21.157  0.00  0.00    +0.000 C 
ATOM     17  N   UNL     1       2.970   2.469  19.714  0.00  0.00    +0.000 NA
ENDBRANCH   7  17
ENDBRANCH   1  10
BRANCH   4  18
ATOM     18  N   UNL     1       8.409   9.424  17.749  0.00  0.00    +0.000 N 
ATOM     19  C   UNL     1       9.014  10.010  18.848  0.00  0.00    +0.000 C 
ATOM     20  O   UNL     1       8.961   9.628  20.012  0.00  0.00    +0.000 OA
ATOM     21  H   UNL     1       8.626   9.800  16.837  0.00  0.00    +0.000 HD
BRANCH  19  22
ATOM     22  C   UNL     1       9.837  11.215  18.584  0.00  0.00    +0.000 A 
ATOM     23  C   UNL     1      11.147  11.357  19.058  0.00  0.00    +0.000 A 
ATOM     24  C   UNL     1      11.906  12.467  18.665  0.00  0.00    +0.000 A 
ATOM     25  C   UNL     1      11.378  13.422  17.781  0.00  0.00    +0.000 A 
ATOM     26  C   UNL     1      10.047  13.293  17.360  0.00  0.00    +0.000 A 
ATOM     27  C   UNL     1       9.289  12.194  17.751  0.00  0.00    +0.000 A 
BRANCH  25  28
ATOM     28  C   UNL     1      12.214  14.579  17.276  0.00  0.00    +0.000 C 
BRANCH  28  29
ATOM     29  N   UNL     1      12.333  15.768  18.119  0.00  0.00    +0.000 NA
ATOM     30  C   UNL     1      11.655  15.747  19.421  0.00  0.00    +0.000 C 
ATOM     31  C   UNL     1      10.231  16.340  19.439  0.00  0.00    +0.000 C 
ATOM     32  O   UNL     1      10.167  17.621  18.800  0.00  0.00    +0.000 OA
ATOM     33  C   UNL     1      10.679  17.557  17.465  0.00  0.00    +0.000 C 
ATOM     34  C   UNL     1      12.129  17.059  17.455  0.00  0.00    +0.000 C 
ENDBRANCH  28  29
ENDBRANCH  25  28
ENDBRANCH  19  22
ENDBRANCH   4  18
TORSDOF 6
ENDMDL
MODEL 2
REMARK VINA RESULT:      -8.5      8.845     11.578
REMARK  Name = 
REMARK  7 active torsions:
REMARK  status: ('A' for Active; 'I' for Inactive)
REMARK    1  A    between atoms: C_1  and  C_2
REMARK    2  A    between atoms: N_6  and  C_7
REMARK    3  A    between atoms: N_10  and  C_11
REMARK    4  A    between atoms: C_14  and  N_15
REMARK    5  A    between atoms: C_16  and  C_18
REMARK    6  A    between atoms: C_21  and  C_22
REMARK    7  A    between atoms: C_22  and  N_23
REMARK                            x       y       z     vdW  Elec       q    Type
REMARK                         _______ _______ _______ _____ _____    ______ ____
ROOT
ATOM      1  C   UNL     1       1.917   7.654  19.551  0.00  0.00    +0.000 A 
ATOM      2  C   UNL     1       1.489   7.470  20.867  0.00  0.00    +0.000 A 
ATOM      3  C   UNL     1       0.691   8.408  21.529  0.00  0.00    +0.000 A 
ATOM      4  C   UNL     1       0.289   9.576  20.893  0.00  0.00    +0.000 A 
ATOM      5  C   UNL     1       0.699   9.791  19.581  0.00  0.00    +0.000 A 
ATOM      6  C   UNL     1       1.510   8.845  18.929  0.00  0.00    +0.000 A 
ENDROOT
BRANCH   1  10
ATOM      7  C   UNL     1       4.223   5.718  17.352  0.00  0.00    +0.000 C 
ATOM      8  C   UNL     1       3.912   4.761  18.517  0.00  0.00    +0.000 C 
ATOM      9  C   UNL     1       2.613   5.290  19.108  0.00  0.00    +0.000 C 
ATOM     10  N   UNL     1       2.723   6.732  18.930  0.00  0.00    +0.000 N 
ATOM     11  C   UNL     1       3.550   7.051  17.775  0.00  0.00    +0.000 C 
BRANCH   7  17
ATOM     12  C   UNL     1       6.275   4.074  15.215  0.00  0.00    +0.000 C 
ATOM     13  C   UNL     1       6.285   4.470  16.689  0.00  0.00    +0.000 C 
ATOM     14  C   UNL     1       7.712   4.638  17.203  0.00  0.00    +0.000 C 
ATOM     15  C   UNL     1       7.538   5.629  18.330  0.00  0.00    +0.000 C 
ATOM     16  C   UNL     1       6.501   6.586  17.766  0.00  0.00    +0.000 C 
ATOM     17  N   UNL     1       5.629   5.778  16.892  0.00  0.00    +0.000 NA
ENDBRANCH   7  17
ENDBRANCH   1  10
BRANCH   4  18
ATOM     18  N   UNL     1      -0.510  10.561  21.512  0.00  0.00    +0.000 N 
ATOM     19  C   UNL     1      -0.123  11.865  21.771  0.00  0.00    +0.000 C 
ATOM     20  O   UNL     1       0.958  12.381  21.509  0.00  0.00    +0.000 OA
ATOM     21  H   UNL     1      -1.470  10.309  21.699  0.00  0.00    +0.000 HD
BRANCH  19  22
ATOM     22  C   UNL     1      -1.135  12.739  22.411  0.00  0.00    +0.000 A 
ATOM     23  C   UNL     1      -1.202  14.119  22.179  0.00  0.00    +0.000 A 
ATOM     24  C   UNL     1      -2.261  14.858  22.720  0.00  0.00    +0.000 A 
ATOM     25  C   UNL     1      -3.269  14.230  23.469  0.00  0.00    +0.000 A 
ATOM     26  C   UNL     1      -3.157  12.858  23.738  0.00  0.00    +0.000 A 
ATOM     27  C   UNL     1      -2.105  12.120  23.204  0.00  0.00    +0.000 A 
BRANCH  25  28
ATOM     28  C   UNL     1      -4.466  14.998  23.985  0.00  0.00    +0.000 C 
BRANCH  28  29
ATOM     29  N   UNL     1      -5.626  15.146  23.107  0.00  0.00    +0.000 NA
ATOM     30  C   UNL     1      -6.924  15.416  23.738  0.00  0.00    +0.000 C 
ATOM     31  C   UNL     1      -7.787  14.175  24.042  0.00  0.00    +0.000 C 
ATOM     32  O   UNL     1      -7.890  13.294  22.916  0.00  0.00    +0.000 OA
ATOM     33  C   UNL     1      -6.595  12.914  22.440  0.00  0.00    +0.000 C 
ATOM     34  C   UNL     1      -5.770  14.145  22.045  0.00  0.00    +0.000 C 
ENDBRANCH  28  29
ENDBRANCH  25  28
ENDBRANCH  19  22
ENDBRANCH   4  18
TORSDOF 6
ENDMDL
MODEL 3
REMARK VINA RESULT:      -8.5      8.239     10.826
REMARK  Name = 
REMARK  7 active torsions:
REMARK  status: ('A' for Active; 'I' for Inactive)
REMARK    1  A    between atoms: C_1  and  C_2
REMARK    2  A    between atoms: N_6  and  C_7
REMARK    3  A    between atoms: N_10  and  C_11
REMARK    4  A    between atoms: C_14  and  N_15
REMARK    5  A    between atoms: C_16  and  C_18
REMARK    6  A    between atoms: C_21  and  C_22
REMARK    7  A    between atoms: C_22  and  N_23
REMARK                            x       y       z     vdW  Elec       q    Type
REMARK                         _______ _______ _______ _____ _____    ______ ____
ROOT
ATOM      1  C   UNL     1       2.399   7.068  19.410  0.00  0.00    +0.000 A 
ATOM      2  C   UNL     1       1.828   7.139  20.681  0.00  0.00    +0.000 A 
ATOM      3  C   UNL     1       1.020   8.210  21.077  0.00  0.00    +0.000 A 
ATOM      4  C   UNL     1       0.753   9.259  20.207  0.00  0.00    +0.000 A 
ATOM      5  C   UNL     1       1.308   9.220  18.931  0.00  0.00    +0.000 A 
ATOM      6  C   UNL     1       2.127   8.143  18.549  0.00  0.00    +0.000 A 
ENDROOT
BRANCH   1  10
ATOM      7  C   UNL     1       4.519   4.505  17.725  0.00  0.00    +0.000 C 
ATOM      8  C   UNL     1       4.618   4.159  19.221  0.00  0.00    +0.000 C 
ATOM      9  C   UNL     1       3.392   4.812  19.844  0.00  0.00    +0.000 C 
ATOM     10  N   UNL     1       3.212   6.021  19.052  0.00  0.00    +0.000 N 
ATOM     11  C   UNL     1       3.723   5.838  17.702  0.00  0.00    +0.000 C 
BRANCH   7  17
ATOM     12  C   UNL     1       7.433   6.209  17.440  0.00  0.00    +0.000 C 
ATOM     13  C   UNL     1       6.315   5.748  16.509  0.00  0.00    +0.000 C 
ATOM     14  C   UNL     1       6.835   5.534  15.091  0.00  0.00    +0.000 C 
ATOM     15  C   UNL     1       5.880   4.498  14.546  0.00  0.00    +0.000 C 
ATOM     16  C   UNL     1       5.675   3.583  15.743  0.00  0.00    +0.000 C 
ATOM     17  N   UNL     1       5.772   4.443  16.938  0.00  0.00    +0.000 NA
ENDBRANCH   7  17
ENDBRANCH   1  10
BRANCH   4  18
ATOM     18  N   UNL     1      -0.050  10.368  20.552  0.00  0.00    +0.000 N 
ATOM     19  C   UNL     1       0.420  11.604  20.963  0.00  0.00    +0.000 C 
ATOM     20  O   UNL     1       1.591  11.943  21.092  0.00  0.00    +0.000 OA
ATOM     21  H   UNL     1      -1.043  10.269  20.400  0.00  0.00    +0.000 HD
BRANCH  19  22
ATOM     22  C   UNL     1      -0.604  12.636  21.254  0.00  0.00    +0.000 A 
ATOM     23  C   UNL     1      -1.886  12.612  20.691  0.00  0.00    +0.000 A 
ATOM     24  C   UNL     1      -2.840  13.549  21.108  0.00  0.00    +0.000 A 
ATOM     25  C   UNL     1      -2.534  14.493  22.102  0.00  0.00    +0.000 A 
ATOM     26  C   UNL     1      -1.230  14.538  22.615  0.00  0.00    +0.000 A 
ATOM     27  C   UNL     1      -0.279  13.610  22.201  0.00  0.00    +0.000 A 
BRANCH  25  28
ATOM     28  C   UNL     1      -3.578  15.454  22.628  0.00  0.00    +0.000 C 
BRANCH  28  29
ATOM     29  N   UNL     1      -4.425  15.018  23.738  0.00  0.00    +0.000 NA
ATOM     30  C   UNL     1      -3.852  14.060  24.692  0.00  0.00    +0.000 C 
ATOM     31  C   UNL     1      -4.131  12.573  24.392  0.00  0.00    +0.000 C 
ATOM     32  O   UNL     1      -5.515  12.324  24.118  0.00  0.00    +0.000 OA
ATOM     33  C   UNL     1      -5.990  13.159  23.057  0.00  0.00    +0.000 C 
ATOM     34  C   UNL     1      -5.801  14.642  23.397  0.00  0.00    +0.000 C 
ENDBRANCH  28  29
ENDBRANCH  25  28
ENDBRANCH  19  22
ENDBRANCH   4  18
TORSDOF 6
ENDMDL
MODEL 4
REMARK VINA RESULT:      -8.4      8.387     11.466
REMARK  Name = 
REMARK  7 active torsions:
REMARK  status: ('A' for Active; 'I' for Inactive)
REMARK    1  A    between atoms: C_1  and  C_2
REMARK    2  A    between atoms: N_6  and  C_7
REMARK    3  A    between atoms: N_10  and  C_11
REMARK    4  A    between atoms: C_14  and  N_15
REMARK    5  A    between atoms: C_16  and  C_18
REMARK    6  A    between atoms: C_21  and  C_22
REMARK    7  A    between atoms: C_22  and  N_23
REMARK                            x       y       z     vdW  Elec       q    Type
REMARK                         _______ _______ _______ _____ _____    ______ ____
ROOT
ATOM      1  C   UNL     1       2.239   7.279  19.609  0.00  0.00    +0.000 A 
ATOM      2  C   UNL     1       2.018   8.370  18.766  0.00  0.00    +0.000 A 
ATOM      3  C   UNL     1       1.179   9.429  19.122  0.00  0.00    +0.000 A 
ATOM      4  C   UNL     1       0.521   9.436  20.346  0.00  0.00    +0.000 A 
ATOM      5  C   UNL     1       0.719   8.363  21.210  0.00  0.00    +0.000 A 
ATOM      6  C   UNL     1       1.558   7.298  20.836  0.00  0.00    +0.000 A 
ENDROOT
BRANCH   1  10
ATOM      7  C   UNL     1       4.361   4.757  17.865  0.00  0.00    +0.000 C 
ATOM      8  C   UNL     1       4.434   4.357  19.349  0.00  0.00    +0.000 C 
ATOM      9  C   UNL     1       3.204   4.999  19.977  0.00  0.00    +0.000 C 
ATOM     10  N   UNL     1       3.047   6.237  19.227  0.00  0.00    +0.000 N 
ATOM     11  C   UNL     1       3.577   6.098  17.878  0.00  0.00    +0.000 C 
BRANCH   7  17
ATOM     12  C   UNL     1       7.055   6.724  17.275  0.00  0.00    +0.000 C 
ATOM     13  C   UNL     1       6.016   5.978  16.443  0.00  0.00    +0.000 C 
ATOM     14  C   UNL     1       6.581   5.585  15.082  0.00  0.00    +0.000 C 
ATOM     15  C   UNL     1       5.766   4.362  14.731  0.00  0.00    +0.000 C 
ATOM     16  C   UNL     1       5.652   3.651  16.070  0.00  0.00    +0.000 C 
ATOM     17  N   UNL     1       5.625   4.711  17.096  0.00  0.00    +0.000 NA
ENDBRANCH   7  17
ENDBRANCH   1  10
BRANCH   4  18
ATOM     18  N   UNL     1      -0.343  10.473  20.757  0.00  0.00    +0.000 N 
ATOM     19  C   UNL     1      -0.510  10.912  22.060  0.00  0.00    +0.000 C 
ATOM     20  O   UNL     1       0.058  10.488  23.060  0.00  0.00    +0.000 OA
ATOM     21  H   UNL     1      -0.809  10.988  20.024  0.00  0.00    +0.000 HD
BRANCH  19  22
ATOM     22  C   UNL     1      -1.456  12.035  22.262  0.00  0.00    +0.000 A 
ATOM     23  C   UNL     1      -1.542  13.123  21.384  0.00  0.00    +0.000 A 
ATOM     24  C   UNL     1      -2.544  14.082  21.571  0.00  0.00    +0.000 A 
ATOM     25  C   UNL     1      -3.480  13.952  22.610  0.00  0.00    +0.000 A 
ATOM     26  C   UNL     1      -3.347  12.887  23.512  0.00  0.00    +0.000 A 
ATOM     27  C   UNL     1      -2.350  11.933  23.331  0.00  0.00    +0.000 A 
BRANCH  25  28
ATOM     28  C   UNL     1      -4.623  14.931  22.772  0.00  0.00    +0.000 C 
BRANCH  28  29
ATOM     29  N   UNL     1      -5.924  14.578  22.205  0.00  0.00    +0.000 NA
ATOM     30  C   UNL     1      -6.937  14.033  23.118  0.00  0.00    +0.000 C 
ATOM     31  C   UNL     1      -6.986  12.495  23.216  0.00  0.00    +0.000 C 
ATOM     32  O   UNL     1      -7.005  11.867  21.928  0.00  0.00    +0.000 OA
ATOM     33  C   UNL     1      -5.897  12.295  21.130  0.00  0.00    +0.000 C 
ATOM     34  C   UNL     1      -5.902  13.818  20.951  0.00  0.00    +0.000 C 
ENDBRANCH  28  29
ENDBRANCH  25  28
ENDBRANCH  19  22
ENDBRANCH   4  18
TORSDOF 6
ENDMDL
MODEL 5
REMARK VINA RESULT:      -8.3      8.182     10.979
REMARK  Name = 
REMARK  7 active torsions:
REMARK  status: ('A' for Active; 'I' for Inactive)
REMARK    1  A    between atoms: C_1  and  C_2
REMARK    2  A    between atoms: N_6  and  C_7
REMARK    3  A    between atoms: N_10  and  C_11
REMARK    4  A    between atoms: C_14  and  N_15
REMARK    5  A    between atoms: C_16  and  C_18
REMARK    6  A    between atoms: C_21  and  C_22
REMARK    7  A    between atoms: C_22  and  N_23
REMARK                            x       y       z     vdW  Elec       q    Type
REMARK                         _______ _______ _______ _____ _____    ______ ____
ROOT
ATOM      1  C   UNL     1       2.567   6.710  19.190  0.00  0.00    +0.000 A 
ATOM      2  C   UNL     1       2.390   7.808  18.347  0.00  0.00    +0.000 A 
ATOM      3  C   UNL     1       1.701   8.955  18.752  0.00  0.00    +0.000 A 
ATOM      4  C   UNL     1       1.156   9.045  20.027  0.00  0.00    +0.000 A 
ATOM      5  C   UNL     1       1.313   7.967  20.892  0.00  0.00    +0.000 A 
ATOM      6  C   UNL     1       2.000   6.815  20.470  0.00  0.00    +0.000 A 
ENDROOT
BRANCH   1  10
ATOM      7  C   UNL     1       4.379   4.022  17.349  0.00  0.00    +0.000 C 
ATOM      8  C   UNL     1       4.284   3.499  18.793  0.00  0.00    +0.000 C 
ATOM      9  C   UNL     1       3.131   4.280  19.406  0.00  0.00    +0.000 C 
ATOM     10  N   UNL     1       3.225   5.583  18.762  0.00  0.00    +0.000 N 
ATOM     11  C   UNL     1       3.818   5.467  17.438  0.00  0.00    +0.000 C 
BRANCH   7  17
ATOM     12  C   UNL     1       7.664   4.681  17.846  0.00  0.00    +0.000 C 
ATOM     13  C   UNL     1       6.624   4.953  16.764  0.00  0.00    +0.000 C 
ATOM     14  C   UNL     1       7.278   5.081  15.391  0.00  0.00    +0.000 C 
ATOM     15  C   UNL     1       6.167   4.660  14.459  0.00  0.00    +0.000 C 
ATOM     16  C   UNL     1       5.524   3.510  15.217  0.00  0.00    +0.000 C 
ATOM     17  N   UNL     1       5.670   3.831  16.651  0.00  0.00    +0.000 NA
ENDBRANCH   7  17
ENDBRANCH   1  10
BRANCH   4  18
ATOM     18  N   UNL     1       0.444  10.173  20.489  0.00  0.00    +0.000 N 
ATOM     19  C   UNL     1      -0.724  10.670  19.937  0.00  0.00    +0.000 C 
ATOM     20  O   UNL     1      -1.334  10.221  18.973  0.00  0.00    +0.000 OA
ATOM     21  H   UNL     1       0.776  10.595  21.345  0.00  0.00    +0.000 HD
BRANCH  19  22
ATOM     22  C   UNL     1      -1.316  11.857  20.600  0.00  0.00    +0.000 A 
ATOM     23  C   UNL     1      -1.669  13.018  19.901  0.00  0.00    +0.000 A 
ATOM     24  C   UNL     1      -2.337  14.049  20.573  0.00  0.00    +0.000 A 
ATOM     25  C   UNL     1      -2.680  13.922  21.928  0.00  0.00    +0.000 A 
ATOM     26  C   UNL     1      -2.271  12.776  22.625  0.00  0.00    +0.000 A 
ATOM     27  C   UNL     1      -1.604  11.750  21.963  0.00  0.00    +0.000 A 
BRANCH  25  28
ATOM     28  C   UNL     1      -3.480  14.988  22.645  0.00  0.00    +0.000 C 
BRANCH  28  29
ATOM     29  N   UNL     1      -4.937  14.867  22.663  0.00  0.00    +0.000 NA
ATOM     30  C   UNL     1      -5.561  14.359  23.892  0.00  0.00    +0.000 C 
ATOM     31  C   UNL     1      -5.812  12.838  23.930  0.00  0.00    +0.000 C 
ATOM     32  O   UNL     1      -6.458  12.362  22.742  0.00  0.00    +0.000 OA
ATOM     33  C   UNL     1      -5.720  12.731  21.572  0.00  0.00    +0.000 C 
ATOM     34  C   UNL     1      -5.553  14.253  21.483  0.00  0.00    +0.000 C 
ENDBRANCH  28  29
ENDBRANCH  25  28
ENDBRANCH  19  22
ENDBRANCH   4  18
TORSDOF 6
ENDMDL
MODEL 6
REMARK VINA RESULT:      -8.3      9.001     12.086
REMARK  Name = 
REMARK  7 active torsions:
REMARK  status: ('A' for Active; 'I' for Inactive)
REMARK    1  A    between atoms: C_1  and  C_2
REMARK    2  A    between atoms: N_6  and  C_7
REMARK    3  A    between atoms: N_10  and  C_11
REMARK    4  A    between atoms: C_14  and  N_15
REMARK    5  A    between atoms: C_16  and  C_18
REMARK    6  A    between atoms: C_21  and  C_22
REMARK    7  A    between atoms: C_22  and  N_23
REMARK                            x       y       z     vdW  Elec       q    Type
REMARK                         _______ _______ _______ _____ _____    ______ ____
ROOT
ATOM      1  C   UNL     1      -1.236  12.501  22.785  0.00  0.00    +0.000 A 
ATOM      2  C   UNL     1      -1.418  11.170  23.164  0.00  0.00    +0.000 A 
ATOM      3  C   UNL     1      -0.680  10.125  22.599  0.00  0.00    +0.000 A 
ATOM      4  C   UNL     1       0.277  10.377  21.623  0.00  0.00    +0.000 A 
ATOM      5  C   UNL     1       0.483  11.694  21.222  0.00  0.00    +0.000 A 
ATOM      6  C   UNL     1      -0.273  12.734  21.791  0.00  0.00    +0.000 A 
ENDROOT
BRANCH   1  10
ATOM      7  C   UNL     1      -3.759  15.095  23.680  0.00  0.00    +0.000 C 
ATOM      8  C   UNL     1      -2.731  15.152  24.824  0.00  0.00    +0.000 C 
ATOM      9  C   UNL     1      -1.473  14.527  24.236  0.00  0.00    +0.000 C 
ATOM     10  N   UNL     1      -1.991  13.507  23.335  0.00  0.00    +0.000 N 
ATOM     11  C   UNL     1      -3.306  13.877  22.830  0.00  0.00    +0.000 C 
BRANCH   7  17
ATOM     12  C   UNL     1      -6.420  13.022  24.002  0.00  0.00    +0.000 C 
ATOM     13  C   UNL     1      -6.100  14.320  23.266  0.00  0.00    +0.000 C 
ATOM     14  C   UNL     1      -7.359  15.154  23.051  0.00  0.00    +0.000 C 
ATOM     15  C   UNL     1      -6.812  16.560  22.982  0.00  0.00    +0.000 C 
ATOM     16  C   UNL     1      -5.731  16.541  24.050  0.00  0.00    +0.000 C 
ATOM     17  N   UNL     1      -5.188  15.169  24.060  0.00  0.00    +0.000 NA
ENDBRANCH   7  17
ENDBRANCH   1  10
BRANCH   4  18
ATOM     18  N   UNL     1       1.048   9.365  21.012  0.00  0.00    +0.000 N 
ATOM     19  C   UNL     1       1.145   9.140  19.649  0.00  0.00    +0.000 C 
ATOM     20  O   UNL     1       0.594   9.772  18.755  0.00  0.00    +0.000 OA
ATOM     21  H   UNL     1       1.640   8.820  21.622  0.00  0.00    +0.000 HD
BRANCH  19  22
ATOM     22  C   UNL     1       2.034   8.032  19.225  0.00  0.00    +0.000 A 
ATOM     23  C   UNL     1       2.233   6.881  19.998  0.00  0.00    +0.000 A 
ATOM     24  C   UNL     1       2.987   5.823  19.476  0.00  0.00    +0.000 A 
ATOM     25  C   UNL     1       3.522   5.891  18.180  0.00  0.00    +0.000 A 
ATOM     26  C   UNL     1       3.359   7.071  17.441  0.00  0.00    +0.000 A 
ATOM     27  C   UNL     1       2.613   8.126  17.957  0.00  0.00    +0.000 A 
BRANCH  25  28
ATOM     28  C   UNL     1       4.263   4.721  17.567  0.00  0.00    +0.000 C 
BRANCH  28  29
ATOM     29  N   UNL     1       5.717   4.672  17.708  0.00  0.00    +0.000 NA
ATOM     30  C   UNL     1       6.381   5.839  18.303  0.00  0.00    +0.000 C 
ATOM     31  C   UNL     1       6.892   6.896  17.302  0.00  0.00    +0.000 C 
ATOM     32  O   UNL     1       7.647   6.313  16.233  0.00  0.00    +0.000 OA
ATOM     33  C   UNL     1       6.894   5.296  15.565  0.00  0.00    +0.000 C 
ATOM     34  C   UNL     1       6.468   4.194  16.543  0.00  0.00    +0.000 C 
ENDBRANCH  28  29
ENDBRANCH  25  28
ENDBRANCH  19  22
ENDBRANCH   4  18
TORSDOF 6
ENDMDL
MODEL 7
REMARK VINA RESULT:      -8.2      8.969     11.342
REMARK  Name = 
REMARK  7 active torsions:
REMARK  status: ('A' for Active; 'I' for Inactive)
REMARK    1  A    between atoms: C_1  and  C_2
REMARK    2  A    between atoms: N_6  and  C_7
REMARK    3  A    between atoms: N_10  and  C_11
REMARK    4  A    between atoms: C_14  and  N_15
REMARK    5  A    between atoms: C_16  and  C_18
REMARK    6  A    between atoms: C_21  and  C_22
REMARK    7  A    between atoms: C_22  and  N_23
REMARK                            x       y       z     vdW  Elec       q    Type
REMARK                         _______ _______ _______ _____ _____    ______ ____
ROOT
ATOM      1  C   UNL     1       2.005   8.002  18.934  0.00  0.00    +0.000 A 
ATOM      2  C   UNL     1       1.679   7.940  20.290  0.00  0.00    +0.000 A 
ATOM      3  C   UNL     1       0.898   8.918  20.915  0.00  0.00    +0.000 A 
ATOM      4  C   UNL     1       0.413  10.005  20.199  0.00  0.00    +0.000 A 
ATOM      5  C   UNL     1       0.720  10.097  18.845  0.00  0.00    +0.000 A 
ATOM      6  C   UNL     1       1.514   9.113  18.231  0.00  0.00    +0.000 A 
ENDROOT
BRANCH   1  10
ATOM      7  C   UNL     1       4.435   5.997  16.941  0.00  0.00    +0.000 C 
ATOM      8  C   UNL     1       3.789   4.976  17.895  0.00  0.00    +0.000 C 
ATOM      9  C   UNL     1       2.476   5.623  18.311  0.00  0.00    +0.000 C 
ATOM     10  N   UNL     1       2.795   7.044  18.348  0.00  0.00    +0.000 N 
ATOM     11  C   UNL     1       3.863   7.361  17.411  0.00  0.00    +0.000 C 
BRANCH   7  17
ATOM     12  C   UNL     1       6.661   4.072  15.262  0.00  0.00    +0.000 C 
ATOM     13  C   UNL     1       6.443   4.527  16.702  0.00  0.00    +0.000 C 
ATOM     14  C   UNL     1       7.762   4.577  17.468  0.00  0.00    +0.000 C 
ATOM     15  C   UNL     1       7.489   5.627  18.520  0.00  0.00    +0.000 C 
ATOM     16  C   UNL     1       6.678   6.656  17.750  0.00  0.00    +0.000 C 
ATOM     17  N   UNL     1       5.900   5.900  16.748  0.00  0.00    +0.000 NA
ENDBRANCH   7  17
ENDBRANCH   1  10
BRANCH   4  18
ATOM     18  N   UNL     1      -0.374  11.025  20.776  0.00  0.00    +0.000 N 
ATOM     19  C   UNL     1       0.105  12.224  21.277  0.00  0.00    +0.000 C 
ATOM     20  O   UNL     1       1.271  12.601  21.300  0.00  0.00    +0.000 OA
ATOM     21  H   UNL     1      -1.375  10.898  20.737  0.00  0.00    +0.000 HD
BRANCH  19  22
ATOM     22  C   UNL     1      -0.906  13.164  21.818  0.00  0.00    +0.000 A 
ATOM     23  C   UNL     1      -1.466  14.196  21.056  0.00  0.00    +0.000 A 
ATOM     24  C   UNL     1      -2.505  14.965  21.596  0.00  0.00    +0.000 A 
ATOM     25  C   UNL     1      -3.008  14.696  22.879  0.00  0.00    +0.000 A 
ATOM     26  C   UNL     1      -2.399  13.695  23.648  0.00  0.00    +0.000 A 
ATOM     27  C   UNL     1      -1.365  12.930  23.117  0.00  0.00    +0.000 A 
BRANCH  25  28
ATOM     28  C   UNL     1      -4.188  15.458  23.441  0.00  0.00    +0.000 C 
BRANCH  28  29
ATOM     29  N   UNL     1      -5.474  14.769  23.542  0.00  0.00    +0.000 NA
ATOM     30  C   UNL     1      -5.750  13.702  22.571  0.00  0.00    +0.000 C 
ATOM     31  C   UNL     1      -6.512  14.138  21.303  0.00  0.00    +0.000 C 
ATOM     32  O   UNL     1      -7.670  14.925  21.608  0.00  0.00    +0.000 OA
ATOM     33  C   UNL     1      -7.327  16.056  22.414  0.00  0.00    +0.000 C 
ATOM     34  C   UNL     1      -6.655  15.618  23.721  0.00  0.00    +0.000 C 
ENDBRANCH  28  29
ENDBRANCH  25  28
ENDBRANCH  19  22
ENDBRANCH   4  18
TORSDOF 6
ENDMDL
MODEL 8
REMARK VINA RESULT:      -8.2      8.761     11.605
REMARK  Name = 
REMARK  7 active torsions:
REMARK  status: ('A' for Active; 'I' for Inactive)
REMARK    1  A    between atoms: C_1  and  C_2
REMARK    2  A    between atoms: N_6  and  C_7
REMARK    3  A    between atoms: N_10  and  C_11
REMARK    4  A    between atoms: C_14  and  N_15
REMARK    5  A    between atoms: C_16  and  C_18
REMARK    6  A    between atoms: C_21  and  C_22
REMARK    7  A    between atoms: C_22  and  N_23
REMARK                            x       y       z     vdW  Elec       q    Type
REMARK                         _______ _______ _______ _____ _____    ______ ____
ROOT
ATOM      1  C   UNL     1       1.836   7.783  19.711  0.00  0.00    +0.000 A 
ATOM      2  C   UNL     1       1.440   8.906  18.983  0.00  0.00    +0.000 A 
ATOM      3  C   UNL     1       0.570   9.867  19.509  0.00  0.00    +0.000 A 
ATOM      4  C   UNL     1       0.058   9.735  20.794  0.00  0.00    +0.000 A 
ATOM      5  C   UNL     1       0.432   8.626  21.546  0.00  0.00    +0.000 A 
ATOM      6  C   UNL     1       1.300   7.662  21.002  0.00  0.00    +0.000 A 
ENDROOT
BRANCH   1  10
ATOM      7  C   UNL     1       4.020   5.641  17.580  0.00  0.00    +0.000 C 
ATOM      8  C   UNL     1       4.103   5.001  18.977  0.00  0.00    +0.000 C 
ATOM      9  C   UNL     1       2.858   5.498  19.698  0.00  0.00    +0.000 C 
ATOM     10  N   UNL     1       2.670   6.839  19.164  0.00  0.00    +0.000 N 
ATOM     11  C   UNL     1       3.204   6.940  17.813  0.00  0.00    +0.000 C 
BRANCH   7  17
ATOM     12  C   UNL     1       5.663   4.006  15.109  0.00  0.00    +0.000 C 
ATOM     13  C   UNL     1       5.967   4.477  16.528  0.00  0.00    +0.000 C 
ATOM     14  C   UNL     1       7.457   4.751  16.709  0.00  0.00    +0.000 C 
ATOM     15  C   UNL     1       7.467   5.787  17.808  0.00  0.00    +0.000 C 
ATOM     16  C   UNL     1       6.272   6.655  17.449  0.00  0.00    +0.000 C 
ATOM     17  N   UNL     1       5.286   5.755  16.820  0.00  0.00    +0.000 NA
ENDBRANCH   7  17
ENDBRANCH   1  10
BRANCH   4  18
ATOM     18  N   UNL     1      -0.828  10.667  21.376  0.00  0.00    +0.000 N 
ATOM     19  C   UNL     1      -0.507  11.965  21.737  0.00  0.00    +0.000 C 
ATOM     20  O   UNL     1       0.579  12.519  21.611  0.00  0.00    +0.000 OA
ATOM     21  H   UNL     1      -1.794  10.383  21.452  0.00  0.00    +0.000 HD
BRANCH  19  22
ATOM     22  C   UNL     1      -1.603  12.780  22.313  0.00  0.00    +0.000 A 
ATOM     23  C   UNL     1      -1.956  14.039  21.813  0.00  0.00    +0.000 A 
ATOM     24  C   UNL     1      -3.081  14.695  22.327  0.00  0.00    +0.000 A 
ATOM     25  C   UNL     1      -3.874  14.094  23.318  0.00  0.00    +0.000 A 
ATOM     26  C   UNL     1      -3.476  12.857  23.846  0.00  0.00    +0.000 A 
ATOM     27  C   UNL     1      -2.357  12.204  23.339  0.00  0.00    +0.000 A 
BRANCH  25  28
ATOM     28  C   UNL     1      -5.143  14.749  23.821  0.00  0.00    +0.000 C 
BRANCH  28  29
ATOM     29  N   UNL     1      -6.407  14.396  23.176  0.00  0.00    +0.000 NA
ATOM     30  C   UNL     1      -6.593  12.998  22.766  0.00  0.00    +0.000 C 
ATOM     31  C   UNL     1      -6.197  12.673  21.312  0.00  0.00    +0.000 C 
ATOM     32  O   UNL     1      -6.752  13.605  20.375  0.00  0.00    +0.000 OA
ATOM     33  C   UNL     1      -6.399  14.949  20.715  0.00  0.00    +0.000 C 
ATOM     34  C   UNL     1      -6.879  15.305  22.127  0.00  0.00    +0.000 C 
ENDBRANCH  28  29
ENDBRANCH  25  28
ENDBRANCH  19  22
ENDBRANCH   4  18
TORSDOF 6
ENDMDL
MODEL 9
REMARK VINA RESULT:      -8.1      8.527     10.538
REMARK  Name = 
REMARK  7 active torsions:
REMARK  status: ('A' for Active; 'I' for Inactive)
REMARK    1  A    between atoms: C_1  and  C_2
REMARK    2  A    between atoms: N_6  and  C_7
REMARK    3  A    between atoms: N_10  and  C_11
REMARK    4  A    between atoms: C_14  and  N_15
REMARK    5  A    between atoms: C_16  and  C_18
REMARK    6  A    between atoms: C_21  and  C_22
REMARK    7  A    between atoms: C_22  and  N_23
REMARK                            x       y       z     vdW  Elec       q    Type
REMARK                         _______ _______ _______ _____ _____    ______ ____
ROOT
ATOM      1  C   UNL     1       2.519   6.562  18.999  0.00  0.00    +0.000 A 
ATOM      2  C   UNL     1       1.961   6.512  20.278  0.00  0.00    +0.000 A 
ATOM      3  C   UNL     1       1.319   7.612  20.855  0.00  0.00    +0.000 A 
ATOM      4  C   UNL     1       1.213   8.815  20.169  0.00  0.00    +0.000 A 
ATOM      5  C   UNL     1       1.759   8.899  18.891  0.00  0.00    +0.000 A 
ATOM      6  C   UNL     1       2.411   7.789  18.326  0.00  0.00    +0.000 A 
ENDROOT
BRANCH   1  10
ATOM      7  C   UNL     1       4.429   4.098  16.956  0.00  0.00    +0.000 C 
ATOM      8  C   UNL     1       4.093   3.340  18.252  0.00  0.00    +0.000 C 
ATOM      9  C   UNL     1       2.907   4.095  18.837  0.00  0.00    +0.000 C 
ATOM     10  N   UNL     1       3.168   5.478  18.463  0.00  0.00    +0.000 N 
ATOM     11  C   UNL     1       3.944   5.546  17.233  0.00  0.00    +0.000 C 
BRANCH   7  17
ATOM     12  C   UNL     1       7.628   4.720  17.880  0.00  0.00    +0.000 C 
ATOM     13  C   UNL     1       6.730   5.038  16.688  0.00  0.00    +0.000 C 
ATOM     14  C   UNL     1       7.549   5.214  15.413  0.00  0.00    +0.000 C 
ATOM     15  C   UNL     1       6.561   4.835  14.335  0.00  0.00    +0.000 C 
ATOM     16  C   UNL     1       5.828   3.661  14.964  0.00  0.00    +0.000 C 
ATOM     17  N   UNL     1       5.797   3.926  16.415  0.00  0.00    +0.000 NA
ENDBRANCH   7  17
ENDBRANCH   1  10
BRANCH   4  18
ATOM     18  N   UNL     1       0.582   9.960  20.702  0.00  0.00    +0.000 N 
ATOM     19  C   UNL     1      -0.581  10.536  20.219  0.00  0.00    +0.000 C 
ATOM     20  O   UNL     1      -1.254  10.155  19.268  0.00  0.00    +0.000 OA
ATOM     21  H   UNL     1       0.972  10.331  21.556  0.00  0.00    +0.000 HD
BRANCH  19  22
ATOM     22  C   UNL     1      -1.080  11.726  20.949  0.00  0.00    +0.000 A 
ATOM     23  C   UNL     1      -0.571  12.122  22.192  0.00  0.00    +0.000 A 
ATOM     24  C   UNL     1      -1.004  13.325  22.762  0.00  0.00    +0.000 A 
ATOM     25  C   UNL     1      -1.921  14.151  22.091  0.00  0.00    +0.000 A 
ATOM     26  C   UNL     1      -2.461  13.713  20.874  0.00  0.00    +0.000 A 
ATOM     27  C   UNL     1      -2.035  12.516  20.305  0.00  0.00    +0.000 A 
BRANCH  25  28
ATOM     28  C   UNL     1      -2.331  15.496  22.651  0.00  0.00    +0.000 C 
BRANCH  28  29
ATOM     29  N   UNL     1      -3.085  15.524  23.903  0.00  0.00    +0.000 NA
ATOM     30  C   UNL     1      -4.233  14.616  24.024  0.00  0.00    +0.000 C 
ATOM     31  C   UNL     1      -5.599  15.213  23.628  0.00  0.00    +0.000 C 
ATOM     32  O   UNL     1      -5.833  16.488  24.238  0.00  0.00    +0.000 OA
ATOM     33  C   UNL     1      -4.770  17.402  23.948  0.00  0.00    +0.000 C 
ATOM     34  C   UNL     1      -3.423  16.850  24.429  0.00  0.00    +0.000 C 
ENDBRANCH  28  29
ENDBRANCH  25  28
ENDBRANCH  19  22
ENDBRANCH   4  18
TORSDOF 6
ENDMDL
