MODEL 1
REMARK VINA RESULT:      -7.9      0.000      0.000
REMARK  Name = 
REMARK  7 active torsions:
REMARK  status: ('A' for Active; 'I' for Inactive)
REMARK    1  A    between atoms: C_1  and  C_2
REMARK    2  A    between atoms: C_2  and  C_3
REMARK    3  A    between atoms: C_3  and  N_4
REMARK    4  A    between atoms: C_5  and  C_7
REMARK    5  A    between atoms: C_7  and  N_8
REMARK    6  A    between atoms: C_12  and  C_13
REMARK    7  A    between atoms: C_13  and  C_14
REMARK                            x       y       z     vdW  Elec       q    Type
REMARK                         _______ _______ _______ _____ _____    ______ ____
ROOT
ATOM      1  N   UNL     1       5.325   4.743  17.239  0.00  0.00    +0.000 N 
ATOM      2  C   UNL     1       4.276   3.884  17.328  0.00  0.00    +0.000 C 
ATOM      3  O   UNL     1       4.316   2.665  17.296  0.00  0.00    +0.000 OA
ATOM      4  N   UNL     1       3.127   4.619  17.473  0.00  0.00    +0.000 N 
ATOM      5  C   UNL     1       3.381   6.038  17.549  0.00  0.00    +0.000 C 
ATOM      6  C   UNL     1       4.901   6.039  17.338  0.00  0.00    +0.000 C 
ATOM      7  O   UNL     1       5.606   7.037  17.294  0.00  0.00    +0.000 OA
ATOM      8  H   UNL     1       2.213   4.185  17.517  0.00  0.00    +0.000 HD
ENDROOT
BRANCH   1   9
ATOM      9  C   UNL     1       6.659   4.330  16.871  0.00  0.00    +0.000 C 
BRANCH   9  11
ATOM     10  N   UNL     1       6.294   3.739  14.520  0.00  0.00    +0.000 N 
ATOM     11  C   UNL     1       6.866   4.651  15.386  0.00  0.00    +0.000 C 
ATOM     12  O   UNL     1       7.501   5.628  14.989  0.00  0.00    +0.000 OA
ATOM     13  H   UNL     1       5.816   2.925  14.883  0.00  0.00    +0.000 HD
BRANCH  10  14
ATOM     14  C   UNL     1       6.441   3.869  13.082  0.00  0.00    +0.000 C 
BRANCH  14  16
ATOM     15  C   UNL     1       5.685   2.051  11.481  0.00  0.00    +0.000 C 
ATOM     16  C   UNL     1       5.271   3.258  12.311  0.00  0.00    +0.000 C 
ENDBRANCH  14  16
ENDBRANCH  10  14
ENDBRANCH   9  11
ENDBRANCH   1   9
BRANCH   5  17
ATOM     17  C   UNL     1       3.019   6.636  18.911  0.00  0.00    +0.000 C 
BRANCH  17  18
ATOM     18  C   UNL     1       2.269   7.933  18.794  0.00  0.00    +0.000 A 
ATOM     19  C   UNL     1       2.191   8.741  17.677  0.00  0.00    +0.000 A 
ATOM     20  N   UNL     1       1.370   9.798  17.963  0.00  0.00    +0.000 N 
ATOM     21  C   UNL     1       0.892   9.697  19.249  0.00  0.00    +0.000 A 
ATOM     22  C   UNL     1      -0.000  10.519  19.946  0.00  0.00    +0.000 A 
ATOM     23  C   UNL     1      -0.311  10.169  21.265  0.00  0.00    +0.000 A 
ATOM     24  C   UNL     1       0.271   9.055  21.865  0.00  0.00    +0.000 A 
ATOM     25  C   UNL     1       1.166   8.247  21.153  0.00  0.00    +0.000 A 
ATOM     26  C   UNL     1       1.473   8.557  19.811  0.00  0.00    +0.000 A 
ATOM     27  H   UNL     1       1.132  10.544  17.324  0.00  0.00    +0.000 HD
ENDBRANCH  17  18
ENDBRANCH   5  17
TORSDOF 6
ENDMDL
MODEL 2
REMARK VINA RESULT:      -7.9      1.495      2.555
REMARK  Name = 
REMARK  7 active torsions:
REMARK  status: ('A' for Active; 'I' for Inactive)
REMARK    1  A    between atoms: C_1  and  C_2
REMARK    2  A    between atoms: C_2  and  C_3
REMARK    3  A    between atoms: C_3  and  N_4
REMARK    4  A    between atoms: C_5  and  C_7
REMARK    5  A    between atoms: C_7  and  N_8
REMARK    6  A    between atoms: C_12  and  C_13
REMARK    7  A    between atoms: C_13  and  C_14
REMARK                            x       y       z     vdW  Elec       q    Type
REMARK                         _______ _______ _______ _____ _____    ______ ____
ROOT
ATOM      1  N   UNL     1       6.381   5.035  16.542  0.00  0.00    +0.000 N 
ATOM      2  C   UNL     1       6.690   6.278  16.999  0.00  0.00    +0.000 C 
ATOM      3  O   UNL     1       7.615   6.987  16.640  0.00  0.00    +0.000 OA
ATOM      4  N   UNL     1       5.766   6.630  17.949  0.00  0.00    +0.000 N 
ATOM      5  C   UNL     1       4.739   5.630  18.125  0.00  0.00    +0.000 C 
ATOM      6  C   UNL     1       5.259   4.556  17.159  0.00  0.00    +0.000 C 
ATOM      7  O   UNL     1       4.732   3.470  16.962  0.00  0.00    +0.000 OA
ATOM      8  H   UNL     1       5.825   7.504  18.458  0.00  0.00    +0.000 HD
ENDROOT
BRANCH   1   9
ATOM      9  C   UNL     1       7.256   4.264  15.690  0.00  0.00    +0.000 C 
BRANCH   9  11
ATOM     10  N   UNL     1       6.245   3.395  13.634  0.00  0.00    +0.000 N 
ATOM     11  C   UNL     1       6.830   4.493  14.235  0.00  0.00    +0.000 C 
ATOM     12  O   UNL     1       7.006   5.555  13.639  0.00  0.00    +0.000 OA
ATOM     13  H   UNL     1       6.156   2.525  14.142  0.00  0.00    +0.000 HD
BRANCH  10  14
ATOM     14  C   UNL     1       5.831   3.427  12.243  0.00  0.00    +0.000 C 
BRANCH  14  16
ATOM     15  C   UNL     1       3.885   3.382  10.616  0.00  0.00    +0.000 C 
ATOM     16  C   UNL     1       4.313   3.363  12.076  0.00  0.00    +0.000 C 
ENDBRANCH  14  16
ENDBRANCH  10  14
ENDBRANCH   9  11
ENDBRANCH   1   9
BRANCH   5  17
ATOM     17  C   UNL     1       3.352   6.119  17.703  0.00  0.00    +0.000 C 
BRANCH  17  18
ATOM     18  C   UNL     1       2.596   6.763  18.831  0.00  0.00    +0.000 A 
ATOM     19  C   UNL     1       2.362   6.222  20.079  0.00  0.00    +0.000 A 
ATOM     20  N   UNL     1       1.686   7.145  20.831  0.00  0.00    +0.000 N 
ATOM     21  C   UNL     1       1.479   8.294  20.105  0.00  0.00    +0.000 A 
ATOM     22  C   UNL     1       0.877   9.501  20.478  0.00  0.00    +0.000 A 
ATOM     23  C   UNL     1       0.802  10.515  19.517  0.00  0.00    +0.000 A 
ATOM     24  C   UNL     1       1.290  10.314  18.228  0.00  0.00    +0.000 A 
ATOM     25  C   UNL     1       1.886   9.098  17.870  0.00  0.00    +0.000 A 
ATOM     26  C   UNL     1       2.004   8.070  18.829  0.00  0.00    +0.000 A 
ATOM     27  H   UNL     1       1.388   7.014  21.789  0.00  0.00    +0.000 HD
ENDBRANCH  17  18
ENDBRANCH   5  17
TORSDOF 6
ENDMDL
MODEL 3
REMARK VINA RESULT:      -7.8      2.847      7.982
REMARK  Name = 
REMARK  7 active torsions:
REMARK  status: ('A' for Active; 'I' for Inactive)
REMARK    1  A    between atoms: C_1  and  C_2
REMARK    2  A    between atoms: C_2  and  C_3
REMARK    3  A    between atoms: C_3  and  N_4
REMARK    4  A    between atoms: C_5  and  C_7
REMARK    5  A    between atoms: C_7  and  N_8
REMARK    6  A    between atoms: C_12  and  C_13
REMARK    7  A    between atoms: C_13  and  C_14
REMARK                            x       y       z     vdW  Elec       q    Type
REMARK                         _______ _______ _______ _____ _____    ______ ____
ROOT
ATOM      1  N   UNL     1       3.198   2.618  19.046  0.00  0.00    +0.000 N 
ATOM      2  C   UNL     1       4.459   2.565  19.551  0.00  0.00    +0.000 C 
ATOM      3  O   UNL     1       4.828   1.972  20.550  0.00  0.00    +0.000 OA
ATOM      4  N   UNL     1       5.282   3.295  18.733  0.00  0.00    +0.000 N 
ATOM      5  C   UNL     1       4.593   3.830  17.582  0.00  0.00    +0.000 C 
ATOM      6  C   UNL     1       3.166   3.359  17.896  0.00  0.00    +0.000 C 
ATOM      7  O   UNL     1       2.180   3.589  17.211  0.00  0.00    +0.000 OA
ATOM      8  H   UNL     1       6.265   3.429  18.940  0.00  0.00    +0.000 HD
ENDROOT
BRANCH   1   9
ATOM      9  C   UNL     1       2.037   2.140  19.760  0.00  0.00    +0.000 C 
BRANCH   9  11
ATOM     10  N   UNL     1       1.703   4.534  20.170  0.00  0.00    +0.000 N 
ATOM     11  C   UNL     1       1.550   3.261  20.686  0.00  0.00    +0.000 C 
ATOM     12  O   UNL     1       1.077   3.056  21.803  0.00  0.00    +0.000 OA
ATOM     13  H   UNL     1       2.136   4.667  19.265  0.00  0.00    +0.000 HD
BRANCH  10  14
ATOM     14  C   UNL     1       1.340   5.709  20.939  0.00  0.00    +0.000 C 
BRANCH  14  16
ATOM     15  C   UNL     1       2.539   6.792  18.983  0.00  0.00    +0.000 C 
ATOM     16  C   UNL     1       1.912   7.000  20.354  0.00  0.00    +0.000 C 
ENDBRANCH  14  16
ENDBRANCH  10  14
ENDBRANCH   9  11
ENDBRANCH   1   9
BRANCH   5  17
ATOM     17  C   UNL     1       5.085   3.236  16.261  0.00  0.00    +0.000 C 
BRANCH  17  18
ATOM     18  C   UNL     1       6.051   4.137  15.544  0.00  0.00    +0.000 A 
ATOM     19  C   UNL     1       6.855   5.103  16.116  0.00  0.00    +0.000 A 
ATOM     20  N   UNL     1       7.624   5.663  15.132  0.00  0.00    +0.000 N 
ATOM     21  C   UNL     1       7.352   5.075  13.919  0.00  0.00    +0.000 A 
ATOM     22  C   UNL     1       7.922   5.298  12.660  0.00  0.00    +0.000 A 
ATOM     23  C   UNL     1       7.440   4.543  11.586  0.00  0.00    +0.000 A 
ATOM     24  C   UNL     1       6.410   3.623  11.764  0.00  0.00    +0.000 A 
ATOM     25  C   UNL     1       5.847   3.417  13.030  0.00  0.00    +0.000 A 
ATOM     26  C   UNL     1       6.336   4.140  14.138  0.00  0.00    +0.000 A 
ATOM     27  H   UNL     1       8.307   6.396  15.269  0.00  0.00    +0.000 HD
ENDBRANCH  17  18
ENDBRANCH   5  17
TORSDOF 6
ENDMDL
MODEL 4
REMARK VINA RESULT:      -7.7      2.030      3.188
REMARK  Name = 
REMARK  7 active torsions:
REMARK  status: ('A' for Active; 'I' for Inactive)
REMARK    1  A    between atoms: C_1  and  C_2
REMARK    2  A    between atoms: C_2  and  C_3
REMARK    3  A    between atoms: C_3  and  N_4
REMARK    4  A    between atoms: C_5  and  C_7
REMARK    5  A    between atoms: C_7  and  N_8
REMARK    6  A    between atoms: C_12  and  C_13
REMARK    7  A    between atoms: C_13  and  C_14
REMARK                            x       y       z     vdW  Elec       q    Type
REMARK                         _______ _______ _______ _____ _____    ______ ____
ROOT
ATOM      1  N   UNL     1       5.502   4.904  17.795  0.00  0.00    +0.000 N 
ATOM      2  C   UNL     1       5.771   4.609  19.094  0.00  0.00    +0.000 C 
ATOM      3  O   UNL     1       6.507   5.220  19.851  0.00  0.00    +0.000 OA
ATOM      4  N   UNL     1       5.060   3.489  19.440  0.00  0.00    +0.000 N 
ATOM      5  C   UNL     1       4.215   3.014  18.369  0.00  0.00    +0.000 C 
ATOM      6  C   UNL     1       4.611   4.009  17.269  0.00  0.00    +0.000 C 
ATOM      7  O   UNL     1       4.173   4.009  16.127  0.00  0.00    +0.000 OA
ATOM      8  H   UNL     1       5.140   3.063  20.355  0.00  0.00    +0.000 HD
ENDROOT
BRANCH   1   9
ATOM      9  C   UNL     1       6.234   5.891  17.037  0.00  0.00    +0.000 C 
BRANCH   9  11
ATOM     10  N   UNL     1       6.385   5.421  14.636  0.00  0.00    +0.000 N 
ATOM     11  C   UNL     1       6.940   5.178  15.878  0.00  0.00    +0.000 C 
ATOM     12  O   UNL     1       7.910   4.436  16.032  0.00  0.00    +0.000 OA
ATOM     13  H   UNL     1       5.562   6.003  14.553  0.00  0.00    +0.000 HD
BRANCH  10  14
ATOM     14  C   UNL     1       6.902   4.783  13.441  0.00  0.00    +0.000 C 
BRANCH  14  16
ATOM     15  C   UNL     1       5.580   3.347  11.820  0.00  0.00    +0.000 C 
ATOM     16  C   UNL     1       6.266   3.419  13.176  0.00  0.00    +0.000 C 
ENDBRANCH  14  16
ENDBRANCH  10  14
ENDBRANCH   9  11
ENDBRANCH   1   9
BRANCH   5  17
ATOM     17  C   UNL     1       2.724   3.122  18.692  0.00  0.00    +0.000 C 
BRANCH  17  18
ATOM     18  C   UNL     1       2.404   4.302  19.566  0.00  0.00    +0.000 A 
ATOM     19  C   UNL     1       2.238   4.290  20.936  0.00  0.00    +0.000 A 
ATOM     20  N   UNL     1       2.011   5.573  21.356  0.00  0.00    +0.000 N 
ATOM     21  C   UNL     1       2.036   6.438  20.287  0.00  0.00    +0.000 A 
ATOM     22  C   UNL     1       1.897   7.830  20.248  0.00  0.00    +0.000 A 
ATOM     23  C   UNL     1       1.965   8.455  18.999  0.00  0.00    +0.000 A 
ATOM     24  C   UNL     1       2.139   7.711  17.835  0.00  0.00    +0.000 A 
ATOM     25  C   UNL     1       2.271   6.317  17.892  0.00  0.00    +0.000 A 
ATOM     26  C   UNL     1       2.239   5.663  19.141  0.00  0.00    +0.000 A 
ATOM     27  H   UNL     1       1.859   5.857  22.314  0.00  0.00    +0.000 HD
ENDBRANCH  17  18
ENDBRANCH   5  17
TORSDOF 6
ENDMDL
MODEL 5
REMARK VINA RESULT:      -7.7      3.794      7.719
REMARK  Name = 
REMARK  7 active torsions:
REMARK  status: ('A' for Active; 'I' for Inactive)
REMARK    1  A    between atoms: C_1  and  C_2
REMARK    2  A    between atoms: C_2  and  C_3
REMARK    3  A    between atoms: C_3  and  N_4
REMARK    4  A    between atoms: C_5  and  C_7
REMARK    5  A    between atoms: C_7  and  N_8
REMARK    6  A    between atoms: C_12  and  C_13
REMARK    7  A    between atoms: C_13  and  C_14
REMARK                            x       y       z     vdW  Elec       q    Type
REMARK                         _______ _______ _______ _____ _____    ______ ____
ROOT
ATOM      1  N   UNL     1       0.930   9.770  19.179  0.00  0.00    +0.000 N 
ATOM      2  C   UNL     1       0.857   9.070  20.342  0.00  0.00    +0.000 C 
ATOM      3  O   UNL     1       0.159   9.320  21.311  0.00  0.00    +0.000 OA
ATOM      4  N   UNL     1       1.708   7.999  20.255  0.00  0.00    +0.000 N 
ATOM      5  C   UNL     1       2.357   7.906  18.968  0.00  0.00    +0.000 C 
ATOM      6  C   UNL     1       1.803   9.177  18.310  0.00  0.00    +0.000 C 
ATOM      7  O   UNL     1       2.083   9.568  17.185  0.00  0.00    +0.000 OA
ATOM      8  H   UNL     1       1.848   7.359  21.028  0.00  0.00    +0.000 HD
ENDROOT
BRANCH   1   9
ATOM      9  C   UNL     1       0.330  11.071  18.998  0.00  0.00    +0.000 C 
BRANCH   9  11
ATOM     10  N   UNL     1      -1.242  10.154  17.355  0.00  0.00    +0.000 N 
ATOM     11  C   UNL     1      -1.116  10.870  18.531  0.00  0.00    +0.000 C 
ATOM     12  O   UNL     1      -2.090  11.319  19.136  0.00  0.00    +0.000 OA
ATOM     13  H   UNL     1      -0.417   9.838  16.863  0.00  0.00    +0.000 HD
BRANCH  10  14
ATOM     14  C   UNL     1      -2.539   9.920  16.750  0.00  0.00    +0.000 C 
BRANCH  14  16
ATOM     15  C   UNL     1      -3.073  10.060  14.273  0.00  0.00    +0.000 C 
ATOM     16  C   UNL     1      -2.808  10.835  15.556  0.00  0.00    +0.000 C 
ENDBRANCH  14  16
ENDBRANCH  10  14
ENDBRANCH   9  11
ENDBRANCH   1   9
BRANCH   5  17
ATOM     17  C   UNL     1       1.944   6.660  18.181  0.00  0.00    +0.000 C 
BRANCH  17  18
ATOM     18  C   UNL     1       2.748   5.446  18.553  0.00  0.00    +0.000 A 
ATOM     19  C   UNL     1       3.955   5.059  18.005  0.00  0.00    +0.000 A 
ATOM     20  N   UNL     1       4.383   3.932  18.653  0.00  0.00    +0.000 N 
ATOM     21  C   UNL     1       3.486   3.572  19.631  0.00  0.00    +0.000 A 
ATOM     22  C   UNL     1       3.532   2.525  20.557  0.00  0.00    +0.000 A 
ATOM     23  C   UNL     1       2.461   2.396  21.447  0.00  0.00    +0.000 A 
ATOM     24  C   UNL     1       1.376   3.268  21.390  0.00  0.00    +0.000 A 
ATOM     25  C   UNL     1       1.343   4.307  20.453  0.00  0.00    +0.000 A 
ATOM     26  C   UNL     1       2.426   4.481  19.564  0.00  0.00    +0.000 A 
ATOM     27  H   UNL     1       5.242   3.435  18.457  0.00  0.00    +0.000 HD
ENDBRANCH  17  18
ENDBRANCH   5  17
TORSDOF 6
ENDMDL
MODEL 6
REMARK VINA RESULT:      -7.6      3.080      8.078
REMARK  Name = 
REMARK  7 active torsions:
REMARK  status: ('A' for Active; 'I' for Inactive)
REMARK    1  A    between atoms: C_1  and  C_2
REMARK    2  A    between atoms: C_2  and  C_3
REMARK    3  A    between atoms: C_3  and  N_4
REMARK    4  A    between atoms: C_5  and  C_7
REMARK    5  A    between atoms: C_7  and  N_8
REMARK    6  A    between atoms: C_12  and  C_13
REMARK    7  A    between atoms: C_13  and  C_14
REMARK                            x       y       z     vdW  Elec       q    Type
REMARK                         _______ _______ _______ _____ _____    ______ ____
ROOT
ATOM      1  N   UNL     1       1.435   9.024  19.351  0.00  0.00    +0.000 N 
ATOM      2  C   UNL     1       1.409   8.328  20.518  0.00  0.00    +0.000 C 
ATOM      3  O   UNL     1       0.826   8.632  21.545  0.00  0.00    +0.000 OA
ATOM      4  N   UNL     1       2.155   7.189  20.358  0.00  0.00    +0.000 N 
ATOM      5  C   UNL     1       2.674   7.047  19.017  0.00  0.00    +0.000 C 
ATOM      6  C   UNL     1       2.172   8.364  18.408  0.00  0.00    +0.000 C 
ATOM      7  O   UNL     1       2.381   8.735  17.262  0.00  0.00    +0.000 OA
ATOM      8  H   UNL     1       2.310   6.536  21.117  0.00  0.00    +0.000 HD
ENDROOT
BRANCH   1   9
ATOM      9  C   UNL     1       0.933  10.372  19.221  0.00  0.00    +0.000 C 
BRANCH   9  11
ATOM     10  N   UNL     1      -0.761   9.888  17.517  0.00  0.00    +0.000 N 
ATOM     11  C   UNL     1      -0.544  10.296  18.819  0.00  0.00    +0.000 C 
ATOM     12  O   UNL     1      -1.467  10.588  19.580  0.00  0.00    +0.000 OA
ATOM     13  H   UNL     1       0.024   9.698  16.907  0.00  0.00    +0.000 HD
BRANCH  10  14
ATOM     14  C   UNL     1      -2.099   9.813  16.962  0.00  0.00    +0.000 C 
BRANCH  14  16
ATOM     15  C   UNL     1      -4.063  11.386  16.641  0.00  0.00    +0.000 C 
ATOM     16  C   UNL     1      -2.581  11.148  16.395  0.00  0.00    +0.000 C 
ENDBRANCH  14  16
ENDBRANCH  10  14
ENDBRANCH   9  11
ENDBRANCH   1   9
BRANCH   5  17
ATOM     17  C   UNL     1       2.088   5.845  18.275  0.00  0.00    +0.000 C 
BRANCH  17  18
ATOM     18  C   UNL     1       3.138   4.855  17.853  0.00  0.00    +0.000 A 
ATOM     19  C   UNL     1       3.195   3.519  18.198  0.00  0.00    +0.000 A 
ATOM     20  N   UNL     1       4.271   2.955  17.568  0.00  0.00    +0.000 N 
ATOM     21  C   UNL     1       4.921   3.893  16.799  0.00  0.00    +0.000 A 
ATOM     22  C   UNL     1       6.032   3.758  15.960  0.00  0.00    +0.000 A 
ATOM     23  C   UNL     1       6.485   4.901  15.293  0.00  0.00    +0.000 A 
ATOM     24  C   UNL     1       5.863   6.133  15.482  0.00  0.00    +0.000 A 
ATOM     25  C   UNL     1       4.755   6.251  16.331  0.00  0.00    +0.000 A 
ATOM     26  C   UNL     1       4.256   5.108  16.991  0.00  0.00    +0.000 A 
ATOM     27  H   UNL     1       4.549   1.986  17.639  0.00  0.00    +0.000 HD
ENDBRANCH  17  18
ENDBRANCH   5  17
TORSDOF 6
ENDMDL
MODEL 7
REMARK VINA RESULT:      -7.5      2.967      3.982
REMARK  Name = 
REMARK  7 active torsions:
REMARK  status: ('A' for Active; 'I' for Inactive)
REMARK    1  A    between atoms: C_1  and  C_2
REMARK    2  A    between atoms: C_2  and  C_3
REMARK    3  A    between atoms: C_3  and  N_4
REMARK    4  A    between atoms: C_5  and  C_7
REMARK    5  A    between atoms: C_7  and  N_8
REMARK    6  A    between atoms: C_12  and  C_13
REMARK    7  A    between atoms: C_13  and  C_14
REMARK                            x       y       z     vdW  Elec       q    Type
REMARK                         _______ _______ _______ _____ _____    ______ ____
ROOT
ATOM      1  N   UNL     1       6.402   5.278  16.895  0.00  0.00    +0.000 N 
ATOM      2  C   UNL     1       6.546   6.607  17.139  0.00  0.00    +0.000 C 
ATOM      3  O   UNL     1       7.391   7.355  16.676  0.00  0.00    +0.000 OA
ATOM      4  N   UNL     1       5.558   6.997  18.006  0.00  0.00    +0.000 N 
ATOM      5  C   UNL     1       4.653   5.922  18.338  0.00  0.00    +0.000 C 
ATOM      6  C   UNL     1       5.326   4.774  17.573  0.00  0.00    +0.000 C 
ATOM      7  O   UNL     1       4.939   3.615  17.557  0.00  0.00    +0.000 OA
ATOM      8  H   UNL     1       5.497   7.944  18.361  0.00  0.00    +0.000 HD
ENDROOT
BRANCH   1   9
ATOM      9  C   UNL     1       7.388   4.489  16.196  0.00  0.00    +0.000 C 
BRANCH   9  11
ATOM     10  N   UNL     1       6.352   3.639  14.144  0.00  0.00    +0.000 N 
ATOM     11  C   UNL     1       7.138   4.636  14.690  0.00  0.00    +0.000 C 
ATOM     12  O   UNL     1       7.607   5.550  14.014  0.00  0.00    +0.000 OA
ATOM     13  H   UNL     1       6.019   2.880  14.723  0.00  0.00    +0.000 HD
BRANCH  10  14
ATOM     14  C   UNL     1       6.061   3.602  12.723  0.00  0.00    +0.000 C 
BRANCH  14  16
ATOM     15  C   UNL     1       4.254   2.957  11.063  0.00  0.00    +0.000 C 
ATOM     16  C   UNL     1       4.562   3.559  12.426  0.00  0.00    +0.000 C 
ENDBRANCH  14  16
ENDBRANCH  10  14
ENDBRANCH   9  11
ENDBRANCH   1   9
BRANCH   5  17
ATOM     17  C   UNL     1       3.231   6.160  17.825  0.00  0.00    +0.000 C 
BRANCH  17  18
ATOM     18  C   UNL     1       2.295   5.035  18.168  0.00  0.00    +0.000 A 
ATOM     19  C   UNL     1       1.454   4.371  17.296  0.00  0.00    +0.000 A 
ATOM     20  N   UNL     1       0.809   3.381  17.988  0.00  0.00    +0.000 N 
ATOM     21  C   UNL     1       1.219   3.369  19.301  0.00  0.00    +0.000 A 
ATOM     22  C   UNL     1       0.863   2.514  20.349  0.00  0.00    +0.000 A 
ATOM     23  C   UNL     1       1.445   2.743  21.600  0.00  0.00    +0.000 A 
ATOM     24  C   UNL     1       2.327   3.803  21.795  0.00  0.00    +0.000 A 
ATOM     25  C   UNL     1       2.668   4.653  20.736  0.00  0.00    +0.000 A 
ATOM     26  C   UNL     1       2.122   4.426  19.455  0.00  0.00    +0.000 A 
ATOM     27  H   UNL     1       0.137   2.736  17.595  0.00  0.00    +0.000 HD
ENDBRANCH  17  18
ENDBRANCH   5  17
TORSDOF 6
ENDMDL
MODEL 8
REMARK VINA RESULT:      -7.5      3.322      4.183
REMARK  Name = 
REMARK  7 active torsions:
REMARK  status: ('A' for Active; 'I' for Inactive)
REMARK    1  A    between atoms: C_1  and  C_2
REMARK    2  A    between atoms: C_2  and  C_3
REMARK    3  A    between atoms: C_3  and  N_4
REMARK    4  A    between atoms: C_5  and  C_7
REMARK    5  A    between atoms: C_7  and  N_8
REMARK    6  A    between atoms: C_12  and  C_13
REMARK    7  A    between atoms: C_13  and  C_14
REMARK                            x       y       z     vdW  Elec       q    Type
REMARK                         _______ _______ _______ _____ _____    ______ ____
ROOT
ATOM      1  N   UNL     1       6.718   5.400  15.977  0.00  0.00    +0.000 N 
ATOM      2  C   UNL     1       5.683   6.240  16.247  0.00  0.00    +0.000 C 
ATOM      3  O   UNL     1       4.934   6.769  15.443  0.00  0.00    +0.000 OA
ATOM      4  N   UNL     1       5.600   6.399  17.606  0.00  0.00    +0.000 N 
ATOM      5  C   UNL     1       6.569   5.601  18.321  0.00  0.00    +0.000 C 
ATOM      6  C   UNL     1       7.319   4.984  17.132  0.00  0.00    +0.000 C 
ATOM      7  O   UNL     1       8.275   4.227  17.218  0.00  0.00    +0.000 OA
ATOM      8  H   UNL     1       4.924   7.019  18.034  0.00  0.00    +0.000 HD
ENDROOT
BRANCH   1   9
ATOM      9  C   UNL     1       7.227   5.174  14.645  0.00  0.00    +0.000 C 
BRANCH   9  11
ATOM     10  N   UNL     1       6.447   3.993  12.644  0.00  0.00    +0.000 N 
ATOM     11  C   UNL     1       6.447   4.008  14.026  0.00  0.00    +0.000 C 
ATOM     12  O   UNL     1       5.854   3.162  14.693  0.00  0.00    +0.000 OA
ATOM     13  H   UNL     1       6.910   4.730  12.127  0.00  0.00    +0.000 HD
BRANCH  10  14
ATOM     14  C   UNL     1       5.713   2.986  11.901  0.00  0.00    +0.000 C 
BRANCH  14  16
ATOM     15  C   UNL     1       3.737   3.589  10.427  0.00  0.00    +0.000 C 
ATOM     16  C   UNL     1       4.213   3.274  11.837  0.00  0.00    +0.000 C 
ENDBRANCH  14  16
ENDBRANCH  10  14
ENDBRANCH   9  11
ENDBRANCH   1   9
BRANCH   5  17
ATOM     17  C   UNL     1       5.925   4.514  19.183  0.00  0.00    +0.000 C 
BRANCH  17  18
ATOM     18  C   UNL     1       4.608   4.042  18.635  0.00  0.00    +0.000 A 
ATOM     19  C   UNL     1       4.404   3.379  17.441  0.00  0.00    +0.000 A 
ATOM     20  N   UNL     1       3.072   3.078  17.335  0.00  0.00    +0.000 N 
ATOM     21  C   UNL     1       2.393   3.519  18.447  0.00  0.00    +0.000 A 
ATOM     22  C   UNL     1       1.041   3.393  18.786  0.00  0.00    +0.000 A 
ATOM     23  C   UNL     1       0.621   3.949  19.999  0.00  0.00    +0.000 A 
ATOM     24  C   UNL     1       1.517   4.624  20.824  0.00  0.00    +0.000 A 
ATOM     25  C   UNL     1       2.866   4.745  20.466  0.00  0.00    +0.000 A 
ATOM     26  C   UNL     1       3.324   4.166  19.263  0.00  0.00    +0.000 A 
ATOM     27  H   UNL     1       2.643   2.590  16.561  0.00  0.00    +0.000 HD
ENDBRANCH  17  18
ENDBRANCH   5  17
TORSDOF 6
ENDMDL
MODEL 9
REMARK VINA RESULT:      -7.5      2.437      8.092
REMARK  Name = 
REMARK  7 active torsions:
REMARK  status: ('A' for Active; 'I' for Inactive)
REMARK    1  A    between atoms: C_1  and  C_2
REMARK    2  A    between atoms: C_2  and  C_3
REMARK    3  A    between atoms: C_3  and  N_4
REMARK    4  A    between atoms: C_5  and  C_7
REMARK    5  A    between atoms: C_7  and  N_8
REMARK    6  A    between atoms: C_12  and  C_13
REMARK    7  A    between atoms: C_13  and  C_14
REMARK                            x       y       z     vdW  Elec       q    Type
REMARK                         _______ _______ _______ _____ _____    ______ ____
ROOT
ATOM      1  N   UNL     1       3.605   3.454  19.449  0.00  0.00    +0.000 N 
ATOM      2  C   UNL     1       3.501   2.414  18.580  0.00  0.00    +0.000 C 
ATOM      3  O   UNL     1       2.753   1.454  18.666  0.00  0.00    +0.000 OA
ATOM      4  N   UNL     1       4.385   2.619  17.553  0.00  0.00    +0.000 N 
ATOM      5  C   UNL     1       5.093   3.872  17.669  0.00  0.00    +0.000 C 
ATOM      6  C   UNL     1       4.534   4.359  19.013  0.00  0.00    +0.000 C 
ATOM      7  O   UNL     1       4.852   5.397  19.576  0.00  0.00    +0.000 OA
ATOM      8  H   UNL     1       4.509   1.945  16.807  0.00  0.00    +0.000 HD
ENDROOT
BRANCH   1   9
ATOM      9  C   UNL     1       2.977   3.467  20.749  0.00  0.00    +0.000 C 
BRANCH   9  11
ATOM     10  N   UNL     1       2.002   5.712  20.877  0.00  0.00    +0.000 N 
ATOM     11  C   UNL     1       1.740   4.371  20.674  0.00  0.00    +0.000 C 
ATOM     12  O   UNL     1       0.605   3.945  20.467  0.00  0.00    +0.000 OA
ATOM     13  H   UNL     1       2.942   6.021  21.087  0.00  0.00    +0.000 HD
BRANCH  10  14
ATOM     14  C   UNL     1       0.935   6.695  20.889  0.00  0.00    +0.000 C 
BRANCH  14  16
ATOM     15  C   UNL     1       0.462   8.975  21.898  0.00  0.00    +0.000 C 
ATOM     16  C   UNL     1       1.445   8.119  21.113  0.00  0.00    +0.000 C 
ENDBRANCH  14  16
ENDBRANCH  10  14
ENDBRANCH   9  11
ENDBRANCH   1   9
BRANCH   5  17
ATOM     17  C   UNL     1       4.753   4.856  16.548  0.00  0.00    +0.000 C 
BRANCH  17  18
ATOM     18  C   UNL     1       5.859   4.992  15.540  0.00  0.00    +0.000 A 
ATOM     19  C   UNL     1       7.065   5.639  15.724  0.00  0.00    +0.000 A 
ATOM     20  N   UNL     1       7.813   5.491  14.587  0.00  0.00    +0.000 N 
ATOM     21  C   UNL     1       7.129   4.744  13.658  0.00  0.00    +0.000 A 
ATOM     22  C   UNL     1       7.517   4.310  12.385  0.00  0.00    +0.000 A 
ATOM     23  C   UNL     1       6.600   3.553  11.649  0.00  0.00    +0.000 A 
ATOM     24  C   UNL     1       5.336   3.267  12.159  0.00  0.00    +0.000 A 
ATOM     25  C   UNL     1       4.962   3.713  13.433  0.00  0.00    +0.000 A 
ATOM     26  C   UNL     1       5.879   4.451  14.211  0.00  0.00    +0.000 A 
ATOM     27  H   UNL     1       8.744   5.861  14.447  0.00  0.00    +0.000 HD
ENDBRANCH  17  18
ENDBRANCH   5  17
TORSDOF 6
ENDMDL
