MODEL 1
REMARK VINA RESULT:      -6.9      0.000      0.000
REMARK  Name = 
REMARK  7 active torsions:
REMARK  status: ('A' for Active; 'I' for Inactive)
REMARK    1  A    between atoms: C_1  and  N_2
REMARK    2  A    between atoms: C_5  and  C_6
REMARK    3  A    between atoms: C_7  and  O_8
REMARK    4  A    between atoms: C_10  and  O_11
REMARK    5  A    between atoms: C_16  and  C_17
REMARK    6  A    between atoms: C_26  and  C_27
REMARK    7  A    between atoms: C_27  and  O_28
REMARK                            x       y       z     vdW  Elec       q    Type
REMARK                         _______ _______ _______ _____ _____    ______ ____
ROOT
ATOM      1  C   UNL     1       4.213   4.799  17.861  0.00  0.00    +0.000 A 
ATOM      2  C   UNL     1       4.553   3.490  17.478  0.00  0.00    +0.000 A 
ATOM      3  C   UNL     1       3.817   2.387  17.908  0.00  0.00    +0.000 A 
ATOM      4  C   UNL     1       2.725   2.559  18.755  0.00  0.00    +0.000 A 
ATOM      5  C   UNL     1       2.362   3.840  19.179  0.00  0.00    +0.000 A 
ATOM      6  C   UNL     1       1.216   4.075  20.095  0.00  0.00    +0.000 A 
ATOM      7  O   UNL     1       0.490   3.200  20.548  0.00  0.00    +0.000 OA
ATOM      8  C   UNL     1       0.958   5.470  20.483  0.00  0.00    +0.000 A 
ATOM      9  C   UNL     1       1.740   6.436  19.990  0.00  0.00    +0.000 A 
ATOM     10  O   UNL     1       2.798   6.234  19.132  0.00  0.00    +0.000 OA
ATOM     11  C   UNL     1       3.104   4.948  18.734  0.00  0.00    +0.000 A 
ENDROOT
BRANCH   9  12
ATOM     12  C   UNL     1       1.519   7.842  20.353  0.00  0.00    +0.000 A 
ATOM     13  C   UNL     1       1.359   8.169  21.708  0.00  0.00    +0.000 A 
ATOM     14  C   UNL     1       1.160   9.495  22.103  0.00  0.00    +0.000 A 
ATOM     15  C   UNL     1       1.119  10.509  21.149  0.00  0.00    +0.000 A 
ATOM     16  C   UNL     1       1.271  10.197  19.798  0.00  0.00    +0.000 A 
ATOM     17  C   UNL     1       1.467   8.872  19.398  0.00  0.00    +0.000 A 
ATOM     18 CL   UNL     1       1.637   8.556  17.706  0.00  0.00    +0.000 Cl
ENDBRANCH   9  12
BRANCH   1  23
ATOM     19  C   UNL     1       7.470   5.607  14.658  0.00  0.00    +0.000 C 
ATOM     20  N   UNL     1       6.239   5.620  15.439  0.00  0.00    +0.000 NA
ATOM     21  C   UNL     1       5.366   6.737  15.069  0.00  0.00    +0.000 C 
ATOM     22  C   UNL     1       4.300   6.704  16.155  0.00  0.00    +0.000 C 
ATOM     23  C   UNL     1       4.973   6.032  17.371  0.00  0.00    +0.000 C 
ATOM     24  C   UNL     1       6.420   5.719  16.908  0.00  0.00    +0.000 C 
BRANCH  24  25
ATOM     25  C   UNL     1       7.408   6.791  17.439  0.00  0.00    +0.000 C 
BRANCH  25  26
ATOM     26  O   UNL     1       7.967   6.451  18.705  0.00  0.00    +0.000 OA
ATOM     27  H   UNL     1       8.209   7.277  19.158  0.00  0.00    +0.000 HD
ENDBRANCH  25  26
ENDBRANCH  24  25
ENDBRANCH   1  23
BRANCH   2  28
ATOM     28  O   UNL     1       5.609   3.179  16.665  0.00  0.00    +0.000 OA
ATOM     29  H   UNL     1       5.490   2.292  16.264  0.00  0.00    +0.000 HD
ENDBRANCH   2  28
BRANCH   4  30
ATOM     30  O   UNL     1       2.034   1.453  19.160  0.00  0.00    +0.000 OA
ATOM     31  H   UNL     1       1.275   1.711  19.708  0.00  0.00    +0.000 HD
ENDBRANCH   4  30
TORSDOF 6
ENDMDL
MODEL 2
REMARK VINA RESULT:      -6.8      6.597      9.636
REMARK  Name = 
REMARK  7 active torsions:
REMARK  status: ('A' for Active; 'I' for Inactive)
REMARK    1  A    between atoms: C_1  and  N_2
REMARK    2  A    between atoms: C_5  and  C_6
REMARK    3  A    between atoms: C_7  and  O_8
REMARK    4  A    between atoms: C_10  and  O_11
REMARK    5  A    between atoms: C_16  and  C_17
REMARK    6  A    between atoms: C_26  and  C_27
REMARK    7  A    between atoms: C_27  and  O_28
REMARK                            x       y       z     vdW  Elec       q    Type
REMARK                         _______ _______ _______ _____ _____    ______ ____
ROOT
ATOM      1  C   UNL     1      -2.271  11.678  18.948  0.00  0.00    +0.000 A 
ATOM      2  C   UNL     1      -2.453  10.942  17.763  0.00  0.00    +0.000 A 
ATOM      3  C   UNL     1      -3.695  10.860  17.136  0.00  0.00    +0.000 A 
ATOM      4  C   UNL     1      -4.804  11.498  17.688  0.00  0.00    +0.000 A 
ATOM      5  C   UNL     1      -4.676  12.223  18.875  0.00  0.00    +0.000 A 
ATOM      6  C   UNL     1      -5.830  12.907  19.512  0.00  0.00    +0.000 A 
ATOM      7  O   UNL     1      -6.971  12.915  19.070  0.00  0.00    +0.000 OA
ATOM      8  C   UNL     1      -5.563  13.615  20.773  0.00  0.00    +0.000 A 
ATOM      9  C   UNL     1      -4.319  13.621  21.264  0.00  0.00    +0.000 A 
ATOM     10  O   UNL     1      -3.238  13.000  20.678  0.00  0.00    +0.000 OA
ATOM     11  C   UNL     1      -3.418  12.309  19.497  0.00  0.00    +0.000 A 
ENDROOT
BRANCH   9  12
ATOM     12  C   UNL     1      -4.008  14.313  22.520  0.00  0.00    +0.000 A 
ATOM     13  C   UNL     1      -4.264  15.690  22.611  0.00  0.00    +0.000 A 
ATOM     14  C   UNL     1      -3.997  16.389  23.791  0.00  0.00    +0.000 A 
ATOM     15  C   UNL     1      -3.472  15.721  24.895  0.00  0.00    +0.000 A 
ATOM     16  C   UNL     1      -3.207  14.354  24.817  0.00  0.00    +0.000 A 
ATOM     17  C   UNL     1      -3.470  13.651  23.637  0.00  0.00    +0.000 A 
ATOM     18 CL   UNL     1      -3.107  11.960  23.608  0.00  0.00    +0.000 Cl
ENDBRANCH   9  12
BRANCH   1  23
ATOM     19  C   UNL     1       1.455   8.969  19.493  0.00  0.00    +0.000 C 
ATOM     20  N   UNL     1       0.556  10.062  19.142  0.00  0.00    +0.000 NA
ATOM     21  C   UNL     1       1.288  11.268  18.745  0.00  0.00    +0.000 C 
ATOM     22  C   UNL     1       0.190  12.320  18.678  0.00  0.00    +0.000 C 
ATOM     23  C   UNL     1      -0.914  11.823  19.636  0.00  0.00    +0.000 C 
ATOM     24  C   UNL     1      -0.373  10.491  20.216  0.00  0.00    +0.000 C 
BRANCH  24  25
ATOM     25  C   UNL     1       0.221  10.713  21.632  0.00  0.00    +0.000 C 
BRANCH  25  26
ATOM     26  O   UNL     1      -0.047  12.014  22.148  0.00  0.00    +0.000 OA
ATOM     27  H   UNL     1      -0.794  11.944  22.766  0.00  0.00    +0.000 HD
ENDBRANCH  25  26
ENDBRANCH  24  25
ENDBRANCH   1  23
BRANCH   2  28
ATOM     28  O   UNL     1      -1.455  10.257  17.127  0.00  0.00    +0.000 OA
ATOM     29  H   UNL     1      -1.727  10.010  16.217  0.00  0.00    +0.000 HD
ENDBRANCH   2  28
BRANCH   4  30
ATOM     30  O   UNL     1      -6.004  11.388  17.047  0.00  0.00    +0.000 OA
ATOM     31  H   UNL     1      -6.512  10.642  17.406  0.00  0.00    +0.000 HD
ENDBRANCH   4  30
TORSDOF 6
ENDMDL
MODEL 3
REMARK VINA RESULT:      -6.8      6.894      9.924
REMARK  Name = 
REMARK  7 active torsions:
REMARK  status: ('A' for Active; 'I' for Inactive)
REMARK    1  A    between atoms: C_1  and  N_2
REMARK    2  A    between atoms: C_5  and  C_6
REMARK    3  A    between atoms: C_7  and  O_8
REMARK    4  A    between atoms: C_10  and  O_11
REMARK    5  A    between atoms: C_16  and  C_17
REMARK    6  A    between atoms: C_26  and  C_27
REMARK    7  A    between atoms: C_27  and  O_28
REMARK                            x       y       z     vdW  Elec       q    Type
REMARK                         _______ _______ _______ _____ _____    ______ ____
ROOT
ATOM      1  C   UNL     1      -2.014  11.609  19.151  0.00  0.00    +0.000 A 
ATOM      2  C   UNL     1      -1.525  10.900  18.041  0.00  0.00    +0.000 A 
ATOM      3  C   UNL     1      -2.330  10.618  16.939  0.00  0.00    +0.000 A 
ATOM      4  C   UNL     1      -3.663  11.021  16.922  0.00  0.00    +0.000 A 
ATOM      5  C   UNL     1      -4.201  11.711  18.013  0.00  0.00    +0.000 A 
ATOM      6  C   UNL     1      -5.619  12.148  18.051  0.00  0.00    +0.000 A 
ATOM      7  O   UNL     1      -6.433  11.965  17.155  0.00  0.00    +0.000 OA
ATOM      8  C   UNL     1      -6.062  12.843  19.269  0.00  0.00    +0.000 A 
ATOM      9  C   UNL     1      -5.182  13.055  20.252  0.00  0.00    +0.000 A 
ATOM     10  O   UNL     1      -3.861  12.665  20.225  0.00  0.00    +0.000 OA
ATOM     11  C   UNL     1      -3.379  11.999  19.117  0.00  0.00    +0.000 A 
ENDROOT
BRANCH   9  12
ATOM     12  C   UNL     1      -5.582  13.742  21.486  0.00  0.00    +0.000 A 
ATOM     13  C   UNL     1      -6.139  12.984  22.528  0.00  0.00    +0.000 A 
ATOM     14  C   UNL     1      -6.522  13.591  23.726  0.00  0.00    +0.000 A 
ATOM     15  C   UNL     1      -6.354  14.963  23.899  0.00  0.00    +0.000 A 
ATOM     16  C   UNL     1      -5.807  15.730  22.870  0.00  0.00    +0.000 A 
ATOM     17  C   UNL     1      -5.425  15.127  21.668  0.00  0.00    +0.000 A 
ATOM     18 CL   UNL     1      -4.765  16.140  20.431  0.00  0.00    +0.000 Cl
ENDBRANCH   9  12
BRANCH   1  23
ATOM     19  C   UNL     1       1.110   9.377  21.753  0.00  0.00    +0.000 C 
ATOM     20  N   UNL     1       0.445  10.324  20.868  0.00  0.00    +0.000 NA
ATOM     21  C   UNL     1       1.235  11.543  20.673  0.00  0.00    +0.000 C 
ATOM     22  C   UNL     1       0.262  12.462  19.949  0.00  0.00    +0.000 C 
ATOM     23  C   UNL     1      -1.145  11.972  20.356  0.00  0.00    +0.000 C 
ATOM     24  C   UNL     1      -0.895  10.780  21.314  0.00  0.00    +0.000 C 
BRANCH  24  25
ATOM     25  C   UNL     1      -1.043  11.227  22.793  0.00  0.00    +0.000 C 
BRANCH  25  26
ATOM     26  O   UNL     1      -2.225  11.989  23.025  0.00  0.00    +0.000 OA
ATOM     27  H   UNL     1      -2.602  11.707  23.877  0.00  0.00    +0.000 HD
ENDBRANCH  25  26
ENDBRANCH  24  25
ENDBRANCH   1  23
BRANCH   2  28
ATOM     28  O   UNL     1      -0.243  10.433  17.936  0.00  0.00    +0.000 OA
ATOM     29  H   UNL     1       0.375  10.991  18.456  0.00  0.00    +0.000 HD
ENDBRANCH   2  28
BRANCH   4  30
ATOM     30  O   UNL     1      -4.421  10.720  15.828  0.00  0.00    +0.000 OA
ATOM     31  H   UNL     1      -5.365  10.760  16.049  0.00  0.00    +0.000 HD
ENDBRANCH   4  30
TORSDOF 6
ENDMDL
MODEL 4
REMARK VINA RESULT:      -6.7      6.870      9.888
REMARK  Name = 
REMARK  7 active torsions:
REMARK  status: ('A' for Active; 'I' for Inactive)
REMARK    1  A    between atoms: C_1  and  N_2
REMARK    2  A    between atoms: C_5  and  C_6
REMARK    3  A    between atoms: C_7  and  O_8
REMARK    4  A    between atoms: C_10  and  O_11
REMARK    5  A    between atoms: C_16  and  C_17
REMARK    6  A    between atoms: C_26  and  C_27
REMARK    7  A    between atoms: C_27  and  O_28
REMARK                            x       y       z     vdW  Elec       q    Type
REMARK                         _______ _______ _______ _____ _____    ______ ____
ROOT
ATOM      1  C   UNL     1      -2.013  11.517  19.070  0.00  0.00    +0.000 A 
ATOM      2  C   UNL     1      -1.532  10.831  17.942  0.00  0.00    +0.000 A 
ATOM      3  C   UNL     1      -2.340  10.591  16.831  0.00  0.00    +0.000 A 
ATOM      4  C   UNL     1      -3.666  11.015  16.824  0.00  0.00    +0.000 A 
ATOM      5  C   UNL     1      -4.195  11.684  17.931  0.00  0.00    +0.000 A 
ATOM      6  C   UNL     1      -5.607  12.142  17.979  0.00  0.00    +0.000 A 
ATOM      7  O   UNL     1      -6.422  11.996  17.078  0.00  0.00    +0.000 OA
ATOM      8  C   UNL     1      -6.042  12.810  19.215  0.00  0.00    +0.000 A 
ATOM      9  C   UNL     1      -5.160  12.982  20.204  0.00  0.00    +0.000 A 
ATOM     10  O   UNL     1      -3.845  12.573  20.169  0.00  0.00    +0.000 OA
ATOM     11  C   UNL     1      -3.371  11.929  19.044  0.00  0.00    +0.000 A 
ENDROOT
BRANCH   9  12
ATOM     12  C   UNL     1      -5.551  13.642  21.456  0.00  0.00    +0.000 A 
ATOM     13  C   UNL     1      -4.834  14.775  21.872  0.00  0.00    +0.000 A 
ATOM     14  C   UNL     1      -5.178  15.445  23.049  0.00  0.00    +0.000 A 
ATOM     15  C   UNL     1      -6.243  14.991  23.824  0.00  0.00    +0.000 A 
ATOM     16  C   UNL     1      -6.961  13.864  23.426  0.00  0.00    +0.000 A 
ATOM     17  C   UNL     1      -6.618  13.189  22.251  0.00  0.00    +0.000 A 
ATOM     18 CL   UNL     1      -7.544  11.791  21.823  0.00  0.00    +0.000 Cl
ENDBRANCH   9  12
BRANCH   1  23
ATOM     19  C   UNL     1       1.080   9.170  21.609  0.00  0.00    +0.000 C 
ATOM     20  N   UNL     1       0.427  10.151  20.750  0.00  0.00    +0.000 NA
ATOM     21  C   UNL     1       1.233  11.364  20.592  0.00  0.00    +0.000 C 
ATOM     22  C   UNL     1       0.273  12.317  19.895  0.00  0.00    +0.000 C 
ATOM     23  C   UNL     1      -1.141  11.834  20.285  0.00  0.00    +0.000 C 
ATOM     24  C   UNL     1      -0.907  10.611  21.209  0.00  0.00    +0.000 C 
BRANCH  24  25
ATOM     25  C   UNL     1      -1.051  11.016  22.700  0.00  0.00    +0.000 C 
BRANCH  25  26
ATOM     26  O   UNL     1      -2.156  11.886  22.933  0.00  0.00    +0.000 OA
ATOM     27  H   UNL     1      -2.968  11.413  22.683  0.00  0.00    +0.000 HD
ENDBRANCH  25  26
ENDBRANCH  24  25
ENDBRANCH   1  23
BRANCH   2  28
ATOM     28  O   UNL     1      -0.258  10.346  17.826  0.00  0.00    +0.000 OA
ATOM     29  H   UNL     1       0.259  10.877  17.182  0.00  0.00    +0.000 HD
ENDBRANCH   2  28
BRANCH   4  30
ATOM     30  O   UNL     1      -4.427  10.756  15.720  0.00  0.00    +0.000 OA
ATOM     31  H   UNL     1      -5.160  10.162  15.947  0.00  0.00    +0.000 HD
ENDBRANCH   4  30
TORSDOF 6
ENDMDL
MODEL 5
REMARK VINA RESULT:      -6.7      6.278      9.185
REMARK  Name = 
REMARK  7 active torsions:
REMARK  status: ('A' for Active; 'I' for Inactive)
REMARK    1  A    between atoms: C_1  and  N_2
REMARK    2  A    between atoms: C_5  and  C_6
REMARK    3  A    between atoms: C_7  and  O_8
REMARK    4  A    between atoms: C_10  and  O_11
REMARK    5  A    between atoms: C_16  and  C_17
REMARK    6  A    between atoms: C_26  and  C_27
REMARK    7  A    between atoms: C_27  and  O_28
REMARK                            x       y       z     vdW  Elec       q    Type
REMARK                         _______ _______ _______ _____ _____    ______ ____
ROOT
ATOM      1  C   UNL     1      -1.996  11.338  18.780  0.00  0.00    +0.000 A 
ATOM      2  C   UNL     1      -2.173  10.714  17.534  0.00  0.00    +0.000 A 
ATOM      3  C   UNL     1      -3.397  10.739  16.869  0.00  0.00    +0.000 A 
ATOM      4  C   UNL     1      -4.494  11.377  17.443  0.00  0.00    +0.000 A 
ATOM      5  C   UNL     1      -4.373  11.994  18.691  0.00  0.00    +0.000 A 
ATOM      6  C   UNL     1      -5.516  12.673  19.353  0.00  0.00    +0.000 A 
ATOM      7  O   UNL     1      -6.642  12.768  18.883  0.00  0.00    +0.000 OA
ATOM      8  C   UNL     1      -5.257  13.260  20.676  0.00  0.00    +0.000 A 
ATOM      9  C   UNL     1      -4.030  13.169  21.198  0.00  0.00    +0.000 A 
ATOM     10  O   UNL     1      -2.959  12.553  20.591  0.00  0.00    +0.000 OA
ATOM     11  C   UNL     1      -3.131  11.971  19.351  0.00  0.00    +0.000 A 
ENDROOT
BRANCH   9  12
ATOM     12  C   UNL     1      -3.729  13.739  22.517  0.00  0.00    +0.000 A 
ATOM     13  C   UNL     1      -3.979  12.961  23.659  0.00  0.00    +0.000 A 
ATOM     14  C   UNL     1      -3.695  13.455  24.935  0.00  0.00    +0.000 A 
ATOM     15  C   UNL     1      -3.158  14.731  25.086  0.00  0.00    +0.000 A 
ATOM     16  C   UNL     1      -2.911  15.518  23.961  0.00  0.00    +0.000 A 
ATOM     17  C   UNL     1      -3.195  15.028  22.682  0.00  0.00    +0.000 A 
ATOM     18 CL   UNL     1      -2.873  16.062  21.333  0.00  0.00    +0.000 Cl
ENDBRANCH   9  12
BRANCH   1  23
ATOM     19  C   UNL     1       1.802   8.675  18.805  0.00  0.00    +0.000 C 
ATOM     20  N   UNL     1       0.876   9.795  18.682  0.00  0.00    +0.000 NA
ATOM     21  C   UNL     1       1.577  11.077  18.574  0.00  0.00    +0.000 C 
ATOM     22  C   UNL     1       0.449  12.089  18.714  0.00  0.00    +0.000 C 
ATOM     23  C   UNL     1      -0.655  11.365  19.515  0.00  0.00    +0.000 C 
ATOM     24  C   UNL     1      -0.084   9.953  19.802  0.00  0.00    +0.000 C 
BRANCH  24  25
ATOM     25  C   UNL     1       0.481   9.874  21.246  0.00  0.00    +0.000 C 
BRANCH  25  26
ATOM     26  O   UNL     1       0.360  11.105  21.954  0.00  0.00    +0.000 OA
ATOM     27  H   UNL     1      -0.004  11.769  21.344  0.00  0.00    +0.000 HD
ENDBRANCH  25  26
ENDBRANCH  24  25
ENDBRANCH   1  23
BRANCH   2  28
ATOM     28  O   UNL     1      -1.185  10.040  16.868  0.00  0.00    +0.000 OA
ATOM     29  H   UNL     1      -1.568   9.366  16.266  0.00  0.00    +0.000 HD
ENDBRANCH   2  28
BRANCH   4  30
ATOM     30  O   UNL     1      -5.679  11.375  16.763  0.00  0.00    +0.000 OA
ATOM     31  H   UNL     1      -5.733  10.599  16.183  0.00  0.00    +0.000 HD
ENDBRANCH   4  30
TORSDOF 6
ENDMDL
MODEL 6
REMARK VINA RESULT:      -6.6      7.486     11.323
REMARK  Name = 
REMARK  7 active torsions:
REMARK  status: ('A' for Active; 'I' for Inactive)
REMARK    1  A    between atoms: C_1  and  N_2
REMARK    2  A    between atoms: C_5  and  C_6
REMARK    3  A    between atoms: C_7  and  O_8
REMARK    4  A    between atoms: C_10  and  O_11
REMARK    5  A    between atoms: C_16  and  C_17
REMARK    6  A    between atoms: C_26  and  C_27
REMARK    7  A    between atoms: C_27  and  O_28
REMARK                            x       y       z     vdW  Elec       q    Type
REMARK                         _______ _______ _______ _____ _____    ______ ____
ROOT
ATOM      1  C   UNL     1      -4.344  12.792  21.268  0.00  0.00    +0.000 A 
ATOM      2  C   UNL     1      -5.723  13.009  21.438  0.00  0.00    +0.000 A 
ATOM      3  C   UNL     1      -6.636  12.746  20.419  0.00  0.00    +0.000 A 
ATOM      4  C   UNL     1      -6.195  12.273  19.186  0.00  0.00    +0.000 A 
ATOM      5  C   UNL     1      -4.832  12.061  18.963  0.00  0.00    +0.000 A 
ATOM      6  C   UNL     1      -4.310  11.574  17.661  0.00  0.00    +0.000 A 
ATOM      7  O   UNL     1      -4.998  11.306  16.686  0.00  0.00    +0.000 OA
ATOM      8  C   UNL     1      -2.851  11.417  17.553  0.00  0.00    +0.000 A 
ATOM      9  C   UNL     1      -2.088  11.700  18.613  0.00  0.00    +0.000 A 
ATOM     10  O   UNL     1      -2.559  12.142  19.830  0.00  0.00    +0.000 OA
ATOM     11  C   UNL     1      -3.917  12.321  20.000  0.00  0.00    +0.000 A 
ENDROOT
BRANCH   9  12
ATOM     12  C   UNL     1      -0.628  11.561  18.549  0.00  0.00    +0.000 A 
ATOM     13  C   UNL     1      -0.080  10.274  18.419  0.00  0.00    +0.000 A 
ATOM     14  C   UNL     1       1.303  10.092  18.340  0.00  0.00    +0.000 A 
ATOM     15  C   UNL     1       2.156  11.193  18.389  0.00  0.00    +0.000 A 
ATOM     16  C   UNL     1       1.626  12.476  18.524  0.00  0.00    +0.000 A 
ATOM     17  C   UNL     1       0.243  12.662  18.607  0.00  0.00    +0.000 A 
ATOM     18 CL   UNL     1      -0.344  14.280  18.784  0.00  0.00    +0.000 Cl
ENDBRANCH   9  12
BRANCH   1  23
ATOM     19  C   UNL     1      -3.825  15.918  24.656  0.00  0.00    +0.000 C 
ATOM     20  N   UNL     1      -3.995  14.679  23.906  0.00  0.00    +0.000 NA
ATOM     21  C   UNL     1      -3.747  13.497  24.736  0.00  0.00    +0.000 C 
ATOM     22  C   UNL     1      -3.728  12.368  23.716  0.00  0.00    +0.000 C 
ATOM     23  C   UNL     1      -3.322  13.029  22.380  0.00  0.00    +0.000 C 
ATOM     24  C   UNL     1      -3.119  14.529  22.718  0.00  0.00    +0.000 C 
BRANCH  24  25
ATOM     25  C   UNL     1      -1.611  14.850  22.895  0.00  0.00    +0.000 C 
BRANCH  25  26
ATOM     26  O   UNL     1      -0.763  13.816  22.401  0.00  0.00    +0.000 OA
ATOM     27  H   UNL     1      -1.328  13.108  22.047  0.00  0.00    +0.000 HD
ENDBRANCH  25  26
ENDBRANCH  24  25
ENDBRANCH   1  23
BRANCH   2  28
ATOM     28  O   UNL     1      -6.286  13.485  22.590  0.00  0.00    +0.000 OA
ATOM     29  H   UNL     1      -6.984  12.876  22.914  0.00  0.00    +0.000 HD
ENDBRANCH   2  28
BRANCH   4  30
ATOM     30  O   UNL     1      -7.121  12.033  18.211  0.00  0.00    +0.000 OA
ATOM     31  H   UNL     1      -8.014  12.011  18.591  0.00  0.00    +0.000 HD
ENDBRANCH   4  30
TORSDOF 6
ENDMDL
MODEL 7
REMARK VINA RESULT:      -6.5      7.977     10.963
REMARK  Name = 
REMARK  7 active torsions:
REMARK  status: ('A' for Active; 'I' for Inactive)
REMARK    1  A    between atoms: C_1  and  N_2
REMARK    2  A    between atoms: C_5  and  C_6
REMARK    3  A    between atoms: C_7  and  O_8
REMARK    4  A    between atoms: C_10  and  O_11
REMARK    5  A    between atoms: C_16  and  C_17
REMARK    6  A    between atoms: C_26  and  C_27
REMARK    7  A    between atoms: C_27  and  O_28
REMARK                            x       y       z     vdW  Elec       q    Type
REMARK                         _______ _______ _______ _____ _____    ______ ____
ROOT
ATOM      1  C   UNL     1      -1.722  12.776  19.404  0.00  0.00    +0.000 A 
ATOM      2  C   UNL     1      -0.493  13.162  18.842  0.00  0.00    +0.000 A 
ATOM      3  C   UNL     1       0.178  14.308  19.265  0.00  0.00    +0.000 A 
ATOM      4  C   UNL     1      -0.372  15.118  20.255  0.00  0.00    +0.000 A 
ATOM      5  C   UNL     1      -1.602  14.787  20.828  0.00  0.00    +0.000 A 
ATOM      6  C   UNL     1      -2.239  15.627  21.875  0.00  0.00    +0.000 A 
ATOM      7  O   UNL     1      -1.761  16.655  22.335  0.00  0.00    +0.000 OA
ATOM      8  C   UNL     1      -3.546  15.176  22.376  0.00  0.00    +0.000 A 
ATOM      9  C   UNL     1      -4.077  14.051  21.887  0.00  0.00    +0.000 A 
ATOM     10  O   UNL     1      -3.492  13.257  20.925  0.00  0.00    +0.000 OA
ATOM     11  C   UNL     1      -2.269  13.624  20.402  0.00  0.00    +0.000 A 
ENDROOT
BRANCH   9  12
ATOM     12  C   UNL     1      -5.380  13.566  22.357  0.00  0.00    +0.000 A 
ATOM     13  C   UNL     1      -6.508  13.776  21.546  0.00  0.00    +0.000 A 
ATOM     14  C   UNL     1      -7.767  13.321  21.945  0.00  0.00    +0.000 A 
ATOM     15  C   UNL     1      -7.916  12.650  23.157  0.00  0.00    +0.000 A 
ATOM     16  C   UNL     1      -6.806  12.440  23.975  0.00  0.00    +0.000 A 
ATOM     17  C   UNL     1      -5.544  12.896  23.581  0.00  0.00    +0.000 A 
ATOM     18 CL   UNL     1      -4.213  12.611  24.649  0.00  0.00    +0.000 Cl
ENDBRANCH   9  12
BRANCH   1  23
ATOM     19  C   UNL     1      -3.053  10.891  15.379  0.00  0.00    +0.000 C 
ATOM     20  N   UNL     1      -2.431  11.134  16.675  0.00  0.00    +0.000 NA
ATOM     21  C   UNL     1      -1.855   9.913  17.244  0.00  0.00    +0.000 C 
ATOM     22  C   UNL     1      -1.504  10.337  18.663  0.00  0.00    +0.000 C 
ATOM     23  C   UNL     1      -2.462  11.503  18.992  0.00  0.00    +0.000 C 
ATOM     24  C   UNL     1      -3.331  11.680  17.721  0.00  0.00    +0.000 C 
BRANCH  24  25
ATOM     25  C   UNL     1      -4.713  10.999  17.904  0.00  0.00    +0.000 C 
BRANCH  25  26
ATOM     26  O   UNL     1      -5.420  11.480  19.044  0.00  0.00    +0.000 OA
ATOM     27  H   UNL     1      -5.305  12.445  19.085  0.00  0.00    +0.000 HD
ENDBRANCH  25  26
ENDBRANCH  24  25
ENDBRANCH   1  23
BRANCH   2  28
ATOM     28  O   UNL     1       0.148  12.467  17.853  0.00  0.00    +0.000 OA
ATOM     29  H   UNL     1       0.223  13.009  17.038  0.00  0.00    +0.000 HD
ENDBRANCH   2  28
BRANCH   4  30
ATOM     30  O   UNL     1       0.313  16.236  20.637  0.00  0.00    +0.000 OA
ATOM     31  H   UNL     1       0.267  16.914  19.944  0.00  0.00    +0.000 HD
ENDBRANCH   4  30
TORSDOF 6
ENDMDL
MODEL 8
REMARK VINA RESULT:      -6.5      8.020     11.238
REMARK  Name = 
REMARK  7 active torsions:
REMARK  status: ('A' for Active; 'I' for Inactive)
REMARK    1  A    between atoms: C_1  and  N_2
REMARK    2  A    between atoms: C_5  and  C_6
REMARK    3  A    between atoms: C_7  and  O_8
REMARK    4  A    between atoms: C_10  and  O_11
REMARK    5  A    between atoms: C_16  and  C_17
REMARK    6  A    between atoms: C_26  and  C_27
REMARK    7  A    between atoms: C_27  and  O_28
REMARK                            x       y       z     vdW  Elec       q    Type
REMARK                         _______ _______ _______ _____ _____    ______ ____
ROOT
ATOM      1  C   UNL     1      -4.258  12.645  21.011  0.00  0.00    +0.000 A 
ATOM      2  C   UNL     1      -5.648  12.460  21.105  0.00  0.00    +0.000 A 
ATOM      3  C   UNL     1      -6.388  11.927  20.051  0.00  0.00    +0.000 A 
ATOM      4  C   UNL     1      -5.760  11.579  18.857  0.00  0.00    +0.000 A 
ATOM      5  C   UNL     1      -4.383  11.764  18.710  0.00  0.00    +0.000 A 
ATOM      6  C   UNL     1      -3.669  11.425  17.453  0.00  0.00    +0.000 A 
ATOM      7  O   UNL     1      -4.195  10.953  16.454  0.00  0.00    +0.000 OA
ATOM      8  C   UNL     1      -2.223  11.693  17.423  0.00  0.00    +0.000 A 
ATOM      9  C   UNL     1      -1.634  12.202  18.510  0.00  0.00    +0.000 A 
ATOM     10  O   UNL     1      -2.282  12.511  19.685  0.00  0.00    +0.000 OA
ATOM     11  C   UNL     1      -3.642  12.295  19.781  0.00  0.00    +0.000 A 
ENDROOT
BRANCH   9  12
ATOM     12  C   UNL     1      -0.195  12.487  18.523  0.00  0.00    +0.000 A 
ATOM     13  C   UNL     1       0.226  13.827  18.562  0.00  0.00    +0.000 A 
ATOM     14  C   UNL     1       1.585  14.147  18.589  0.00  0.00    +0.000 A 
ATOM     15  C   UNL     1       2.542  13.134  18.578  0.00  0.00    +0.000 A 
ATOM     16  C   UNL     1       2.139  11.800  18.533  0.00  0.00    +0.000 A 
ATOM     17  C   UNL     1       0.779  11.474  18.503  0.00  0.00    +0.000 A 
ATOM     18 CL   UNL     1       0.352   9.800  18.436  0.00  0.00    +0.000 Cl
ENDBRANCH   9  12
BRANCH   1  23
ATOM     19  C   UNL     1      -4.781  15.965  24.208  0.00  0.00    +0.000 C 
ATOM     20  N   UNL     1      -4.584  14.688  23.534  0.00  0.00    +0.000 NA
ATOM     21  C   UNL     1      -4.114  13.649  24.454  0.00  0.00    +0.000 C 
ATOM     22  C   UNL     1      -3.740  12.512  23.513  0.00  0.00    +0.000 C 
ATOM     23  C   UNL     1      -3.412  13.187  22.164  0.00  0.00    +0.000 C 
ATOM     24  C   UNL     1      -3.612  14.704  22.413  0.00  0.00    +0.000 C 
BRANCH  24  25
ATOM     25  C   UNL     1      -2.248  15.402  22.658  0.00  0.00    +0.000 C 
BRANCH  25  26
ATOM     26  O   UNL     1      -1.203  14.877  21.843  0.00  0.00    +0.000 OA
ATOM     27  H   UNL     1      -0.427  15.455  21.940  0.00  0.00    +0.000 HD
ENDBRANCH  25  26
ENDBRANCH  24  25
ENDBRANCH   1  23
BRANCH   2  28
ATOM     28  O   UNL     1      -6.389  12.774  22.211  0.00  0.00    +0.000 OA
ATOM     29  H   UNL     1      -5.901  12.551  23.032  0.00  0.00    +0.000 HD
ENDBRANCH   2  28
BRANCH   4  30
ATOM     30  O   UNL     1      -6.521  11.066  17.846  0.00  0.00    +0.000 OA
ATOM     31  H   UNL     1      -6.199  11.383  16.987  0.00  0.00    +0.000 HD
ENDBRANCH   4  30
TORSDOF 6
ENDMDL
MODEL 9
REMARK VINA RESULT:      -6.5      6.419      9.959
REMARK  Name = 
REMARK  7 active torsions:
REMARK  status: ('A' for Active; 'I' for Inactive)
REMARK    1  A    between atoms: C_1  and  N_2
REMARK    2  A    between atoms: C_5  and  C_6
REMARK    3  A    between atoms: C_7  and  O_8
REMARK    4  A    between atoms: C_10  and  O_11
REMARK    5  A    between atoms: C_16  and  C_17
REMARK    6  A    between atoms: C_26  and  C_27
REMARK    7  A    between atoms: C_27  and  O_28
REMARK                            x       y       z     vdW  Elec       q    Type
REMARK                         _______ _______ _______ _____ _____    ______ ____
ROOT
ATOM      1  C   UNL     1      -0.335  12.660  20.365  0.00  0.00    +0.000 A 
ATOM      2  C   UNL     1      -0.635  11.799  21.435  0.00  0.00    +0.000 A 
ATOM      3  C   UNL     1      -1.051  12.287  22.672  0.00  0.00    +0.000 A 
ATOM      4  C   UNL     1      -1.162  13.659  22.885  0.00  0.00    +0.000 A 
ATOM      5  C   UNL     1      -0.854  14.555  21.857  0.00  0.00    +0.000 A 
ATOM      6  C   UNL     1      -0.940  16.026  22.038  0.00  0.00    +0.000 A 
ATOM      7  O   UNL     1      -1.288  16.586  23.069  0.00  0.00    +0.000 OA
ATOM      8  C   UNL     1      -0.564  16.855  20.882  0.00  0.00    +0.000 A 
ATOM      9  C   UNL     1      -0.188  16.256  19.748  0.00  0.00    +0.000 A 
ATOM     10  O   UNL     1      -0.115  14.893  19.563  0.00  0.00    +0.000 OA
ATOM     11  C   UNL     1      -0.444  14.054  20.608  0.00  0.00    +0.000 A 
ENDROOT
BRANCH   9  12
ATOM     12  C   UNL     1       0.197  17.045  18.572  0.00  0.00    +0.000 A 
ATOM     13  C   UNL     1      -0.794  17.778  17.899  0.00  0.00    +0.000 A 
ATOM     14  C   UNL     1      -0.473  18.554  16.782  0.00  0.00    +0.000 A 
ATOM     15  C   UNL     1       0.842  18.608  16.325  0.00  0.00    +0.000 A 
ATOM     16  C   UNL     1       1.835  17.881  16.980  0.00  0.00    +0.000 A 
ATOM     17  C   UNL     1       1.518  17.100  18.096  0.00  0.00    +0.000 A 
ATOM     18 CL   UNL     1       2.798  16.216  18.852  0.00  0.00    +0.000 Cl
ENDBRANCH   9  12
BRANCH   1  23
ATOM     19  C   UNL     1       1.788   8.868  18.743  0.00  0.00    +0.000 C 
ATOM     20  N   UNL     1       0.825   9.930  19.007  0.00  0.00    +0.000 NA
ATOM     21  C   UNL     1      -0.265   9.937  18.028  0.00  0.00    +0.000 C 
ATOM     22  C   UNL     1      -0.984  11.243  18.335  0.00  0.00    +0.000 C 
ATOM     23  C   UNL     1       0.081  12.155  18.983  0.00  0.00    +0.000 C 
ATOM     24  C   UNL     1       1.379  11.306  19.004  0.00  0.00    +0.000 C 
BRANCH  24  25
ATOM     25  C   UNL     1       2.310  11.701  17.828  0.00  0.00    +0.000 C 
BRANCH  25  26
ATOM     26  O   UNL     1       2.172  13.068  17.448  0.00  0.00    +0.000 OA
ATOM     27  H   UNL     1       2.374  13.618  18.224  0.00  0.00    +0.000 HD
ENDBRANCH  25  26
ENDBRANCH  24  25
ENDBRANCH   1  23
BRANCH   2  28
ATOM     28  O   UNL     1      -0.552  10.435  21.366  0.00  0.00    +0.000 OA
ATOM     29  H   UNL     1      -1.130  10.017  22.041  0.00  0.00    +0.000 HD
ENDBRANCH   2  28
BRANCH   4  30
ATOM     30  O   UNL     1      -1.566  14.098  24.113  0.00  0.00    +0.000 OA
ATOM     31  H   UNL     1      -2.336  14.682  24.027  0.00  0.00    +0.000 HD
ENDBRANCH   4  30
TORSDOF 6
ENDMDL
