MODEL 1
REMARK VINA RESULT:      -8.2      0.000      0.000
REMARK  Name = 
REMARK  3 active torsions:
REMARK  status: ('A' for Active; 'I' for Inactive)
REMARK    1  A    between atoms: C_2  and  C_3
REMARK    2  A    between atoms: C_3  and  N_4
REMARK    3  A    between atoms: C_5  and  C_7
REMARK                            x       y       z     vdW  Elec       q    Type
REMARK                         _______ _______ _______ _____ _____    ______ ____
ROOT
ATOM      1  N   UNL     1       3.132   5.706  17.949  0.00  0.00    +0.000 N 
ATOM      2  C   UNL     1       2.862   6.029  19.264  0.00  0.00    +0.000 C 
ATOM      3  O   UNL     1       3.213   5.339  20.209  0.00  0.00    +0.000 OA
ATOM      4  H   UNL     1       2.829   6.339  17.218  0.00  0.00    +0.000 HD
ENDROOT
BRANCH   1   5
ATOM      5  C   UNL     1       3.926   4.524  17.526  0.00  0.00    +0.000 C 
ATOM      6  C   UNL     1       4.492   4.689  16.096  0.00  0.00    +0.000 C 
ATOM      7  C   UNL     1       5.417   5.894  15.976  0.00  0.00    +0.000 C 
ATOM      8  C   UNL     1       6.358   6.058  17.143  0.00  0.00    +0.000 A 
ATOM      9  C   UNL     1       7.343   7.052  17.069  0.00  0.00    +0.000 A 
ATOM     10  C   UNL     1       8.181   7.302  18.153  0.00  0.00    +0.000 A 
ATOM     11  C   UNL     1       8.071   6.531  19.306  0.00  0.00    +0.000 A 
ATOM     12  C   UNL     1       7.107   5.527  19.386  0.00  0.00    +0.000 A 
ATOM     13  C   UNL     1       6.214   5.312  18.327  0.00  0.00    +0.000 A 
ATOM     14  C   UNL     1       5.114   4.284  18.485  0.00  0.00    +0.000 C 
BRANCH   5  16
ATOM     15  N   UNL     1       2.299   2.269  17.523  0.00  0.00    +0.000 NA
ATOM     16  C   UNL     1       3.037   3.291  17.524  0.00  0.00    +0.000 C 
ENDBRANCH   5  16
ENDBRANCH   1   5
BRANCH   2  17
ATOM     17  C   UNL     1       2.105   7.292  19.528  0.00  0.00    +0.000 A 
ATOM     18  C   UNL     1       1.495   7.468  20.781  0.00  0.00    +0.000 A 
ATOM     19  C   UNL     1       0.837   8.663  21.072  0.00  0.00    +0.000 A 
ATOM     20  F   UNL     1       0.271   8.829  22.276  0.00  0.00    +0.000 F 
ATOM     21  C   UNL     1       0.774   9.682  20.127  0.00  0.00    +0.000 A 
ATOM     22  F   UNL     1       0.163  10.838  20.418  0.00  0.00    +0.000 F 
ATOM     23  C   UNL     1       1.355   9.515  18.878  0.00  0.00    +0.000 A 
ATOM     24  C   UNL     1       2.014   8.322  18.584  0.00  0.00    +0.000 A 
ATOM     25  F   UNL     1       2.567   8.196  17.370  0.00  0.00    +0.000 F 
ENDBRANCH   2  17
TORSDOF 3
ENDMDL
MODEL 2
REMARK VINA RESULT:      -7.9      4.578      7.468
REMARK  Name = 
REMARK  3 active torsions:
REMARK  status: ('A' for Active; 'I' for Inactive)
REMARK    1  A    between atoms: C_2  and  C_3
REMARK    2  A    between atoms: C_3  and  N_4
REMARK    3  A    between atoms: C_5  and  C_7
REMARK                            x       y       z     vdW  Elec       q    Type
REMARK                         _______ _______ _______ _____ _____    ______ ____
ROOT
ATOM      1  N   UNL     1       5.677   4.654  16.809  0.00  0.00    +0.000 N 
ATOM      2  C   UNL     1       5.853   5.432  15.682  0.00  0.00    +0.000 C 
ATOM      3  O   UNL     1       5.831   6.653  15.701  0.00  0.00    +0.000 OA
ATOM      4  H   UNL     1       5.732   3.645  16.720  0.00  0.00    +0.000 HD
ENDROOT
BRANCH   1   5
ATOM      5  C   UNL     1       5.501   5.197  18.180  0.00  0.00    +0.000 C 
ATOM      6  C   UNL     1       4.431   6.313  18.227  0.00  0.00    +0.000 C 
ATOM      7  C   UNL     1       3.061   5.820  17.781  0.00  0.00    +0.000 C 
ATOM      8  C   UNL     1       2.700   4.458  18.317  0.00  0.00    +0.000 A 
ATOM      9  C   UNL     1       1.407   3.971  18.081  0.00  0.00    +0.000 A 
ATOM     10  C   UNL     1       1.049   2.685  18.480  0.00  0.00    +0.000 A 
ATOM     11  C   UNL     1       1.968   1.889  19.157  0.00  0.00    +0.000 A 
ATOM     12  C   UNL     1       3.252   2.369  19.415  0.00  0.00    +0.000 A 
ATOM     13  C   UNL     1       3.644   3.635  18.959  0.00  0.00    +0.000 A 
ATOM     14  C   UNL     1       5.075   4.085  19.164  0.00  0.00    +0.000 C 
BRANCH   5  16
ATOM     15  N   UNL     1       7.899   6.303  19.052  0.00  0.00    +0.000 NA
ATOM     16  C   UNL     1       6.812   5.801  18.656  0.00  0.00    +0.000 C 
ENDBRANCH   5  16
ENDBRANCH   1   5
BRANCH   2  17
ATOM     17  C   UNL     1       6.086   4.730  14.382  0.00  0.00    +0.000 A 
ATOM     18  C   UNL     1       5.028   4.012  13.800  0.00  0.00    +0.000 A 
ATOM     19  C   UNL     1       5.203   3.401  12.558  0.00  0.00    +0.000 A 
ATOM     20  F   UNL     1       4.184   2.731  12.002  0.00  0.00    +0.000 F 
ATOM     21  C   UNL     1       6.421   3.491  11.892  0.00  0.00    +0.000 A 
ATOM     22  F   UNL     1       6.578   2.925  10.688  0.00  0.00    +0.000 F 
ATOM     23  C   UNL     1       7.481   4.181  12.463  0.00  0.00    +0.000 A 
ATOM     24  C   UNL     1       7.309   4.793  13.704  0.00  0.00    +0.000 A 
ATOM     25  F   UNL     1       8.353   5.455  14.225  0.00  0.00    +0.000 F 
ENDBRANCH   2  17
TORSDOF 3
ENDMDL
MODEL 3
REMARK VINA RESULT:      -7.9      1.538      2.284
REMARK  Name = 
REMARK  3 active torsions:
REMARK  status: ('A' for Active; 'I' for Inactive)
REMARK    1  A    between atoms: C_2  and  C_3
REMARK    2  A    between atoms: C_3  and  N_4
REMARK    3  A    between atoms: C_5  and  C_7
REMARK                            x       y       z     vdW  Elec       q    Type
REMARK                         _______ _______ _______ _____ _____    ______ ____
ROOT
ATOM      1  N   UNL     1       2.255   5.334  18.897  0.00  0.00    +0.000 N 
ATOM      2  C   UNL     1       2.267   6.318  19.865  0.00  0.00    +0.000 C 
ATOM      3  O   UNL     1       2.578   6.110  21.028  0.00  0.00    +0.000 OA
ATOM      4  H   UNL     1       2.009   5.586  17.946  0.00  0.00    +0.000 HD
ENDROOT
BRANCH   1   5
ATOM      5  C   UNL     1       2.671   3.927  19.131  0.00  0.00    +0.000 C 
ATOM      6  C   UNL     1       2.375   3.026  17.910  0.00  0.00    +0.000 C 
ATOM      7  C   UNL     1       3.108   3.489  16.657  0.00  0.00    +0.000 C 
ATOM      8  C   UNL     1       4.534   3.910  16.909  0.00  0.00    +0.000 A 
ATOM      9  C   UNL     1       5.340   4.221  15.804  0.00  0.00    +0.000 A 
ATOM     10  C   UNL     1       6.637   4.697  15.984  0.00  0.00    +0.000 A 
ATOM     11  C   UNL     1       7.155   4.826  17.269  0.00  0.00    +0.000 A 
ATOM     12  C   UNL     1       6.370   4.502  18.375  0.00  0.00    +0.000 A 
ATOM     13  C   UNL     1       5.042   4.086  18.209  0.00  0.00    +0.000 A 
ATOM     14  C   UNL     1       4.184   3.841  19.432  0.00  0.00    +0.000 C 
BRANCH   5  16
ATOM     15  N   UNL     1       1.262   2.893  21.294  0.00  0.00    +0.000 NA
ATOM     16  C   UNL     1       1.901   3.362  20.313  0.00  0.00    +0.000 C 
ENDBRANCH   5  16
ENDBRANCH   1   5
BRANCH   2  17
ATOM     17  C   UNL     1       1.883   7.704  19.452  0.00  0.00    +0.000 A 
ATOM     18  C   UNL     1       1.143   8.497  20.345  0.00  0.00    +0.000 A 
ATOM     19  C   UNL     1       0.827   9.813  20.008  0.00  0.00    +0.000 A 
ATOM     20  F   UNL     1       0.134  10.568  20.871  0.00  0.00    +0.000 F 
ATOM     21  C   UNL     1       1.234  10.346  18.789  0.00  0.00    +0.000 A 
ATOM     22  F   UNL     1       0.951  11.618  18.478  0.00  0.00    +0.000 F 
ATOM     23  C   UNL     1       1.949   9.569  17.889  0.00  0.00    +0.000 A 
ATOM     24  C   UNL     1       2.267   8.253  18.223  0.00  0.00    +0.000 A 
ATOM     25  F   UNL     1       2.963   7.533  17.332  0.00  0.00    +0.000 F 
ENDBRANCH   2  17
TORSDOF 3
ENDMDL
MODEL 4
REMARK VINA RESULT:      -7.9      4.006      7.352
REMARK  Name = 
REMARK  3 active torsions:
REMARK  status: ('A' for Active; 'I' for Inactive)
REMARK    1  A    between atoms: C_2  and  C_3
REMARK    2  A    between atoms: C_3  and  N_4
REMARK    3  A    between atoms: C_5  and  C_7
REMARK                            x       y       z     vdW  Elec       q    Type
REMARK                         _______ _______ _______ _____ _____    ______ ____
ROOT
ATOM      1  N   UNL     1       5.670   4.632  17.398  0.00  0.00    +0.000 N 
ATOM      2  C   UNL     1       6.108   5.561  16.475  0.00  0.00    +0.000 C 
ATOM      3  O   UNL     1       6.300   6.736  16.749  0.00  0.00    +0.000 OA
ATOM      4  H   UNL     1       5.556   3.668  17.104  0.00  0.00    +0.000 HD
ENDROOT
BRANCH   1   5
ATOM      5  C   UNL     1       5.438   4.926  18.835  0.00  0.00    +0.000 C 
ATOM      6  C   UNL     1       4.448   6.098  19.033  0.00  0.00    +0.000 C 
ATOM      7  C   UNL     1       3.081   5.809  18.426  0.00  0.00    +0.000 C 
ATOM      8  C   UNL     1       2.589   4.406  18.675  0.00  0.00    +0.000 A 
ATOM      9  C   UNL     1       1.284   4.078  18.280  0.00  0.00    +0.000 A 
ATOM     10  C   UNL     1       0.811   2.775  18.409  0.00  0.00    +0.000 A 
ATOM     11  C   UNL     1       1.622   1.795  18.974  0.00  0.00    +0.000 A 
ATOM     12  C   UNL     1       2.916   2.112  19.388  0.00  0.00    +0.000 A 
ATOM     13  C   UNL     1       3.426   3.404  19.201  0.00  0.00    +0.000 A 
ATOM     14  C   UNL     1       4.867   3.691  19.567  0.00  0.00    +0.000 C 
BRANCH   5  16
ATOM     15  N   UNL     1       7.841   5.652  20.031  0.00  0.00    +0.000 NA
ATOM     16  C   UNL     1       6.751   5.323  19.489  0.00  0.00    +0.000 C 
ENDBRANCH   5  16
ENDBRANCH   1   5
BRANCH   2  17
ATOM     17  C   UNL     1       6.360   5.089  15.079  0.00  0.00    +0.000 A 
ATOM     18  C   UNL     1       7.474   5.589  14.384  0.00  0.00    +0.000 A 
ATOM     19  C   UNL     1       7.765   5.117  13.104  0.00  0.00    +0.000 A 
ATOM     20  F   UNL     1       8.838   5.587  12.454  0.00  0.00    +0.000 F 
ATOM     21  C   UNL     1       6.954   4.158  12.505  0.00  0.00    +0.000 A 
ATOM     22  F   UNL     1       7.250   3.688  11.286  0.00  0.00    +0.000 F 
ATOM     23  C   UNL     1       5.840   3.668  13.171  0.00  0.00    +0.000 A 
ATOM     24  C   UNL     1       5.547   4.138  14.451  0.00  0.00    +0.000 A 
ATOM     25  F   UNL     1       4.465   3.641  15.067  0.00  0.00    +0.000 F 
ENDBRANCH   2  17
TORSDOF 3
ENDMDL
MODEL 5
REMARK VINA RESULT:      -7.9      0.752      1.722
REMARK  Name = 
REMARK  3 active torsions:
REMARK  status: ('A' for Active; 'I' for Inactive)
REMARK    1  A    between atoms: C_2  and  C_3
REMARK    2  A    between atoms: C_3  and  N_4
REMARK    3  A    between atoms: C_5  and  C_7
REMARK                            x       y       z     vdW  Elec       q    Type
REMARK                         _______ _______ _______ _____ _____    ______ ____
ROOT
ATOM      1  N   UNL     1       3.141   5.724  17.879  0.00  0.00    +0.000 N 
ATOM      2  C   UNL     1       2.892   6.091  19.186  0.00  0.00    +0.000 C 
ATOM      3  O   UNL     1       3.243   5.425  20.147  0.00  0.00    +0.000 OA
ATOM      4  H   UNL     1       2.840   6.339  17.131  0.00  0.00    +0.000 HD
ENDROOT
BRANCH   1   5
ATOM      5  C   UNL     1       3.911   4.517  17.482  0.00  0.00    +0.000 C 
ATOM      6  C   UNL     1       4.515   4.655  16.066  0.00  0.00    +0.000 C 
ATOM      7  C   UNL     1       5.476   5.833  15.959  0.00  0.00    +0.000 C 
ATOM      8  C   UNL     1       6.394   5.978  17.147  0.00  0.00    +0.000 A 
ATOM      9  C   UNL     1       7.409   6.944  17.089  0.00  0.00    +0.000 A 
ATOM     10  C   UNL     1       8.228   7.178  18.191  0.00  0.00    +0.000 A 
ATOM     11  C   UNL     1       8.069   6.420  19.347  0.00  0.00    +0.000 A 
ATOM     12  C   UNL     1       7.074   5.444  19.411  0.00  0.00    +0.000 A 
ATOM     13  C   UNL     1       6.201   5.246  18.333  0.00  0.00    +0.000 A 
ATOM     14  C   UNL     1       5.068   4.251  18.471  0.00  0.00    +0.000 C 
BRANCH   5  16
ATOM     15  N   UNL     1       2.221   2.309  17.457  0.00  0.00    +0.000 NA
ATOM     16  C   UNL     1       2.987   3.310  17.469  0.00  0.00    +0.000 C 
ENDBRANCH   5  16
ENDBRANCH   1   5
BRANCH   2  17
ATOM     17  C   UNL     1       2.159   7.374  19.419  0.00  0.00    +0.000 A 
ATOM     18  C   UNL     1       2.167   8.353  18.412  0.00  0.00    +0.000 A 
ATOM     19  C   UNL     1       1.439   9.531  18.581  0.00  0.00    +0.000 A 
ATOM     20  F   UNL     1       1.440  10.454  17.610  0.00  0.00    +0.000 F 
ATOM     21  C   UNL     1       0.709   9.748  19.745  0.00  0.00    +0.000 A 
ATOM     22  F   UNL     1      -0.010  10.868  19.895  0.00  0.00    +0.000 F 
ATOM     23  C   UNL     1       0.706   8.798  20.757  0.00  0.00    +0.000 A 
ATOM     24  C   UNL     1       1.432   7.620  20.591  0.00  0.00    +0.000 A 
ATOM     25  F   UNL     1       1.404   6.722  21.586  0.00  0.00    +0.000 F 
ENDBRANCH   2  17
TORSDOF 3
ENDMDL
MODEL 6
REMARK VINA RESULT:      -7.9      1.596      2.287
REMARK  Name = 
REMARK  3 active torsions:
REMARK  status: ('A' for Active; 'I' for Inactive)
REMARK    1  A    between atoms: C_2  and  C_3
REMARK    2  A    between atoms: C_3  and  N_4
REMARK    3  A    between atoms: C_5  and  C_7
REMARK                            x       y       z     vdW  Elec       q    Type
REMARK                         _______ _______ _______ _____ _____    ______ ____
ROOT
ATOM      1  N   UNL     1       3.050   5.264  19.634  0.00  0.00    +0.000 N 
ATOM      2  C   UNL     1       1.824   5.678  20.113  0.00  0.00    +0.000 C 
ATOM      3  O   UNL     1       0.956   4.905  20.488  0.00  0.00    +0.000 OA
ATOM      4  H   UNL     1       3.732   5.965  19.363  0.00  0.00    +0.000 HD
ENDROOT
BRANCH   1   5
ATOM      5  C   UNL     1       3.487   3.846  19.569  0.00  0.00    +0.000 C 
ATOM      6  C   UNL     1       2.824   3.089  18.394  0.00  0.00    +0.000 C 
ATOM      7  C   UNL     1       3.164   3.706  17.043  0.00  0.00    +0.000 C 
ATOM      8  C   UNL     1       4.610   4.115  16.909  0.00  0.00    +0.000 A 
ATOM      9  C   UNL     1       5.060   4.564  15.659  0.00  0.00    +0.000 A 
ATOM     10  C   UNL     1       6.361   5.034  15.502  0.00  0.00    +0.000 A 
ATOM     11  C   UNL     1       7.239   5.019  16.582  0.00  0.00    +0.000 A 
ATOM     12  C   UNL     1       6.809   4.557  17.826  0.00  0.00    +0.000 A 
ATOM     13  C   UNL     1       5.482   4.145  18.012  0.00  0.00    +0.000 A 
ATOM     14  C   UNL     1       5.019   3.746  19.397  0.00  0.00    +0.000 C 
BRANCH   5  16
ATOM     15  N   UNL     1       2.757   2.546  21.916  0.00  0.00    +0.000 NA
ATOM     16  C   UNL     1       3.088   3.135  20.852  0.00  0.00    +0.000 C 
ENDBRANCH   5  16
ENDBRANCH   1   5
BRANCH   2  17
ATOM     17  C   UNL     1       1.563   7.150  20.176  0.00  0.00    +0.000 A 
ATOM     18  C   UNL     1       1.160   7.716  21.397  0.00  0.00    +0.000 A 
ATOM     19  C   UNL     1       0.972   9.094  21.496  0.00  0.00    +0.000 A 
ATOM     20  F   UNL     1       0.602   9.628  22.668  0.00  0.00    +0.000 F 
ATOM     21  C   UNL     1       1.172   9.915  20.391  0.00  0.00    +0.000 A 
ATOM     22  F   UNL     1       1.015  11.241  20.494  0.00  0.00    +0.000 F 
ATOM     23  C   UNL     1       1.552   9.368  19.173  0.00  0.00    +0.000 A 
ATOM     24  C   UNL     1       1.742   7.991  19.071  0.00  0.00    +0.000 A 
ATOM     25  F   UNL     1       2.113   7.497  17.881  0.00  0.00    +0.000 F 
ENDBRANCH   2  17
TORSDOF 3
ENDMDL
MODEL 7
REMARK VINA RESULT:      -7.8      1.189      1.508
REMARK  Name = 
REMARK  3 active torsions:
REMARK  status: ('A' for Active; 'I' for Inactive)
REMARK    1  A    between atoms: C_2  and  C_3
REMARK    2  A    between atoms: C_3  and  N_4
REMARK    3  A    between atoms: C_5  and  C_7
REMARK                            x       y       z     vdW  Elec       q    Type
REMARK                         _______ _______ _______ _____ _____    ______ ____
ROOT
ATOM      1  N   UNL     1       2.452   5.793  18.540  0.00  0.00    +0.000 N 
ATOM      2  C   UNL     1       2.290   6.645  19.614  0.00  0.00    +0.000 C 
ATOM      3  O   UNL     1       2.511   6.316  20.769  0.00  0.00    +0.000 OA
ATOM      4  H   UNL     1       2.272   6.144  17.606  0.00  0.00    +0.000 HD
ENDROOT
BRANCH   1   5
ATOM      5  C   UNL     1       2.968   4.405  18.646  0.00  0.00    +0.000 C 
ATOM      6  C   UNL     1       3.241   3.781  17.257  0.00  0.00    +0.000 C 
ATOM      7  C   UNL     1       4.279   4.567  16.464  0.00  0.00    +0.000 C 
ATOM      8  C   UNL     1       5.456   5.024  17.289  0.00  0.00    +0.000 A 
ATOM      9  C   UNL     1       6.533   5.633  16.630  0.00  0.00    +0.000 A 
ATOM     10  C   UNL     1       7.605   6.150  17.353  0.00  0.00    +0.000 A 
ATOM     11  C   UNL     1       7.632   6.025  18.738  0.00  0.00    +0.000 A 
ATOM     12  C   UNL     1       6.575   5.404  19.404  0.00  0.00    +0.000 A 
ATOM     13  C   UNL     1       5.460   4.940  18.693  0.00  0.00    +0.000 A 
ATOM     14  C   UNL     1       4.285   4.364  19.454  0.00  0.00    +0.000 C 
BRANCH   5  16
ATOM     15  N   UNL     1       1.079   2.810  19.919  0.00  0.00    +0.000 NA
ATOM     16  C   UNL     1       1.936   3.533  19.342  0.00  0.00    +0.000 C 
ENDBRANCH   5  16
ENDBRANCH   1   5
BRANCH   2  17
ATOM     17  C   UNL     1       1.823   8.038  19.332  0.00  0.00    +0.000 A 
ATOM     18  C   UNL     1       1.041   8.699  20.294  0.00  0.00    +0.000 A 
ATOM     19  C   UNL     1       0.647  10.020  20.081  0.00  0.00    +0.000 A 
ATOM     20  F   UNL     1      -0.085  10.649  21.010  0.00  0.00    +0.000 F 
ATOM     21  C   UNL     1       1.017  10.688  18.918  0.00  0.00    +0.000 A 
ATOM     22  F   UNL     1       0.659  11.964  18.727  0.00  0.00    +0.000 F 
ATOM     23  C   UNL     1       1.773  10.042  17.950  0.00  0.00    +0.000 A 
ATOM     24  C   UNL     1       2.169   8.722  18.160  0.00  0.00    +0.000 A 
ATOM     25  F   UNL     1       2.902   8.129  17.207  0.00  0.00    +0.000 F 
ENDBRANCH   2  17
TORSDOF 3
ENDMDL
MODEL 8
REMARK VINA RESULT:      -7.7      1.559      2.836
REMARK  Name = 
REMARK  3 active torsions:
REMARK  status: ('A' for Active; 'I' for Inactive)
REMARK    1  A    between atoms: C_2  and  C_3
REMARK    2  A    between atoms: C_3  and  N_4
REMARK    3  A    between atoms: C_5  and  C_7
REMARK                            x       y       z     vdW  Elec       q    Type
REMARK                         _______ _______ _______ _____ _____    ______ ____
ROOT
ATOM      1  N   UNL     1       2.245   5.247  19.102  0.00  0.00    +0.000 N 
ATOM      2  C   UNL     1       2.203   6.126  20.165  0.00  0.00    +0.000 C 
ATOM      3  O   UNL     1       2.454   5.799  21.315  0.00  0.00    +0.000 OA
ATOM      4  H   UNL     1       2.047   5.595  18.170  0.00  0.00    +0.000 HD
ENDROOT
BRANCH   1   5
ATOM      5  C   UNL     1       2.656   3.823  19.210  0.00  0.00    +0.000 C 
ATOM      6  C   UNL     1       2.304   3.021  17.936  0.00  0.00    +0.000 C 
ATOM      7  C   UNL     1       2.993   3.573  16.696  0.00  0.00    +0.000 C 
ATOM      8  C   UNL     1       4.432   3.963  16.923  0.00  0.00    +0.000 A 
ATOM      9  C   UNL     1       5.198   4.353  15.815  0.00  0.00    +0.000 A 
ATOM     10  C   UNL     1       6.505   4.804  15.981  0.00  0.00    +0.000 A 
ATOM     11  C   UNL     1       7.074   4.830  17.250  0.00  0.00    +0.000 A 
ATOM     12  C   UNL     1       6.328   4.428  18.358  0.00  0.00    +0.000 A 
ATOM     13  C   UNL     1       4.991   4.036  18.212  0.00  0.00    +0.000 A 
ATOM     14  C   UNL     1       4.178   3.703  19.445  0.00  0.00    +0.000 C 
BRANCH   5  16
ATOM     15  N   UNL     1       1.319   2.636  21.341  0.00  0.00    +0.000 NA
ATOM     16  C   UNL     1       1.925   3.174  20.375  0.00  0.00    +0.000 C 
ENDBRANCH   5  16
ENDBRANCH   1   5
BRANCH   2  17
ATOM     17  C   UNL     1       1.834   7.547  19.878  0.00  0.00    +0.000 A 
ATOM     18  C   UNL     1       2.151   8.089  18.622  0.00  0.00    +0.000 A 
ATOM     19  C   UNL     1       1.762   9.392  18.308  0.00  0.00    +0.000 A 
ATOM     20  F   UNL     1       2.055   9.897  17.103  0.00  0.00    +0.000 F 
ATOM     21  C   UNL     1       1.066  10.162  19.234  0.00  0.00    +0.000 A 
ATOM     22  F   UNL     1       0.671  11.403  18.922  0.00  0.00    +0.000 F 
ATOM     23  C   UNL     1       0.761   9.646  20.486  0.00  0.00    +0.000 A 
ATOM     24  C   UNL     1       1.149   8.345  20.802  0.00  0.00    +0.000 A 
ATOM     25  F   UNL     1       0.834   7.877  22.019  0.00  0.00    +0.000 F 
ENDBRANCH   2  17
TORSDOF 3
ENDMDL
MODEL 9
REMARK VINA RESULT:      -7.6      2.229      4.283
REMARK  Name = 
REMARK  3 active torsions:
REMARK  status: ('A' for Active; 'I' for Inactive)
REMARK    1  A    between atoms: C_2  and  C_3
REMARK    2  A    between atoms: C_3  and  N_4
REMARK    3  A    between atoms: C_5  and  C_7
REMARK                            x       y       z     vdW  Elec       q    Type
REMARK                         _______ _______ _______ _____ _____    ______ ____
ROOT
ATOM      1  N   UNL     1       3.519   6.872  18.564  0.00  0.00    +0.000 N 
ATOM      2  C   UNL     1       2.307   7.450  18.243  0.00  0.00    +0.000 C 
ATOM      3  O   UNL     1       1.644   7.119  17.272  0.00  0.00    +0.000 OA
ATOM      4  H   UNL     1       4.003   7.182  19.399  0.00  0.00    +0.000 HD
ENDROOT
BRANCH   1   5
ATOM      5  C   UNL     1       4.134   5.748  17.812  0.00  0.00    +0.000 C 
ATOM      6  C   UNL     1       5.209   5.014  18.647  0.00  0.00    +0.000 C 
ATOM      7  C   UNL     1       4.639   4.415  19.927  0.00  0.00    +0.000 C 
ATOM      8  C   UNL     1       3.297   3.751  19.743  0.00  0.00    +0.000 A 
ATOM      9  C   UNL     1       2.749   3.049  20.825  0.00  0.00    +0.000 A 
ATOM     10  C   UNL     1       1.476   2.491  20.736  0.00  0.00    +0.000 A 
ATOM     11  C   UNL     1       0.756   2.593  19.550  0.00  0.00    +0.000 A 
ATOM     12  C   UNL     1       1.298   3.274  18.459  0.00  0.00    +0.000 A 
ATOM     13  C   UNL     1       2.550   3.896  18.560  0.00  0.00    +0.000 A 
ATOM     14  C   UNL     1       3.065   4.713  17.394  0.00  0.00    +0.000 C 
BRANCH   5  16
ATOM     15  N   UNL     1       5.378   6.732  15.529  0.00  0.00    +0.000 NA
ATOM     16  C   UNL     1       4.814   6.286  16.564  0.00  0.00    +0.000 C 
ENDBRANCH   5  16
ENDBRANCH   1   5
BRANCH   2  17
ATOM     17  C   UNL     1       1.792   8.529  19.141  0.00  0.00    +0.000 A 
ATOM     18  C   UNL     1       1.601   9.817  18.613  0.00  0.00    +0.000 A 
ATOM     19  C   UNL     1       1.063  10.824  19.414  0.00  0.00    +0.000 A 
ATOM     20  F   UNL     1       0.869  12.046  18.899  0.00  0.00    +0.000 F 
ATOM     21  C   UNL     1       0.720  10.565  20.737  0.00  0.00    +0.000 A 
ATOM     22  F   UNL     1       0.180  11.527  21.498  0.00  0.00    +0.000 F 
ATOM     23  C   UNL     1       0.920   9.303  21.278  0.00  0.00    +0.000 A 
ATOM     24  C   UNL     1       1.458   8.295  20.480  0.00  0.00    +0.000 A 
ATOM     25  F   UNL     1       1.634   7.086  21.033  0.00  0.00    +0.000 F 
ENDBRANCH   2  17
TORSDOF 3
ENDMDL
