MODEL 1
REMARK VINA RESULT:      -7.9      0.000      0.000
REMARK  Name = 
REMARK  4 active torsions:
REMARK  status: ('A' for Active; 'I' for Inactive)
REMARK    1  A    between atoms: C_2  and  C_10
REMARK    2  A    between atoms: N_3  and  C_4
REMARK    3  A    between atoms: C_15  and  O_16
REMARK    4  A    between atoms: O_16  and  C_17
REMARK                            x       y       z     vdW  Elec       q    Type
REMARK                         _______ _______ _______ _____ _____    ______ ____
ROOT
ATOM      1  C   UNL     1       2.959   6.136  18.483  0.00  0.00    +0.000 A 
ATOM      2  C   UNL     1       2.693   5.719  19.777  0.00  0.00    +0.000 A 
ATOM      3  N   UNL     1       2.119   6.503  20.723  0.00  0.00    +0.000 NA
ATOM      4  C   UNL     1       1.758   7.750  20.377  0.00  0.00    +0.000 A 
ATOM      5  C   UNL     1       1.149   8.564  21.321  0.00  0.00    +0.000 A 
ATOM      6  C   UNL     1       0.749   9.871  21.028  0.00  0.00    +0.000 A 
ATOM      7  C   UNL     1       0.929  10.370  19.741  0.00  0.00    +0.000 A 
ATOM      8  C   UNL     1       1.542   9.570  18.774  0.00  0.00    +0.000 A 
ATOM      9  C   UNL     1       1.966   8.264  19.079  0.00  0.00    +0.000 A 
ATOM     10  C   UNL     1       2.584   7.431  18.126  0.00  0.00    +0.000 A 
ENDROOT
BRANCH   1  12
ATOM     11  O   UNL     1       2.989   4.110  17.306  0.00  0.00    +0.000 OA
ATOM     12  C   UNL     1       3.562   5.168  17.542  0.00  0.00    +0.000 C 
ATOM     13  N   UNL     1       4.774   5.504  16.980  0.00  0.00    +0.000 N 
ATOM     14  H   UNL     1       5.346   6.220  17.418  0.00  0.00    +0.000 HD
BRANCH  13  15
ATOM     15  C   UNL     1       5.467   4.559  16.119  0.00  0.00    +0.000 C 
ATOM     16  C   UNL     1       5.217   4.780  14.625  0.00  0.00    +0.000 C 
ATOM     17  C   UNL     1       6.493   4.285  13.967  0.00  0.00    +0.000 C 
ATOM     18  N   UNL     1       7.508   4.553  14.941  0.00  0.00    +0.000 N 
ATOM     19  C   UNL     1       6.986   4.703  16.211  0.00  0.00    +0.000 C 
ATOM     20  O   UNL     1       7.637   4.899  17.224  0.00  0.00    +0.000 OA
ATOM     21  H   UNL     1       8.508   4.534  14.779  0.00  0.00    +0.000 HD
ENDBRANCH  13  15
ENDBRANCH   1  12
BRANCH   6  22
ATOM     22  O   UNL     1       0.158  10.539  22.064  0.00  0.00    +0.000 OA
BRANCH  22  23
ATOM     23  C   UNL     1      -0.634   9.753  22.939  0.00  0.00    +0.000 C 
ATOM     24  F   UNL     1       0.112   9.413  24.018  0.00  0.00    +0.000 F 
ATOM     25  F   UNL     1      -1.640  10.544  23.391  0.00  0.00    +0.000 F 
ENDBRANCH  22  23
ENDBRANCH   6  22
TORSDOF 4
ENDMDL
MODEL 2
REMARK VINA RESULT:      -7.8      1.242      1.369
REMARK  Name = 
REMARK  4 active torsions:
REMARK  status: ('A' for Active; 'I' for Inactive)
REMARK    1  A    between atoms: C_2  and  C_10
REMARK    2  A    between atoms: N_3  and  C_4
REMARK    3  A    between atoms: C_15  and  O_16
REMARK    4  A    between atoms: O_16  and  C_17
REMARK                            x       y       z     vdW  Elec       q    Type
REMARK                         _______ _______ _______ _____ _____    ______ ____
ROOT
ATOM      1  C   UNL     1       3.708   5.565  17.928  0.00  0.00    +0.000 A 
ATOM      2  C   UNL     1       3.366   5.163  19.210  0.00  0.00    +0.000 A 
ATOM      3  N   UNL     1       2.656   5.925  20.079  0.00  0.00    +0.000 NA
ATOM      4  C   UNL     1       2.231   7.129  19.662  0.00  0.00    +0.000 A 
ATOM      5  C   UNL     1       1.484   7.919  20.525  0.00  0.00    +0.000 A 
ATOM      6  C   UNL     1       1.012   9.182  20.156  0.00  0.00    +0.000 A 
ATOM      7  C   UNL     1       1.262   9.658  18.872  0.00  0.00    +0.000 A 
ATOM      8  C   UNL     1       2.013   8.883  17.986  0.00  0.00    +0.000 A 
ATOM      9  C   UNL     1       2.509   7.623  18.369  0.00  0.00    +0.000 A 
ATOM     10  C   UNL     1       3.267   6.816  17.499  0.00  0.00    +0.000 A 
ENDROOT
BRANCH   1  12
ATOM     11  O   UNL     1       4.607   3.458  17.433  0.00  0.00    +0.000 OA
ATOM     12  C   UNL     1       4.459   4.621  17.074  0.00  0.00    +0.000 C 
ATOM     13  N   UNL     1       4.983   5.114  15.898  0.00  0.00    +0.000 N 
ATOM     14  H   UNL     1       5.102   6.116  15.786  0.00  0.00    +0.000 HD
BRANCH  13  15
ATOM     15  C   UNL     1       5.811   4.266  15.056  0.00  0.00    +0.000 C 
ATOM     16  C   UNL     1       5.137   3.840  13.749  0.00  0.00    +0.000 C 
ATOM     17  C   UNL     1       6.295   3.669  12.783  0.00  0.00    +0.000 C 
ATOM     18  N   UNL     1       7.263   4.623  13.234  0.00  0.00    +0.000 N 
ATOM     19  C   UNL     1       7.054   4.996  14.547  0.00  0.00    +0.000 C 
ATOM     20  O   UNL     1       7.757   5.764  15.184  0.00  0.00    +0.000 OA
ATOM     21  H   UNL     1       8.082   4.929  12.722  0.00  0.00    +0.000 HD
ENDBRANCH  13  15
ENDBRANCH   1  12
BRANCH   6  22
ATOM     22  O   UNL     1       0.287   9.829  21.117  0.00  0.00    +0.000 OA
BRANCH  22  23
ATOM     23  C   UNL     1       0.183   9.168  22.367  0.00  0.00    +0.000 C 
ATOM     24  F   UNL     1       0.020  10.097  23.341  0.00  0.00    +0.000 F 
ATOM     25  F   UNL     1      -0.955   8.429  22.338  0.00  0.00    +0.000 F 
ENDBRANCH  22  23
ENDBRANCH   6  22
TORSDOF 4
ENDMDL
MODEL 3
REMARK VINA RESULT:      -7.8      1.557      2.068
REMARK  Name = 
REMARK  4 active torsions:
REMARK  status: ('A' for Active; 'I' for Inactive)
REMARK    1  A    between atoms: C_2  and  C_10
REMARK    2  A    between atoms: N_3  and  C_4
REMARK    3  A    between atoms: C_15  and  O_16
REMARK    4  A    between atoms: O_16  and  C_17
REMARK                            x       y       z     vdW  Elec       q    Type
REMARK                         _______ _______ _______ _____ _____    ______ ____
ROOT
ATOM      1  C   UNL     1       2.625   7.226  18.591  0.00  0.00    +0.000 A 
ATOM      2  C   UNL     1       2.317   8.327  17.808  0.00  0.00    +0.000 A 
ATOM      3  N   UNL     1       1.573   9.377  18.236  0.00  0.00    +0.000 NA
ATOM      4  C   UNL     1       1.135   9.365  19.506  0.00  0.00    +0.000 A 
ATOM      5  C   UNL     1       0.390  10.438  19.976  0.00  0.00    +0.000 A 
ATOM      6  C   UNL     1      -0.097  10.489  21.285  0.00  0.00    +0.000 A 
ATOM      7  C   UNL     1       0.199   9.453  22.166  0.00  0.00    +0.000 A 
ATOM      8  C   UNL     1       0.945   8.360  21.717  0.00  0.00    +0.000 A 
ATOM      9  C   UNL     1       1.412   8.300  20.391  0.00  0.00    +0.000 A 
ATOM     10  C   UNL     1       2.168   7.215  19.908  0.00  0.00    +0.000 A 
ENDROOT
BRANCH   1  12
ATOM     11  O   UNL     1       3.239   4.988  18.262  0.00  0.00    +0.000 OA
ATOM     12  C   UNL     1       3.472   6.165  18.006  0.00  0.00    +0.000 C 
ATOM     13  N   UNL     1       4.517   6.562  17.200  0.00  0.00    +0.000 N 
ATOM     14  H   UNL     1       4.856   7.518  17.257  0.00  0.00    +0.000 HD
BRANCH  13  15
ATOM     15  C   UNL     1       5.444   5.577  16.668  0.00  0.00    +0.000 C 
ATOM     16  C   UNL     1       5.308   5.345  15.160  0.00  0.00    +0.000 C 
ATOM     17  C   UNL     1       6.709   4.952  14.726  0.00  0.00    +0.000 C 
ATOM     18  N   UNL     1       7.561   5.658  15.635  0.00  0.00    +0.000 N 
ATOM     19  C   UNL     1       6.899   6.032  16.788  0.00  0.00    +0.000 C 
ATOM     20  O   UNL     1       7.403   6.609  17.737  0.00  0.00    +0.000 OA
ATOM     21  H   UNL     1       8.561   5.791  15.533  0.00  0.00    +0.000 HD
ENDBRANCH  13  15
ENDBRANCH   1  12
BRANCH   6  22
ATOM     22  O   UNL     1      -0.806  11.616  21.592  0.00  0.00    +0.000 OA
BRANCH  22  23
ATOM     23  C   UNL     1      -1.199  11.753  22.947  0.00  0.00    +0.000 C 
ATOM     24  F   UNL     1      -0.922  13.014  23.358  0.00  0.00    +0.000 F 
ATOM     25  F   UNL     1      -2.549  11.615  22.990  0.00  0.00    +0.000 F 
ENDBRANCH  22  23
ENDBRANCH   6  22
TORSDOF 4
ENDMDL
MODEL 4
REMARK VINA RESULT:      -7.6      4.567      8.789
REMARK  Name = 
REMARK  4 active torsions:
REMARK  status: ('A' for Active; 'I' for Inactive)
REMARK    1  A    between atoms: C_2  and  C_10
REMARK    2  A    between atoms: N_3  and  C_4
REMARK    3  A    between atoms: C_15  and  O_16
REMARK    4  A    between atoms: O_16  and  C_17
REMARK                            x       y       z     vdW  Elec       q    Type
REMARK                         _______ _______ _______ _____ _____    ______ ____
ROOT
ATOM      1  C   UNL     1       2.988   6.785  19.188  0.00  0.00    +0.000 A 
ATOM      2  C   UNL     1       2.951   7.488  17.994  0.00  0.00    +0.000 A 
ATOM      3  N   UNL     1       3.847   7.323  16.990  0.00  0.00    +0.000 NA
ATOM      4  C   UNL     1       4.811   6.401  17.149  0.00  0.00    +0.000 A 
ATOM      5  C   UNL     1       5.728   6.198  16.126  0.00  0.00    +0.000 A 
ATOM      6  C   UNL     1       6.756   5.256  16.226  0.00  0.00    +0.000 A 
ATOM      7  C   UNL     1       6.852   4.465  17.368  0.00  0.00    +0.000 A 
ATOM      8  C   UNL     1       5.943   4.653  18.411  0.00  0.00    +0.000 A 
ATOM      9  C   UNL     1       4.925   5.619  18.318  0.00  0.00    +0.000 A 
ATOM     10  C   UNL     1       3.991   5.831  19.351  0.00  0.00    +0.000 A 
ENDROOT
BRANCH   1  12
ATOM     11  O   UNL     1       1.458   6.111  20.830  0.00  0.00    +0.000 OA
ATOM     12  C   UNL     1       1.929   7.042  20.187  0.00  0.00    +0.000 C 
ATOM     13  N   UNL     1       1.503   8.345  20.335  0.00  0.00    +0.000 N 
ATOM     14  H   UNL     1       1.689   9.017  19.597  0.00  0.00    +0.000 HD
BRANCH  13  15
ATOM     15  C   UNL     1       0.401   8.655  21.232  0.00  0.00    +0.000 C 
ATOM     16  C   UNL     1       0.844   9.149  22.612  0.00  0.00    +0.000 C 
ATOM     17  C   UNL     1      -0.284  10.067  23.047  0.00  0.00    +0.000 C 
ATOM     18  N   UNL     1      -0.780  10.609  21.819  0.00  0.00    +0.000 N 
ATOM     19  C   UNL     1      -0.436   9.831  20.729  0.00  0.00    +0.000 C 
ATOM     20  O   UNL     1      -0.766  10.048  19.575  0.00  0.00    +0.000 OA
ATOM     21  H   UNL     1      -1.404  11.402  21.726  0.00  0.00    +0.000 HD
ENDBRANCH  13  15
ENDBRANCH   1  12
BRANCH   6  22
ATOM     22  O   UNL     1       7.570   5.174  15.130  0.00  0.00    +0.000 OA
BRANCH  22  23
ATOM     23  C   UNL     1       6.924   4.919  13.894  0.00  0.00    +0.000 C 
ATOM     24  F   UNL     1       7.792   5.178  12.886  0.00  0.00    +0.000 F 
ATOM     25  F   UNL     1       6.654   3.590  13.847  0.00  0.00    +0.000 F 
ENDBRANCH  22  23
ENDBRANCH   6  22
TORSDOF 4
ENDMDL
MODEL 5
REMARK VINA RESULT:      -7.6      1.606      1.797
REMARK  Name = 
REMARK  4 active torsions:
REMARK  status: ('A' for Active; 'I' for Inactive)
REMARK    1  A    between atoms: C_2  and  C_10
REMARK    2  A    between atoms: N_3  and  C_4
REMARK    3  A    between atoms: C_15  and  O_16
REMARK    4  A    between atoms: O_16  and  C_17
REMARK                            x       y       z     vdW  Elec       q    Type
REMARK                         _______ _______ _______ _____ _____    ______ ____
ROOT
ATOM      1  C   UNL     1       3.262   6.476  18.560  0.00  0.00    +0.000 A 
ATOM      2  C   UNL     1       2.723   6.193  19.805  0.00  0.00    +0.000 A 
ATOM      3  N   UNL     1       1.873   7.017  20.467  0.00  0.00    +0.000 NA
ATOM      4  C   UNL     1       1.508   8.163  19.867  0.00  0.00    +0.000 A 
ATOM      5  C   UNL     1       0.622   9.013  20.515  0.00  0.00    +0.000 A 
ATOM      6  C   UNL     1       0.202  10.219  19.949  0.00  0.00    +0.000 A 
ATOM      7  C   UNL     1       0.650  10.573  18.680  0.00  0.00    +0.000 A 
ATOM      8  C   UNL     1       1.544   9.735  18.008  0.00  0.00    +0.000 A 
ATOM      9  C   UNL     1       1.985   8.533  18.592  0.00  0.00    +0.000 A 
ATOM     10  C   UNL     1       2.883   7.666  17.941  0.00  0.00    +0.000 A 
ENDROOT
BRANCH   1  12
ATOM     11  O   UNL     1       4.430   4.444  18.542  0.00  0.00    +0.000 OA
ATOM     12  C   UNL     1       4.153   5.473  17.937  0.00  0.00    +0.000 C 
ATOM     13  N   UNL     1       4.652   5.763  16.685  0.00  0.00    +0.000 N 
ATOM     14  H   UNL     1       4.650   6.724  16.358  0.00  0.00    +0.000 HD
BRANCH  13  15
ATOM     15  C   UNL     1       5.606   4.866  16.054  0.00  0.00    +0.000 C 
ATOM     16  C   UNL     1       5.227   4.460  14.627  0.00  0.00    +0.000 C 
ATOM     17  C   UNL     1       6.565   4.221  13.951  0.00  0.00    +0.000 C 
ATOM     18  N   UNL     1       7.451   5.131  14.612  0.00  0.00    +0.000 N 
ATOM     19  C   UNL     1       6.967   5.529  15.843  0.00  0.00    +0.000 C 
ATOM     20  O   UNL     1       7.544   6.268  16.624  0.00  0.00    +0.000 OA
ATOM     21  H   UNL     1       8.380   5.390  14.300  0.00  0.00    +0.000 HD
ENDBRANCH  13  15
ENDBRANCH   1  12
BRANCH   6  22
ATOM     22  O   UNL     1      -0.676  10.938  20.711  0.00  0.00    +0.000 OA
BRANCH  22  23
ATOM     23  C   UNL     1      -1.339  12.006  20.055  0.00  0.00    +0.000 C 
ATOM     24  F   UNL     1      -2.398  11.508  19.371  0.00  0.00    +0.000 F 
ATOM     25  F   UNL     1      -1.843  12.820  21.017  0.00  0.00    +0.000 F 
ENDBRANCH  22  23
ENDBRANCH   6  22
TORSDOF 4
ENDMDL
MODEL 6
REMARK VINA RESULT:      -7.6      1.320      1.498
REMARK  Name = 
REMARK  4 active torsions:
REMARK  status: ('A' for Active; 'I' for Inactive)
REMARK    1  A    between atoms: C_2  and  C_10
REMARK    2  A    between atoms: N_3  and  C_4
REMARK    3  A    between atoms: C_15  and  O_16
REMARK    4  A    between atoms: O_16  and  C_17
REMARK                            x       y       z     vdW  Elec       q    Type
REMARK                         _______ _______ _______ _____ _____    ______ ____
ROOT
ATOM      1  C   UNL     1       3.052   6.607  18.576  0.00  0.00    +0.000 A 
ATOM      2  C   UNL     1       2.578   6.361  19.855  0.00  0.00    +0.000 A 
ATOM      3  N   UNL     1       1.778   7.213  20.543  0.00  0.00    +0.000 NA
ATOM      4  C   UNL     1       1.397   8.350  19.938  0.00  0.00    +0.000 A 
ATOM      5  C   UNL     1       0.562   9.229  20.614  0.00  0.00    +0.000 A 
ATOM      6  C   UNL     1       0.128  10.429  20.044  0.00  0.00    +0.000 A 
ATOM      7  C   UNL     1       0.510  10.747  18.744  0.00  0.00    +0.000 A 
ATOM      8  C   UNL     1       1.353   9.880  18.044  0.00  0.00    +0.000 A 
ATOM      9  C   UNL     1       1.809   8.685  18.630  0.00  0.00    +0.000 A 
ATOM     10  C   UNL     1       2.656   7.789  17.951  0.00  0.00    +0.000 A 
ENDROOT
BRANCH   1  12
ATOM     11  O   UNL     1       3.775   4.401  18.254  0.00  0.00    +0.000 OA
ATOM     12  C   UNL     1       3.892   5.577  17.928  0.00  0.00    +0.000 C 
ATOM     13  N   UNL     1       4.798   6.005  16.982  0.00  0.00    +0.000 N 
ATOM     14  H   UNL     1       5.074   6.982  16.961  0.00  0.00    +0.000 HD
BRANCH  13  15
ATOM     15  C   UNL     1       5.719   5.058  16.373  0.00  0.00    +0.000 C 
ATOM     16  C   UNL     1       5.251   4.520  15.018  0.00  0.00    +0.000 C 
ATOM     17  C   UNL     1       6.544   4.227  14.279  0.00  0.00    +0.000 C 
ATOM     18  N   UNL     1       7.461   5.199  14.792  0.00  0.00    +0.000 N 
ATOM     19  C   UNL     1       7.055   5.707  16.012  0.00  0.00    +0.000 C 
ATOM     20  O   UNL     1       7.674   6.518  16.681  0.00  0.00    +0.000 OA
ATOM     21  H   UNL     1       8.364   5.434  14.397  0.00  0.00    +0.000 HD
ENDBRANCH  13  15
ENDBRANCH   1  12
BRANCH   6  22
ATOM     22  O   UNL     1      -0.696  11.178  20.837  0.00  0.00    +0.000 OA
BRANCH  22  23
ATOM     23  C   UNL     1      -0.055  12.091  21.712  0.00  0.00    +0.000 C 
ATOM     24  F   UNL     1      -0.189  13.343  21.212  0.00  0.00    +0.000 F 
ATOM     25  F   UNL     1      -0.732  12.064  22.888  0.00  0.00    +0.000 F 
ENDBRANCH  22  23
ENDBRANCH   6  22
TORSDOF 4
ENDMDL
MODEL 7
REMARK VINA RESULT:      -7.6      1.974      2.488
REMARK  Name = 
REMARK  4 active torsions:
REMARK  status: ('A' for Active; 'I' for Inactive)
REMARK    1  A    between atoms: C_2  and  C_10
REMARK    2  A    between atoms: N_3  and  C_4
REMARK    3  A    between atoms: C_15  and  O_16
REMARK    4  A    between atoms: O_16  and  C_17
REMARK                            x       y       z     vdW  Elec       q    Type
REMARK                         _______ _______ _______ _____ _____    ______ ____
ROOT
ATOM      1  C   UNL     1       2.890   7.069  18.454  0.00  0.00    +0.000 A 
ATOM      2  C   UNL     1       2.688   8.135  17.591  0.00  0.00    +0.000 A 
ATOM      3  N   UNL     1       1.920   9.213  17.885  0.00  0.00    +0.000 NA
ATOM      4  C   UNL     1       1.344   9.266  19.098  0.00  0.00    +0.000 A 
ATOM      5  C   UNL     1       0.570  10.369  19.431  0.00  0.00    +0.000 A 
ATOM      6  C   UNL     1      -0.058  10.489  20.674  0.00  0.00    +0.000 A 
ATOM      7  C   UNL     1       0.121   9.492  21.630  0.00  0.00    +0.000 A 
ATOM      8  C   UNL     1       0.893   8.371  21.317  0.00  0.00    +0.000 A 
ATOM      9  C   UNL     1       1.503   8.242  20.056  0.00  0.00    +0.000 A 
ATOM     10  C   UNL     1       2.290   7.126  19.711  0.00  0.00    +0.000 A 
ENDROOT
BRANCH   1  12
ATOM     11  O   UNL     1       3.719   4.880  18.575  0.00  0.00    +0.000 OA
ATOM     12  C   UNL     1       3.778   5.970  18.017  0.00  0.00    +0.000 C 
ATOM     13  N   UNL     1       4.660   6.241  16.994  0.00  0.00    +0.000 N 
ATOM     14  H   UNL     1       4.888   7.206  16.773  0.00  0.00    +0.000 HD
BRANCH  13  15
ATOM     15  C   UNL     1       5.626   5.236  16.578  0.00  0.00    +0.000 C 
ATOM     16  C   UNL     1       5.234   4.489  15.300  0.00  0.00    +0.000 C 
ATOM     17  C   UNL     1       6.566   4.120  14.673  0.00  0.00    +0.000 C 
ATOM     18  N   UNL     1       7.440   5.180  15.075  0.00  0.00    +0.000 N 
ATOM     19  C   UNL     1       6.967   5.855  16.184  0.00  0.00    +0.000 C 
ATOM     20  O   UNL     1       7.539   6.772  16.750  0.00  0.00    +0.000 OA
ATOM     21  H   UNL     1       8.358   5.374  14.690  0.00  0.00    +0.000 HD
ENDBRANCH  13  15
ENDBRANCH   1  12
BRANCH   6  22
ATOM     22  O   UNL     1      -0.778  11.638  20.848  0.00  0.00    +0.000 OA
BRANCH  22  23
ATOM     23  C   UNL     1      -1.340  12.202  19.675  0.00  0.00    +0.000 C 
ATOM     24  F   UNL     1      -2.544  11.626  19.446  0.00  0.00    +0.000 F 
ATOM     25  F   UNL     1      -1.576  13.514  19.932  0.00  0.00    +0.000 F 
ENDBRANCH  22  23
ENDBRANCH   6  22
TORSDOF 4
ENDMDL
MODEL 8
REMARK VINA RESULT:      -7.6      1.294      1.456
REMARK  Name = 
REMARK  4 active torsions:
REMARK  status: ('A' for Active; 'I' for Inactive)
REMARK    1  A    between atoms: C_2  and  C_10
REMARK    2  A    between atoms: N_3  and  C_4
REMARK    3  A    between atoms: C_15  and  O_16
REMARK    4  A    between atoms: O_16  and  C_17
REMARK                            x       y       z     vdW  Elec       q    Type
REMARK                         _______ _______ _______ _____ _____    ______ ____
ROOT
ATOM      1  C   UNL     1       2.543   6.986  18.667  0.00  0.00    +0.000 A 
ATOM      2  C   UNL     1       2.162   6.789  19.985  0.00  0.00    +0.000 A 
ATOM      3  N   UNL     1       1.555   7.731  20.747  0.00  0.00    +0.000 NA
ATOM      4  C   UNL     1       1.277   8.918  20.183  0.00  0.00    +0.000 A 
ATOM      5  C   UNL     1       0.636   9.892  20.936  0.00  0.00    +0.000 A 
ATOM      6  C   UNL     1       0.318  11.148  20.412  0.00  0.00    +0.000 A 
ATOM      7  C   UNL     1       0.616  11.429  19.081  0.00  0.00    +0.000 A 
ATOM      8  C   UNL     1       1.264  10.467  18.304  0.00  0.00    +0.000 A 
ATOM      9  C   UNL     1       1.605   9.213  18.842  0.00  0.00    +0.000 A 
ATOM     10  C   UNL     1       2.255   8.220  18.084  0.00  0.00    +0.000 A 
ENDROOT
BRANCH   1  12
ATOM     11  O   UNL     1       2.616   4.769  17.913  0.00  0.00    +0.000 OA
ATOM     12  C   UNL     1       3.170   5.862  17.941  0.00  0.00    +0.000 C 
ATOM     13  N   UNL     1       4.385   6.100  17.335  0.00  0.00    +0.000 N 
ATOM     14  H   UNL     1       4.941   6.897  17.629  0.00  0.00    +0.000 HD
BRANCH  13  15
ATOM     15  C   UNL     1       5.101   5.016  16.684  0.00  0.00    +0.000 C 
ATOM     16  C   UNL     1       5.727   5.402  15.340  0.00  0.00    +0.000 C 
ATOM     17  C   UNL     1       6.944   4.501  15.235  0.00  0.00    +0.000 C 
ATOM     18  N   UNL     1       7.348   4.309  16.595  0.00  0.00    +0.000 N 
ATOM     19  C   UNL     1       6.325   4.570  17.485  0.00  0.00    +0.000 C 
ATOM     20  O   UNL     1       6.393   4.446  18.697  0.00  0.00    +0.000 OA
ATOM     21  H   UNL     1       8.232   3.923  16.905  0.00  0.00    +0.000 HD
ENDBRANCH  13  15
ENDBRANCH   1  12
BRANCH   6  22
ATOM     22  O   UNL     1      -0.318  11.990  21.280  0.00  0.00    +0.000 OA
BRANCH  22  23
ATOM     23  C   UNL     1      -1.329  11.406  22.084  0.00  0.00    +0.000 C 
ATOM     24  F   UNL     1      -1.041  11.642  23.388  0.00  0.00    +0.000 F 
ATOM     25  F   UNL     1      -2.487  12.061  21.815  0.00  0.00    +0.000 F 
ENDBRANCH  22  23
ENDBRANCH   6  22
TORSDOF 4
ENDMDL
MODEL 9
REMARK VINA RESULT:      -7.5      1.674      2.194
REMARK  Name = 
REMARK  4 active torsions:
REMARK  status: ('A' for Active; 'I' for Inactive)
REMARK    1  A    between atoms: C_2  and  C_10
REMARK    2  A    between atoms: N_3  and  C_4
REMARK    3  A    between atoms: C_15  and  O_16
REMARK    4  A    between atoms: O_16  and  C_17
REMARK                            x       y       z     vdW  Elec       q    Type
REMARK                         _______ _______ _______ _____ _____    ______ ____
ROOT
ATOM      1  C   UNL     1       4.522   5.501  17.627  0.00  0.00    +0.000 A 
ATOM      2  C   UNL     1       4.199   5.016  18.885  0.00  0.00    +0.000 A 
ATOM      3  N   UNL     1       3.367   5.647  19.750  0.00  0.00    +0.000 NA
ATOM      4  C   UNL     1       2.796   6.797  19.353  0.00  0.00    +0.000 A 
ATOM      5  C   UNL     1       1.924   7.451  20.211  0.00  0.00    +0.000 A 
ATOM      6  C   UNL     1       1.297   8.650  19.862  0.00  0.00    +0.000 A 
ATOM      7  C   UNL     1       1.519   9.196  18.601  0.00  0.00    +0.000 A 
ATOM      8  C   UNL     1       2.394   8.558  17.720  0.00  0.00    +0.000 A 
ATOM      9  C   UNL     1       3.044   7.364  18.084  0.00  0.00    +0.000 A 
ATOM     10  C   UNL     1       3.929   6.695  17.218  0.00  0.00    +0.000 A 
ENDROOT
BRANCH   1  12
ATOM     11  O   UNL     1       6.361   4.092  17.275  0.00  0.00    +0.000 OA
ATOM     12  C   UNL     1       5.420   4.694  16.773  0.00  0.00    +0.000 C 
ATOM     13  N   UNL     1       5.156   4.677  15.420  0.00  0.00    +0.000 N 
ATOM     14  H   UNL     1       4.578   5.406  15.015  0.00  0.00    +0.000 HD
BRANCH  13  15
ATOM     15  C   UNL     1       6.052   3.981  14.511  0.00  0.00    +0.000 C 
ATOM     16  C   UNL     1       5.400   3.572  13.187  0.00  0.00    +0.000 C 
ATOM     17  C   UNL     1       6.549   3.591  12.196  0.00  0.00    +0.000 C 
ATOM     18  N   UNL     1       7.418   4.612  12.697  0.00  0.00    +0.000 N 
ATOM     19  C   UNL     1       7.198   4.873  14.036  0.00  0.00    +0.000 C 
ATOM     20  O   UNL     1       7.828   5.669  14.714  0.00  0.00    +0.000 OA
ATOM     21  H   UNL     1       8.189   5.038  12.196  0.00  0.00    +0.000 HD
ENDBRANCH  13  15
ENDBRANCH   1  12
BRANCH   6  22
ATOM     22  O   UNL     1       0.463   9.163  20.816  0.00  0.00    +0.000 OA
BRANCH  22  23
ATOM     23  C   UNL     1       0.073  10.514  20.639  0.00  0.00    +0.000 C 
ATOM     24  F   UNL     1      -0.997  10.768  21.431  0.00  0.00    +0.000 F 
ATOM     25  F   UNL     1       1.090  11.290  21.094  0.00  0.00    +0.000 F 
ENDBRANCH  22  23
ENDBRANCH   6  22
TORSDOF 4
ENDMDL
