MODEL 1
REMARK VINA RESULT:      -7.1      0.000      0.000
REMARK  Name = 
REMARK  5 active torsions:
REMARK  status: ('A' for Active; 'I' for Inactive)
REMARK    1  A    between atoms: C_1  and  C_2
REMARK    2  A    between atoms: C_2  and  N_3
REMARK    3  A    between atoms: N_3  and  C_4
REMARK    4  A    between atoms: N_3  and  C_13
REMARK    5  A    between atoms: C_4  and  C_5
REMARK                            x       y       z     vdW  Elec       q    Type
REMARK                         _______ _______ _______ _____ _____    ______ ____
ROOT
ATOM      1  N   UNL     1       3.370   5.912  18.271  0.00  0.00    +0.000 NA
ENDROOT
BRANCH   1   2
ATOM      2  C   UNL     1       3.797   5.315  19.590  0.00  0.00    +0.000 C 
ATOM      3  C   UNL     1       4.318   3.856  19.603  0.00  0.00    +0.000 C 
ATOM      4  C   UNL     1       3.117   2.955  19.385  0.00  0.00    +0.000 C 
ATOM      5  S   UNL     1       1.965   3.581  20.576  0.00  0.00    +0.000 S 
ATOM      6  O   UNL     1       2.226   2.918  21.842  0.00  0.00    +0.000 OA
ATOM      7  O   UNL     1       0.645   3.623  19.990  0.00  0.00    +0.000 OA
ATOM      8  C   UNL     1       2.653   5.232  20.653  0.00  0.00    +0.000 C 
ENDBRANCH   1   2
BRANCH   1  10
ATOM      9  C   UNL     1       2.252   8.215  17.897  0.00  0.00    +0.000 C 
ATOM     10  C   UNL     1       2.201   6.820  18.520  0.00  0.00    +0.000 C 
ENDBRANCH   1  10
BRANCH   1  11
ATOM     11  C   UNL     1       4.430   6.729  17.583  0.00  0.00    +0.000 C 
BRANCH  11  12
ATOM     12  C   UNL     1       5.411   5.960  16.720  0.00  0.00    +0.000 A 
ATOM     13  C   UNL     1       5.008   5.559  15.432  0.00  0.00    +0.000 A 
ATOM     14  C   UNL     1       5.745   4.607  14.732  0.00  0.00    +0.000 A 
ATOM     15  F   UNL     1       5.271   4.129  13.574  0.00  0.00    +0.000 F 
ATOM     16  C   UNL     1       6.917   4.081  15.257  0.00  0.00    +0.000 A 
ATOM     17  C   UNL     1       7.398   4.562  16.475  0.00  0.00    +0.000 A 
ATOM     18  C   UNL     1       6.662   5.514  17.196  0.00  0.00    +0.000 A 
ATOM     19 CL   UNL     1       7.284   5.980  18.739  0.00  0.00    +0.000 Cl
ENDBRANCH  11  12
ENDBRANCH   1  11
TORSDOF 4
ENDMDL
MODEL 2
REMARK VINA RESULT:      -7.1      2.370      3.003
REMARK  Name = 
REMARK  5 active torsions:
REMARK  status: ('A' for Active; 'I' for Inactive)
REMARK    1  A    between atoms: C_1  and  C_2
REMARK    2  A    between atoms: C_2  and  N_3
REMARK    3  A    between atoms: N_3  and  C_4
REMARK    4  A    between atoms: N_3  and  C_13
REMARK    5  A    between atoms: C_4  and  C_5
REMARK                            x       y       z     vdW  Elec       q    Type
REMARK                         _______ _______ _______ _____ _____    ______ ____
ROOT
ATOM      1  N   UNL     1       3.657   4.083  17.893  0.00  0.00    +0.000 NA
ENDROOT
BRANCH   1   2
ATOM      2  C   UNL     1       3.667   3.039  18.983  0.00  0.00    +0.000 C 
ATOM      3  C   UNL     1       2.638   1.885  18.905  0.00  0.00    +0.000 C 
ATOM      4  C   UNL     1       1.282   2.476  19.243  0.00  0.00    +0.000 C 
ATOM      5  S   UNL     1       1.629   3.363  20.736  0.00  0.00    +0.000 S 
ATOM      6  O   UNL     1       1.496   2.437  21.848  0.00  0.00    +0.000 OA
ATOM      7  O   UNL     1       0.941   4.633  20.710  0.00  0.00    +0.000 OA
ATOM      8  C   UNL     1       3.373   3.605  20.411  0.00  0.00    +0.000 C 
ENDBRANCH   1   2
BRANCH   1  10
ATOM      9  C   UNL     1       2.558   6.413  18.135  0.00  0.00    +0.000 C 
ATOM     10  C   UNL     1       3.666   5.439  18.537  0.00  0.00    +0.000 C 
ENDBRANCH   1  10
BRANCH   1  11
ATOM     11  C   UNL     1       4.837   4.025  16.961  0.00  0.00    +0.000 C 
BRANCH  11  12
ATOM     12  C   UNL     1       5.969   4.990  17.255  0.00  0.00    +0.000 A 
ATOM     13  C   UNL     1       6.896   4.658  18.261  0.00  0.00    +0.000 A 
ATOM     14  C   UNL     1       7.756   5.628  18.769  0.00  0.00    +0.000 A 
ATOM     15  F   UNL     1       8.528   5.337  19.824  0.00  0.00    +0.000 F 
ATOM     16  C   UNL     1       7.762   6.918  18.257  0.00  0.00    +0.000 A 
ATOM     17  C   UNL     1       6.940   7.228  17.173  0.00  0.00    +0.000 A 
ATOM     18  C   UNL     1       6.062   6.265  16.657  0.00  0.00    +0.000 A 
ATOM     19 CL   UNL     1       5.012   6.765  15.380  0.00  0.00    +0.000 Cl
ENDBRANCH  11  12
ENDBRANCH   1  11
TORSDOF 4
ENDMDL
MODEL 3
REMARK VINA RESULT:      -7.0      3.516      5.175
REMARK  Name = 
REMARK  5 active torsions:
REMARK  status: ('A' for Active; 'I' for Inactive)
REMARK    1  A    between atoms: C_1  and  C_2
REMARK    2  A    between atoms: C_2  and  N_3
REMARK    3  A    between atoms: N_3  and  C_4
REMARK    4  A    between atoms: N_3  and  C_13
REMARK    5  A    between atoms: C_4  and  C_5
REMARK                            x       y       z     vdW  Elec       q    Type
REMARK                         _______ _______ _______ _____ _____    ______ ____
ROOT
ATOM      1  N   UNL     1       3.580   6.667  17.897  0.00  0.00    +0.000 NA
ENDROOT
BRANCH   1   2
ATOM      2  C   UNL     1       4.675   6.241  16.949  0.00  0.00    +0.000 C 
ATOM      3  C   UNL     1       4.821   4.733  16.625  0.00  0.00    +0.000 C 
ATOM      4  C   UNL     1       5.394   4.067  17.862  0.00  0.00    +0.000 C 
ATOM      5  S   UNL     1       6.773   5.114  18.237  0.00  0.00    +0.000 S 
ATOM      6  O   UNL     1       7.912   4.647  17.465  0.00  0.00    +0.000 OA
ATOM      7  O   UNL     1       6.846   5.315  19.666  0.00  0.00    +0.000 OA
ATOM      8  C   UNL     1       6.118   6.580  17.446  0.00  0.00    +0.000 C 
ENDBRANCH   1   2
BRANCH   1  10
ATOM      9  C   UNL     1       1.876   8.612  17.818  0.00  0.00    +0.000 C 
ATOM     10  C   UNL     1       3.322   8.131  17.692  0.00  0.00    +0.000 C 
ENDBRANCH   1  10
BRANCH   1  11
ATOM     11  C   UNL     1       2.271   5.952  17.702  0.00  0.00    +0.000 C 
BRANCH  11  12
ATOM     12  C   UNL     1       1.964   4.840  18.686  0.00  0.00    +0.000 A 
ATOM     13  C   UNL     1       1.739   3.542  18.189  0.00  0.00    +0.000 A 
ATOM     14  C   UNL     1       1.164   2.569  19.004  0.00  0.00    +0.000 A 
ATOM     15  F   UNL     1       0.822   1.387  18.476  0.00  0.00    +0.000 F 
ATOM     16  C   UNL     1       0.856   2.837  20.331  0.00  0.00    +0.000 A 
ATOM     17  C   UNL     1       1.190   4.079  20.873  0.00  0.00    +0.000 A 
ATOM     18  C   UNL     1       1.761   5.071  20.063  0.00  0.00    +0.000 A 
ATOM     19 CL   UNL     1       2.052   6.609  20.795  0.00  0.00    +0.000 Cl
ENDBRANCH  11  12
ENDBRANCH   1  11
TORSDOF 4
ENDMDL
MODEL 4
REMARK VINA RESULT:      -7.0      1.355      1.986
REMARK  Name = 
REMARK  5 active torsions:
REMARK  status: ('A' for Active; 'I' for Inactive)
REMARK    1  A    between atoms: C_1  and  C_2
REMARK    2  A    between atoms: C_2  and  N_3
REMARK    3  A    between atoms: N_3  and  C_4
REMARK    4  A    between atoms: N_3  and  C_13
REMARK    5  A    between atoms: C_4  and  C_5
REMARK                            x       y       z     vdW  Elec       q    Type
REMARK                         _______ _______ _______ _____ _____    ______ ____
ROOT
ATOM      1  N   UNL     1       2.626   4.653  18.289  0.00  0.00    +0.000 NA
ENDROOT
BRANCH   1   2
ATOM      2  C   UNL     1       1.507   4.083  19.128  0.00  0.00    +0.000 C 
ATOM      3  C   UNL     1       1.152   4.792  20.458  0.00  0.00    +0.000 C 
ATOM      4  C   UNL     1       2.273   4.488  21.435  0.00  0.00    +0.000 C 
ATOM      5  S   UNL     1       2.425   2.730  21.286  0.00  0.00    +0.000 S 
ATOM      6  O   UNL     1       1.473   2.119  22.198  0.00  0.00    +0.000 OA
ATOM      7  O   UNL     1       3.824   2.368  21.283  0.00  0.00    +0.000 OA
ATOM      8  C   UNL     1       1.763   2.623  19.626  0.00  0.00    +0.000 C 
ENDBRANCH   1   2
BRANCH   1  10
ATOM      9  C   UNL     1       2.617   7.223  17.995  0.00  0.00    +0.000 C 
ATOM     10  C   UNL     1       2.987   6.002  18.838  0.00  0.00    +0.000 C 
ENDBRANCH   1  10
BRANCH   1  11
ATOM     11  C   UNL     1       3.882   3.825  18.278  0.00  0.00    +0.000 C 
BRANCH  11  12
ATOM     12  C   UNL     1       4.973   4.278  17.328  0.00  0.00    +0.000 A 
ATOM     13  C   UNL     1       4.832   4.000  15.955  0.00  0.00    +0.000 A 
ATOM     14  C   UNL     1       5.925   4.121  15.100  0.00  0.00    +0.000 A 
ATOM     15  F   UNL     1       5.814   3.714  13.829  0.00  0.00    +0.000 F 
ATOM     16  C   UNL     1       7.153   4.570  15.566  0.00  0.00    +0.000 A 
ATOM     17  C   UNL     1       7.274   4.971  16.897  0.00  0.00    +0.000 A 
ATOM     18  C   UNL     1       6.186   4.847  17.772  0.00  0.00    +0.000 A 
ATOM     19 CL   UNL     1       6.455   5.275  19.424  0.00  0.00    +0.000 Cl
ENDBRANCH  11  12
ENDBRANCH   1  11
TORSDOF 4
ENDMDL
MODEL 5
REMARK VINA RESULT:      -6.8      4.143      5.637
REMARK  Name = 
REMARK  5 active torsions:
REMARK  status: ('A' for Active; 'I' for Inactive)
REMARK    1  A    between atoms: C_1  and  C_2
REMARK    2  A    between atoms: C_2  and  N_3
REMARK    3  A    between atoms: N_3  and  C_4
REMARK    4  A    between atoms: N_3  and  C_13
REMARK    5  A    between atoms: C_4  and  C_5
REMARK                            x       y       z     vdW  Elec       q    Type
REMARK                         _______ _______ _______ _____ _____    ______ ____
ROOT
ATOM      1  N   UNL     1       3.638   6.569  18.862  0.00  0.00    +0.000 NA
ENDROOT
BRANCH   1   2
ATOM      2  C   UNL     1       4.270   5.310  18.319  0.00  0.00    +0.000 C 
ATOM      3  C   UNL     1       5.388   4.631  19.149  0.00  0.00    +0.000 C 
ATOM      4  C   UNL     1       6.621   5.508  19.031  0.00  0.00    +0.000 C 
ATOM      5  S   UNL     1       6.730   5.757  17.281  0.00  0.00    +0.000 S 
ATOM      6  O   UNL     1       7.475   4.644  16.717  0.00  0.00    +0.000 OA
ATOM      7  O   UNL     1       7.086   7.131  17.015  0.00  0.00    +0.000 OA
ATOM      8  C   UNL     1       4.991   5.499  16.945  0.00  0.00    +0.000 C 
ENDBRANCH   1   2
BRANCH   1  10
ATOM      9  C   UNL     1       2.241   8.418  17.712  0.00  0.00    +0.000 C 
ATOM     10  C   UNL     1       3.501   7.551  17.736  0.00  0.00    +0.000 C 
ENDBRANCH   1  10
BRANCH   1  11
ATOM     11  C   UNL     1       2.269   6.376  19.455  0.00  0.00    +0.000 C 
BRANCH  11  12
ATOM     12  C   UNL     1       1.864   4.944  19.749  0.00  0.00    +0.000 A 
ATOM     13  C   UNL     1       2.077   4.435  21.044  0.00  0.00    +0.000 A 
ATOM     14  C   UNL     1       2.006   3.063  21.277  0.00  0.00    +0.000 A 
ATOM     15  F   UNL     1       2.354   2.581  22.477  0.00  0.00    +0.000 F 
ATOM     16  C   UNL     1       1.669   2.180  20.261  0.00  0.00    +0.000 A 
ATOM     17  C   UNL     1       1.330   2.682  19.004  0.00  0.00    +0.000 A 
ATOM     18  C   UNL     1       1.405   4.059  18.751  0.00  0.00    +0.000 A 
ATOM     19 CL   UNL     1       1.062   4.580  17.140  0.00  0.00    +0.000 Cl
ENDBRANCH  11  12
ENDBRANCH   1  11
TORSDOF 4
ENDMDL
MODEL 6
REMARK VINA RESULT:      -6.8      4.362      6.189
REMARK  Name = 
REMARK  5 active torsions:
REMARK  status: ('A' for Active; 'I' for Inactive)
REMARK    1  A    between atoms: C_1  and  C_2
REMARK    2  A    between atoms: C_2  and  N_3
REMARK    3  A    between atoms: N_3  and  C_4
REMARK    4  A    between atoms: N_3  and  C_13
REMARK    5  A    between atoms: C_4  and  C_5
REMARK                            x       y       z     vdW  Elec       q    Type
REMARK                         _______ _______ _______ _____ _____    ______ ____
ROOT
ATOM      1  N   UNL     1       4.680   4.060  17.089  0.00  0.00    +0.000 NA
ENDROOT
BRANCH   1   2
ATOM      2  C   UNL     1       5.311   4.891  18.180  0.00  0.00    +0.000 C 
ATOM      3  C   UNL     1       4.914   6.384  18.290  0.00  0.00    +0.000 C 
ATOM      4  C   UNL     1       5.567   7.103  17.124  0.00  0.00    +0.000 C 
ATOM      5  S   UNL     1       7.241   6.537  17.233  0.00  0.00    +0.000 S 
ATOM      6  O   UNL     1       7.948   7.407  18.157  0.00  0.00    +0.000 OA
ATOM      7  O   UNL     1       7.741   6.261  15.906  0.00  0.00    +0.000 OA
ATOM      8  C   UNL     1       6.868   5.004  18.077  0.00  0.00    +0.000 C 
ENDBRANCH   1   2
BRANCH   1  10
ATOM      9  C   UNL     1       5.794   3.873  14.762  0.00  0.00    +0.000 C 
ATOM     10  C   UNL     1       5.775   3.485  16.241  0.00  0.00    +0.000 C 
ENDBRANCH   1  10
BRANCH   1  11
ATOM     11  C   UNL     1       3.848   2.908  17.585  0.00  0.00    +0.000 C 
BRANCH  11  12
ATOM     12  C   UNL     1       3.016   3.168  18.826  0.00  0.00    +0.000 A 
ATOM     13  C   UNL     1       3.428   2.598  20.046  0.00  0.00    +0.000 A 
ATOM     14  C   UNL     1       2.553   2.554  21.129  0.00  0.00    +0.000 A 
ATOM     15  F   UNL     1       2.904   1.881  22.231  0.00  0.00    +0.000 F 
ATOM     16  C   UNL     1       1.287   3.119  21.050  0.00  0.00    +0.000 A 
ATOM     17  C   UNL     1       0.912   3.799  19.891  0.00  0.00    +0.000 A 
ATOM     18  C   UNL     1       1.779   3.845  18.789  0.00  0.00    +0.000 A 
ATOM     19 CL   UNL     1       1.193   4.624  17.363  0.00  0.00    +0.000 Cl
ENDBRANCH  11  12
ENDBRANCH   1  11
TORSDOF 4
ENDMDL
MODEL 7
REMARK VINA RESULT:      -6.7      0.986      1.058
REMARK  Name = 
REMARK  5 active torsions:
REMARK  status: ('A' for Active; 'I' for Inactive)
REMARK    1  A    between atoms: C_1  and  C_2
REMARK    2  A    between atoms: C_2  and  N_3
REMARK    3  A    between atoms: N_3  and  C_4
REMARK    4  A    between atoms: N_3  and  C_13
REMARK    5  A    between atoms: C_4  and  C_5
REMARK                            x       y       z     vdW  Elec       q    Type
REMARK                         _______ _______ _______ _____ _____    ______ ____
ROOT
ATOM      1  N   UNL     1       3.293   6.120  18.018  0.00  0.00    +0.000 NA
ENDROOT
BRANCH   1   2
ATOM      2  C   UNL     1       3.588   4.696  18.426  0.00  0.00    +0.000 C 
ATOM      3  C   UNL     1       2.881   3.551  17.660  0.00  0.00    +0.000 C 
ATOM      4  C   UNL     1       1.427   3.558  18.095  0.00  0.00    +0.000 C 
ATOM      5  S   UNL     1       1.571   3.598  19.860  0.00  0.00    +0.000 S 
ATOM      6  O   UNL     1       1.699   2.228  20.329  0.00  0.00    +0.000 OA
ATOM      7  O   UNL     1       0.586   4.505  20.401  0.00  0.00    +0.000 OA
ATOM      8  C   UNL     1       3.191   4.360  19.900  0.00  0.00    +0.000 C 
ENDBRANCH   1   2
BRANCH   1  10
ATOM      9  C   UNL     1       2.004   8.144  18.985  0.00  0.00    +0.000 C 
ATOM     10  C   UNL     1       2.809   6.866  19.226  0.00  0.00    +0.000 C 
ENDBRANCH   1  10
BRANCH   1  11
ATOM     11  C   UNL     1       4.477   6.872  17.475  0.00  0.00    +0.000 C 
BRANCH  11  12
ATOM     12  C   UNL     1       5.451   6.070  16.633  0.00  0.00    +0.000 A 
ATOM     13  C   UNL     1       5.043   5.636  15.358  0.00  0.00    +0.000 A 
ATOM     14  C   UNL     1       5.771   4.657  14.685  0.00  0.00    +0.000 A 
ATOM     15  F   UNL     1       5.291   4.150  13.542  0.00  0.00    +0.000 F 
ATOM     16  C   UNL     1       6.938   4.135  15.224  0.00  0.00    +0.000 A 
ATOM     17  C   UNL     1       7.424   4.647  16.428  0.00  0.00    +0.000 A 
ATOM     18  C   UNL     1       6.698   5.625  17.122  0.00  0.00    +0.000 A 
ATOM     19 CL   UNL     1       7.325   6.130  18.651  0.00  0.00    +0.000 Cl
ENDBRANCH  11  12
ENDBRANCH   1  11
TORSDOF 4
ENDMDL
MODEL 8
REMARK VINA RESULT:      -6.7      4.303      6.073
REMARK  Name = 
REMARK  5 active torsions:
REMARK  status: ('A' for Active; 'I' for Inactive)
REMARK    1  A    between atoms: C_1  and  C_2
REMARK    2  A    between atoms: C_2  and  N_3
REMARK    3  A    between atoms: N_3  and  C_4
REMARK    4  A    between atoms: N_3  and  C_13
REMARK    5  A    between atoms: C_4  and  C_5
REMARK                            x       y       z     vdW  Elec       q    Type
REMARK                         _______ _______ _______ _____ _____    ______ ____
ROOT
ATOM      1  N   UNL     1       5.740   4.248  18.712  0.00  0.00    +0.000 NA
ENDROOT
BRANCH   1   2
ATOM      2  C   UNL     1       4.901   4.620  17.513  0.00  0.00    +0.000 C 
ATOM      3  C   UNL     1       4.942   3.694  16.272  0.00  0.00    +0.000 C 
ATOM      4  C   UNL     1       6.291   3.899  15.610  0.00  0.00    +0.000 C 
ATOM      5  S   UNL     1       6.385   5.664  15.503  0.00  0.00    +0.000 S 
ATOM      6  O   UNL     1       5.727   6.074  14.274  0.00  0.00    +0.000 OA
ATOM      7  O   UNL     1       7.724   6.094  15.836  0.00  0.00    +0.000 OA
ATOM      8  C   UNL     1       5.280   5.995  16.872  0.00  0.00    +0.000 C 
ENDBRANCH   1   2
BRANCH   1  10
ATOM      9  C   UNL     1       7.837   5.630  19.334  0.00  0.00    +0.000 C 
ATOM     10  C   UNL     1       6.313   5.506  19.296  0.00  0.00    +0.000 C 
ENDBRANCH   1  10
BRANCH   1  11
ATOM     11  C   UNL     1       4.984   3.551  19.811  0.00  0.00    +0.000 C 
BRANCH  11  12
ATOM     12  C   UNL     1       3.480   3.470  19.640  0.00  0.00    +0.000 A 
ATOM     13  C   UNL     1       2.686   4.521  20.137  0.00  0.00    +0.000 A 
ATOM     14  C   UNL     1       1.310   4.355  20.277  0.00  0.00    +0.000 A 
ATOM     15  F   UNL     1       0.591   5.306  20.885  0.00  0.00    +0.000 F 
ATOM     16  C   UNL     1       0.687   3.181  19.877  0.00  0.00    +0.000 A 
ATOM     17  C   UNL     1       1.441   2.180  19.264  0.00  0.00    +0.000 A 
ATOM     18  C   UNL     1       2.829   2.329  19.126  0.00  0.00    +0.000 A 
ATOM     19 CL   UNL     1       3.696   0.998  18.445  0.00  0.00    +0.000 Cl
ENDBRANCH  11  12
ENDBRANCH   1  11
TORSDOF 4
ENDMDL
MODEL 9
REMARK VINA RESULT:      -6.7      1.468      1.899
REMARK  Name = 
REMARK  5 active torsions:
REMARK  status: ('A' for Active; 'I' for Inactive)
REMARK    1  A    between atoms: C_1  and  C_2
REMARK    2  A    between atoms: C_2  and  N_3
REMARK    3  A    between atoms: N_3  and  C_4
REMARK    4  A    between atoms: N_3  and  C_13
REMARK    5  A    between atoms: C_4  and  C_5
REMARK                            x       y       z     vdW  Elec       q    Type
REMARK                         _______ _______ _______ _____ _____    ______ ____
ROOT
ATOM      1  N   UNL     1       3.027   3.721  17.777  0.00  0.00    +0.000 NA
ENDROOT
BRANCH   1   2
ATOM      2  C   UNL     1       2.680   2.551  18.666  0.00  0.00    +0.000 C 
ATOM      3  C   UNL     1       1.188   2.294  18.992  0.00  0.00    +0.000 C 
ATOM      4  C   UNL     1       0.751   3.381  19.956  0.00  0.00    +0.000 C 
ATOM      5  S   UNL     1       2.031   3.326  21.178  0.00  0.00    +0.000 S 
ATOM      6  O   UNL     1       1.670   2.318  22.161  0.00  0.00    +0.000 OA
ATOM      7  O   UNL     1       2.388   4.673  21.559  0.00  0.00    +0.000 OA
ATOM      8  C   UNL     1       3.288   2.640  20.104  0.00  0.00    +0.000 C 
ENDBRANCH   1   2
BRANCH   1  10
ATOM      9  C   UNL     1       2.370   6.182  18.228  0.00  0.00    +0.000 C 
ATOM     10  C   UNL     1       1.942   4.750  17.905  0.00  0.00    +0.000 C 
ENDBRANCH   1  10
BRANCH   1  11
ATOM     11  C   UNL     1       4.327   4.399  18.116  0.00  0.00    +0.000 C 
BRANCH  11  12
ATOM     12  C   UNL     1       5.253   4.691  16.951  0.00  0.00    +0.000 A 
ATOM     13  C   UNL     1       4.851   4.310  15.657  0.00  0.00    +0.000 A 
ATOM     14  C   UNL     1       5.776   4.280  14.617  0.00  0.00    +0.000 A 
ATOM     15  F   UNL     1       5.416   3.776  13.430  0.00  0.00    +0.000 F 
ATOM     16  C   UNL     1       7.091   4.679  14.816  0.00  0.00    +0.000 A 
ATOM     17  C   UNL     1       7.472   5.181  16.060  0.00  0.00    +0.000 A 
ATOM     18  C   UNL     1       6.554   5.209  17.120  0.00  0.00    +0.000 A 
ATOM     19 CL   UNL     1       7.140   5.755  18.651  0.00  0.00    +0.000 Cl
ENDBRANCH  11  12
ENDBRANCH   1  11
TORSDOF 4
ENDMDL
