MODEL 1
REMARK VINA RESULT:      -7.0      0.000      0.000
REMARK  Name = 
REMARK  5 active torsions:
REMARK  status: ('A' for Active; 'I' for Inactive)
REMARK    1  A    between atoms: C_2  and  C_4
REMARK    2  A    between atoms: C_4  and  S_5
REMARK    3  A    between atoms: C_4  and  C_15
REMARK    4  A    between atoms: S_5  and  C_6
REMARK    5  A    between atoms: C_6  and  C_7
REMARK                            x       y       z     vdW  Elec       q    Type
REMARK                         _______ _______ _______ _____ _____    ______ ____
ROOT
ATOM      1  C   UNL     1       6.232   5.094  15.991  0.00  0.00    +0.000 C 
ENDROOT
BRANCH   1   3
ATOM      2  N   UNL     1       6.220   3.621  14.010  0.00  0.00    +0.000 N 
ATOM      3  C   UNL     1       6.763   4.719  14.603  0.00  0.00    +0.000 C 
ATOM      4  O   UNL     1       7.622   5.362  13.998  0.00  0.00    +0.000 OA
ATOM      5  H   UNL     1       6.540   3.373  13.086  0.00  0.00    +0.000 HD
ATOM      6  H   UNL     1       5.464   3.094  14.427  0.00  0.00    +0.000 HD
ENDBRANCH   1   3
BRANCH   1   7
ATOM      7  C   UNL     1       7.322   5.632  16.947  0.00  0.00    +0.000 C 
ATOM      8  C   UNL     1       7.208   7.124  17.271  0.00  0.00    +0.000 C 
ATOM      9  C   UNL     1       8.051   7.298  18.529  0.00  0.00    +0.000 C 
ATOM     10  C   UNL     1       8.002   5.964  19.264  0.00  0.00    +0.000 C 
ATOM     11  C   UNL     1       7.293   4.986  18.338  0.00  0.00    +0.000 C 
ENDBRANCH   1   7
BRANCH   1  12
ATOM     12  S   UNL     1       5.340   3.635  16.717  0.00  0.00    +0.000 S 
BRANCH  12  13
ATOM     13  C   UNL     1       3.620   4.242  16.700  0.00  0.00    +0.000 C 
BRANCH  13  14
ATOM     14  C   UNL     1       3.144   4.555  18.098  0.00  0.00    +0.000 A 
ATOM     15  C   UNL     1       2.796   5.870  18.442  0.00  0.00    +0.000 A 
ATOM     16  C   UNL     1       2.357   6.170  19.730  0.00  0.00    +0.000 A 
ATOM     17 CL   UNL     1       1.925   7.788  20.124  0.00  0.00    +0.000 Cl
ATOM     18  C   UNL     1       2.265   5.173  20.701  0.00  0.00    +0.000 A 
ATOM     19  C   UNL     1       2.622   3.869  20.370  0.00  0.00    +0.000 A 
ATOM     20 CL   UNL     1       2.518   2.631  21.560  0.00  0.00    +0.000 Cl
ATOM     21  C   UNL     1       3.062   3.555  19.078  0.00  0.00    +0.000 A 
ENDBRANCH  13  14
ENDBRANCH  12  13
ENDBRANCH   1  12
TORSDOF 5
ENDMDL
MODEL 2
REMARK VINA RESULT:      -7.0      0.829      2.213
REMARK  Name = 
REMARK  5 active torsions:
REMARK  status: ('A' for Active; 'I' for Inactive)
REMARK    1  A    between atoms: C_2  and  C_4
REMARK    2  A    between atoms: C_4  and  S_5
REMARK    3  A    between atoms: C_4  and  C_15
REMARK    4  A    between atoms: S_5  and  C_6
REMARK    5  A    between atoms: C_6  and  C_7
REMARK                            x       y       z     vdW  Elec       q    Type
REMARK                         _______ _______ _______ _____ _____    ______ ____
ROOT
ATOM      1  C   UNL     1       5.890   5.161  16.166  0.00  0.00    +0.000 C 
ENDROOT
BRANCH   1   3
ATOM      2  N   UNL     1       7.424   5.262  14.234  0.00  0.00    +0.000 N 
ATOM      3  C   UNL     1       6.226   4.823  14.709  0.00  0.00    +0.000 C 
ATOM      4  O   UNL     1       5.494   4.165  13.968  0.00  0.00    +0.000 OA
ATOM      5  H   UNL     1       7.672   5.027  13.284  0.00  0.00    +0.000 HD
ATOM      6  H   UNL     1       8.096   5.746  14.813  0.00  0.00    +0.000 HD
ENDBRANCH   1   3
BRANCH   1   7
ATOM      7  C   UNL     1       7.099   5.686  16.974  0.00  0.00    +0.000 C 
ATOM      8  C   UNL     1       7.048   7.180  17.304  0.00  0.00    +0.000 C 
ATOM      9  C   UNL     1       8.044   7.345  18.445  0.00  0.00    +0.000 C 
ATOM     10  C   UNL     1       8.071   6.014  19.186  0.00  0.00    +0.000 C 
ATOM     11  C   UNL     1       7.238   5.043  18.360  0.00  0.00    +0.000 C 
ENDBRANCH   1   7
BRANCH   1  12
ATOM     12  S   UNL     1       5.116   3.678  16.973  0.00  0.00    +0.000 S 
BRANCH  12  13
ATOM     13  C   UNL     1       3.349   4.120  16.877  0.00  0.00    +0.000 C 
BRANCH  13  14
ATOM     14  C   UNL     1       2.818   4.520  18.232  0.00  0.00    +0.000 A 
ATOM     15  C   UNL     1       2.477   3.534  19.170  0.00  0.00    +0.000 A 
ATOM     16  C   UNL     1       1.984   3.892  20.424  0.00  0.00    +0.000 A 
ATOM     17 CL   UNL     1       1.583   2.666  21.561  0.00  0.00    +0.000 Cl
ATOM     18  C   UNL     1       1.814   5.234  20.764  0.00  0.00    +0.000 A 
ATOM     19  C   UNL     1       2.138   6.217  19.833  0.00  0.00    +0.000 A 
ATOM     20 CL   UNL     1       1.927   7.875  20.239  0.00  0.00    +0.000 Cl
ATOM     21  C   UNL     1       2.636   5.868  18.571  0.00  0.00    +0.000 A 
ENDBRANCH  13  14
ENDBRANCH  12  13
ENDBRANCH   1  12
TORSDOF 5
ENDMDL
MODEL 3
REMARK VINA RESULT:      -6.9      0.881      2.185
REMARK  Name = 
REMARK  5 active torsions:
REMARK  status: ('A' for Active; 'I' for Inactive)
REMARK    1  A    between atoms: C_2  and  C_4
REMARK    2  A    between atoms: C_4  and  S_5
REMARK    3  A    between atoms: C_4  and  C_15
REMARK    4  A    between atoms: S_5  and  C_6
REMARK    5  A    between atoms: C_6  and  C_7
REMARK                            x       y       z     vdW  Elec       q    Type
REMARK                         _______ _______ _______ _____ _____    ______ ____
ROOT
ATOM      1  C   UNL     1       6.333   5.646  15.823  0.00  0.00    +0.000 C 
ENDROOT
BRANCH   1   3
ATOM      2  N   UNL     1       6.265   3.605  14.436  0.00  0.00    +0.000 N 
ATOM      3  C   UNL     1       6.842   4.821  14.636  0.00  0.00    +0.000 C 
ATOM      4  O   UNL     1       7.713   5.206  13.853  0.00  0.00    +0.000 OA
ATOM      5  H   UNL     1       6.571   3.059  13.645  0.00  0.00    +0.000 HD
ATOM      6  H   UNL     1       5.500   3.265  15.003  0.00  0.00    +0.000 HD
ENDBRANCH   1   3
BRANCH   1   7
ATOM      7  C   UNL     1       7.404   5.892  16.912  0.00  0.00    +0.000 C 
ATOM      8  C   UNL     1       7.453   7.325  17.448  0.00  0.00    +0.000 C 
ATOM      9  C   UNL     1       8.210   7.204  18.765  0.00  0.00    +0.000 C 
ATOM     10  C   UNL     1       7.937   5.799  19.288  0.00  0.00    +0.000 C 
ATOM     11  C   UNL     1       7.185   5.066  18.186  0.00  0.00    +0.000 C 
ENDBRANCH   1   7
BRANCH   1  12
ATOM     12  S   UNL     1       4.815   4.834  16.523  0.00  0.00    +0.000 S 
BRANCH  12  13
ATOM     13  C   UNL     1       3.903   6.288  17.141  0.00  0.00    +0.000 C 
BRANCH  13  14
ATOM     14  C   UNL     1       3.116   5.945  18.382  0.00  0.00    +0.000 A 
ATOM     15  C   UNL     1       2.914   4.602  18.734  0.00  0.00    +0.000 A 
ATOM     16  C   UNL     1       2.187   4.273  19.877  0.00  0.00    +0.000 A 
ATOM     17 CL   UNL     1       1.962   2.620  20.294  0.00  0.00    +0.000 Cl
ATOM     18  C   UNL     1       1.641   5.271  20.684  0.00  0.00    +0.000 A 
ATOM     19  C   UNL     1       1.827   6.606  20.332  0.00  0.00    +0.000 A 
ATOM     20 CL   UNL     1       1.154   7.845  21.317  0.00  0.00    +0.000 Cl
ATOM     21  C   UNL     1       2.557   6.947  19.188  0.00  0.00    +0.000 A 
ENDBRANCH  13  14
ENDBRANCH  12  13
ENDBRANCH   1  12
TORSDOF 5
ENDMDL
MODEL 4
REMARK VINA RESULT:      -6.8      4.098      6.200
REMARK  Name = 
REMARK  5 active torsions:
REMARK  status: ('A' for Active; 'I' for Inactive)
REMARK    1  A    between atoms: C_2  and  C_4
REMARK    2  A    between atoms: C_4  and  S_5
REMARK    3  A    between atoms: C_4  and  C_15
REMARK    4  A    between atoms: S_5  and  C_6
REMARK    5  A    between atoms: C_6  and  C_7
REMARK                            x       y       z     vdW  Elec       q    Type
REMARK                         _______ _______ _______ _____ _____    ______ ____
ROOT
ATOM      1  C   UNL     1       2.518   3.961  20.306  0.00  0.00    +0.000 C 
ENDROOT
BRANCH   1   3
ATOM      2  N   UNL     1       0.293   2.903  20.152  0.00  0.00    +0.000 N 
ATOM      3  C   UNL     1       1.400   3.108  20.916  0.00  0.00    +0.000 C 
ATOM      4  O   UNL     1       1.462   2.588  22.032  0.00  0.00    +0.000 OA
ATOM      5  H   UNL     1      -0.442   2.323  20.528  0.00  0.00    +0.000 HD
ATOM      6  H   UNL     1       0.214   3.245  19.204  0.00  0.00    +0.000 HD
ENDBRANCH   1   3
BRANCH   1   7
ATOM      7  C   UNL     1       2.009   5.251  19.622  0.00  0.00    +0.000 C 
ATOM      8  C   UNL     1       2.749   6.527  20.033  0.00  0.00    +0.000 C 
ATOM      9  C   UNL     1       2.408   7.527  18.935  0.00  0.00    +0.000 C 
ATOM     10  C   UNL     1       2.161   6.708  17.673  0.00  0.00    +0.000 C 
ATOM     11  C   UNL     1       2.177   5.246  18.097  0.00  0.00    +0.000 C 
ENDBRANCH   1   7
BRANCH   1  12
ATOM     12  S   UNL     1       3.516   2.913  19.140  0.00  0.00    +0.000 S 
BRANCH  12  13
ATOM     13  C   UNL     1       5.193   3.563  19.446  0.00  0.00    +0.000 C 
BRANCH  13  14
ATOM     14  C   UNL     1       5.664   4.409  18.288  0.00  0.00    +0.000 A 
ATOM     15  C   UNL     1       5.371   4.021  16.972  0.00  0.00    +0.000 A 
ATOM     16  C   UNL     1       5.802   4.794  15.895  0.00  0.00    +0.000 A 
ATOM     17 CL   UNL     1       5.421   4.303  14.292  0.00  0.00    +0.000 Cl
ATOM     18  C   UNL     1       6.539   5.959  16.106  0.00  0.00    +0.000 A 
ATOM     19  C   UNL     1       6.845   6.342  17.409  0.00  0.00    +0.000 A 
ATOM     20 CL   UNL     1       7.758   7.774  17.682  0.00  0.00    +0.000 Cl
ATOM     21  C   UNL     1       6.414   5.575  18.498  0.00  0.00    +0.000 A 
ENDBRANCH  13  14
ENDBRANCH  12  13
ENDBRANCH   1  12
TORSDOF 5
ENDMDL
MODEL 5
REMARK VINA RESULT:      -6.8      4.092      6.049
REMARK  Name = 
REMARK  5 active torsions:
REMARK  status: ('A' for Active; 'I' for Inactive)
REMARK    1  A    between atoms: C_2  and  C_4
REMARK    2  A    between atoms: C_4  and  S_5
REMARK    3  A    between atoms: C_4  and  C_15
REMARK    4  A    between atoms: S_5  and  C_6
REMARK    5  A    between atoms: C_6  and  C_7
REMARK                            x       y       z     vdW  Elec       q    Type
REMARK                         _______ _______ _______ _____ _____    ______ ____
ROOT
ATOM      1  C   UNL     1       2.616   3.966  20.368  0.00  0.00    +0.000 C 
ENDROOT
BRANCH   1   3
ATOM      2  N   UNL     1       0.345   3.002  20.274  0.00  0.00    +0.000 N 
ATOM      3  C   UNL     1       1.508   3.097  20.975  0.00  0.00    +0.000 C 
ATOM      4  O   UNL     1       1.624   2.472  22.030  0.00  0.00    +0.000 OA
ATOM      5  H   UNL     1      -0.386   2.414  20.646  0.00  0.00    +0.000 HD
ATOM      6  H   UNL     1       0.217   3.435  19.370  0.00  0.00    +0.000 HD
ENDBRANCH   1   3
BRANCH   1   7
ATOM      7  C   UNL     1       2.088   5.227  19.645  0.00  0.00    +0.000 C 
ATOM      8  C   UNL     1       2.851   6.514  19.967  0.00  0.00    +0.000 C 
ATOM      9  C   UNL     1       2.473   7.464  18.836  0.00  0.00    +0.000 C 
ATOM     10  C   UNL     1       2.170   6.589  17.626  0.00  0.00    +0.000 C 
ATOM     11  C   UNL     1       2.195   5.149  18.117  0.00  0.00    +0.000 C 
ENDBRANCH   1   7
BRANCH   1  12
ATOM     12  S   UNL     1       3.666   2.920  19.248  0.00  0.00    +0.000 S 
BRANCH  12  13
ATOM     13  C   UNL     1       5.305   3.677  19.510  0.00  0.00    +0.000 C 
BRANCH  13  14
ATOM     14  C   UNL     1       5.730   4.476  18.302  0.00  0.00    +0.000 A 
ATOM     15  C   UNL     1       6.451   5.668  18.469  0.00  0.00    +0.000 A 
ATOM     16  C   UNL     1       6.847   6.415  17.360  0.00  0.00    +0.000 A 
ATOM     17 CL   UNL     1       7.739   7.867  17.590  0.00  0.00    +0.000 Cl
ATOM     18  C   UNL     1       6.528   5.996  16.069  0.00  0.00    +0.000 A 
ATOM     19  C   UNL     1       5.801   4.820  15.898  0.00  0.00    +0.000 A 
ATOM     20 CL   UNL     1       5.396   4.295  14.311  0.00  0.00    +0.000 Cl
ATOM     21  C   UNL     1       5.400   4.061  17.004  0.00  0.00    +0.000 A 
ENDBRANCH  13  14
ENDBRANCH  12  13
ENDBRANCH   1  12
TORSDOF 5
ENDMDL
MODEL 6
REMARK VINA RESULT:      -6.7      0.823      1.226
REMARK  Name = 
REMARK  5 active torsions:
REMARK  status: ('A' for Active; 'I' for Inactive)
REMARK    1  A    between atoms: C_2  and  C_4
REMARK    2  A    between atoms: C_4  and  S_5
REMARK    3  A    between atoms: C_4  and  C_15
REMARK    4  A    between atoms: S_5  and  C_6
REMARK    5  A    between atoms: C_6  and  C_7
REMARK                            x       y       z     vdW  Elec       q    Type
REMARK                         _______ _______ _______ _____ _____    ______ ____
ROOT
ATOM      1  C   UNL     1       5.763   5.517  16.055  0.00  0.00    +0.000 C 
ENDROOT
BRANCH   1   3
ATOM      2  N   UNL     1       6.459   3.545  14.744  0.00  0.00    +0.000 N 
ATOM      3  C   UNL     1       6.752   4.822  15.113  0.00  0.00    +0.000 C 
ATOM      4  O   UNL     1       7.765   5.358  14.661  0.00  0.00    +0.000 OA
ATOM      5  H   UNL     1       7.087   3.080  14.105  0.00  0.00    +0.000 HD
ATOM      6  H   UNL     1       5.609   3.077  15.027  0.00  0.00    +0.000 HD
ENDBRANCH   1   3
BRANCH   1   7
ATOM      7  C   UNL     1       6.383   5.926  17.412  0.00  0.00    +0.000 C 
ATOM      8  C   UNL     1       7.435   4.954  17.953  0.00  0.00    +0.000 C 
ATOM      9  C   UNL     1       8.196   5.769  18.992  0.00  0.00    +0.000 C 
ATOM     10  C   UNL     1       8.109   7.222  18.543  0.00  0.00    +0.000 C 
ATOM     11  C   UNL     1       7.149   7.254  17.362  0.00  0.00    +0.000 C 
ENDBRANCH   1   7
BRANCH   1  12
ATOM     12  S   UNL     1       4.271   4.433  16.280  0.00  0.00    +0.000 S 
BRANCH  12  13
ATOM     13  C   UNL     1       4.608   3.725  17.928  0.00  0.00    +0.000 C 
BRANCH  13  14
ATOM     14  C   UNL     1       3.589   4.196  18.937  0.00  0.00    +0.000 A 
ATOM     15  C   UNL     1       3.266   5.559  19.023  0.00  0.00    +0.000 A 
ATOM     16  C   UNL     1       2.327   6.005  19.952  0.00  0.00    +0.000 A 
ATOM     17 CL   UNL     1       1.940   7.678  20.031  0.00  0.00    +0.000 Cl
ATOM     18  C   UNL     1       1.701   5.108  20.817  0.00  0.00    +0.000 A 
ATOM     19  C   UNL     1       2.027   3.756  20.745  0.00  0.00    +0.000 A 
ATOM     20 CL   UNL     1       1.265   2.641  21.811  0.00  0.00    +0.000 Cl
ATOM     21  C   UNL     1       2.967   3.297  19.814  0.00  0.00    +0.000 A 
ENDBRANCH  13  14
ENDBRANCH  12  13
ENDBRANCH   1  12
TORSDOF 5
ENDMDL
MODEL 7
REMARK VINA RESULT:      -6.7      1.861      3.280
REMARK  Name = 
REMARK  5 active torsions:
REMARK  status: ('A' for Active; 'I' for Inactive)
REMARK    1  A    between atoms: C_2  and  C_4
REMARK    2  A    between atoms: C_4  and  S_5
REMARK    3  A    between atoms: C_4  and  C_15
REMARK    4  A    between atoms: S_5  and  C_6
REMARK    5  A    between atoms: C_6  and  C_7
REMARK                            x       y       z     vdW  Elec       q    Type
REMARK                         _______ _______ _______ _____ _____    ______ ____
ROOT
ATOM      1  C   UNL     1       6.503   4.518  16.015  0.00  0.00    +0.000 C 
ENDROOT
BRANCH   1   3
ATOM      2  N   UNL     1       5.424   6.724  15.767  0.00  0.00    +0.000 N 
ATOM      3  C   UNL     1       6.558   6.048  16.096  0.00  0.00    +0.000 C 
ATOM      4  O   UNL     1       7.548   6.683  16.461  0.00  0.00    +0.000 OA
ATOM      5  H   UNL     1       5.434   7.731  15.838  0.00  0.00    +0.000 HD
ATOM      6  H   UNL     1       4.560   6.256  15.527  0.00  0.00    +0.000 HD
ENDBRANCH   1   3
BRANCH   1   7
ATOM      7  C   UNL     1       6.714   3.966  14.586  0.00  0.00    +0.000 C 
ATOM      8  C   UNL     1       5.425   3.735  13.793  0.00  0.00    +0.000 C 
ATOM      9  C   UNL     1       5.888   3.653  12.343  0.00  0.00    +0.000 C 
ATOM     10  C   UNL     1       7.148   4.503  12.248  0.00  0.00    +0.000 C 
ATOM     11  C   UNL     1       7.503   4.912  13.671  0.00  0.00    +0.000 C 
ENDBRANCH   1   7
BRANCH   1  12
ATOM     12  S   UNL     1       4.904   3.926  16.752  0.00  0.00    +0.000 S 
BRANCH  12  13
ATOM     13  C   UNL     1       5.249   4.134  18.531  0.00  0.00    +0.000 C 
BRANCH  13  14
ATOM     14  C   UNL     1       3.993   4.496  19.286  0.00  0.00    +0.000 A 
ATOM     15  C   UNL     1       3.546   5.826  19.306  0.00  0.00    +0.000 A 
ATOM     16  C   UNL     1       2.389   6.172  20.001  0.00  0.00    +0.000 A 
ATOM     17 CL   UNL     1       1.854   7.806  20.002  0.00  0.00    +0.000 Cl
ATOM     18  C   UNL     1       1.661   5.205  20.696  0.00  0.00    +0.000 A 
ATOM     19  C   UNL     1       2.107   3.886  20.691  0.00  0.00    +0.000 A 
ATOM     20 CL   UNL     1       1.221   2.687  21.549  0.00  0.00    +0.000 Cl
ATOM     21  C   UNL     1       3.267   3.528  19.994  0.00  0.00    +0.000 A 
ENDBRANCH  13  14
ENDBRANCH  12  13
ENDBRANCH   1  12
TORSDOF 5
ENDMDL
MODEL 8
REMARK VINA RESULT:      -6.6      1.774      3.278
REMARK  Name = 
REMARK  5 active torsions:
REMARK  status: ('A' for Active; 'I' for Inactive)
REMARK    1  A    between atoms: C_2  and  C_4
REMARK    2  A    between atoms: C_4  and  S_5
REMARK    3  A    between atoms: C_4  and  C_15
REMARK    4  A    between atoms: S_5  and  C_6
REMARK    5  A    between atoms: C_6  and  C_7
REMARK                            x       y       z     vdW  Elec       q    Type
REMARK                         _______ _______ _______ _____ _____    ______ ____
ROOT
ATOM      1  C   UNL     1       6.168   4.339  15.730  0.00  0.00    +0.000 C 
ENDROOT
BRANCH   1   3
ATOM      2  N   UNL     1       8.041   4.338  17.338  0.00  0.00    +0.000 N 
ATOM      3  C   UNL     1       7.251   5.084  16.518  0.00  0.00    +0.000 C 
ATOM      4  O   UNL     1       7.457   6.296  16.430  0.00  0.00    +0.000 OA
ATOM      5  H   UNL     1       8.776   4.808  17.845  0.00  0.00    +0.000 HD
ATOM      6  H   UNL     1       7.966   3.332  17.400  0.00  0.00    +0.000 HD
ENDBRANCH   1   3
BRANCH   1   7
ATOM      7  C   UNL     1       6.199   4.626  14.211  0.00  0.00    +0.000 C 
ATOM      8  C   UNL     1       7.596   4.871  13.635  0.00  0.00    +0.000 C 
ATOM      9  C   UNL     1       7.423   4.665  12.135  0.00  0.00    +0.000 C 
ATOM     10  C   UNL     1       6.278   3.673  11.969  0.00  0.00    +0.000 C 
ATOM     11  C   UNL     1       5.685   3.462  13.355  0.00  0.00    +0.000 C 
ENDBRANCH   1   7
BRANCH   1  12
ATOM     12  S   UNL     1       4.506   4.722  16.468  0.00  0.00    +0.000 S 
BRANCH  12  13
ATOM     13  C   UNL     1       4.532   3.649  17.943  0.00  0.00    +0.000 C 
BRANCH  13  14
ATOM     14  C   UNL     1       3.536   4.124  18.974  0.00  0.00    +0.000 A 
ATOM     15  C   UNL     1       3.233   5.490  19.078  0.00  0.00    +0.000 A 
ATOM     16  C   UNL     1       2.316   5.939  20.027  0.00  0.00    +0.000 A 
ATOM     17 CL   UNL     1       1.953   7.617  20.128  0.00  0.00    +0.000 Cl
ATOM     18  C   UNL     1       1.692   5.042  20.893  0.00  0.00    +0.000 A 
ATOM     19  C   UNL     1       1.999   3.687  20.803  0.00  0.00    +0.000 A 
ATOM     20 CL   UNL     1       1.240   2.572  21.871  0.00  0.00    +0.000 Cl
ATOM     21  C   UNL     1       2.916   3.224  19.853  0.00  0.00    +0.000 A 
ENDBRANCH  13  14
ENDBRANCH  12  13
ENDBRANCH   1  12
TORSDOF 5
ENDMDL
MODEL 9
REMARK VINA RESULT:      -6.6      1.765      3.816
REMARK  Name = 
REMARK  5 active torsions:
REMARK  status: ('A' for Active; 'I' for Inactive)
REMARK    1  A    between atoms: C_2  and  C_4
REMARK    2  A    between atoms: C_4  and  S_5
REMARK    3  A    between atoms: C_4  and  C_15
REMARK    4  A    between atoms: S_5  and  C_6
REMARK    5  A    between atoms: C_6  and  C_7
REMARK                            x       y       z     vdW  Elec       q    Type
REMARK                         _______ _______ _______ _____ _____    ______ ____
ROOT
ATOM      1  C   UNL     1       6.164   4.342  15.805  0.00  0.00    +0.000 C 
ENDROOT
BRANCH   1   3
ATOM      2  N   UNL     1       7.965   4.260  17.491  0.00  0.00    +0.000 N 
ATOM      3  C   UNL     1       7.241   5.040  16.642  0.00  0.00    +0.000 C 
ATOM      4  O   UNL     1       7.498   6.243  16.569  0.00  0.00    +0.000 OA
ATOM      5  H   UNL     1       8.696   4.699  18.032  0.00  0.00    +0.000 HD
ATOM      6  H   UNL     1       7.848   3.258  17.544  0.00  0.00    +0.000 HD
ENDBRANCH   1   3
BRANCH   1   7
ATOM      7  C   UNL     1       6.253   4.657  14.293  0.00  0.00    +0.000 C 
ATOM      8  C   UNL     1       7.660   4.993  13.792  0.00  0.00    +0.000 C 
ATOM      9  C   UNL     1       7.573   4.804  12.282  0.00  0.00    +0.000 C 
ATOM     10  C   UNL     1       6.498   3.750  12.044  0.00  0.00    +0.000 C 
ATOM     11  C   UNL     1       5.851   3.481  13.395  0.00  0.00    +0.000 C 
ENDBRANCH   1   7
BRANCH   1  12
ATOM     12  S   UNL     1       4.490   4.758  16.496  0.00  0.00    +0.000 S 
BRANCH  12  13
ATOM     13  C   UNL     1       4.391   3.578  17.885  0.00  0.00    +0.000 C 
BRANCH  13  14
ATOM     14  C   UNL     1       3.460   4.086  18.959  0.00  0.00    +0.000 A 
ATOM     15  C   UNL     1       2.878   3.186  19.864  0.00  0.00    +0.000 A 
ATOM     16  C   UNL     1       2.015   3.643  20.858  0.00  0.00    +0.000 A 
ATOM     17 CL   UNL     1       1.321   2.522  21.963  0.00  0.00    +0.000 Cl
ATOM     18  C   UNL     1       1.709   5.000  20.966  0.00  0.00    +0.000 A 
ATOM     19  C   UNL     1       2.274   5.896  20.062  0.00  0.00    +0.000 A 
ATOM     20 CL   UNL     1       1.900   7.571  20.182  0.00  0.00    +0.000 Cl
ATOM     21  C   UNL     1       3.143   5.448  19.061  0.00  0.00    +0.000 A 
ENDBRANCH  13  14
ENDBRANCH  12  13
ENDBRANCH   1  12
TORSDOF 5
ENDMDL
