MODEL 1
REMARK VINA RESULT:      -7.5      0.000      0.000
REMARK  Name = 
REMARK  9 active torsions:
REMARK  status: ('A' for Active; 'I' for Inactive)
REMARK    1  A    between atoms: C_1  and  C_2
REMARK    2  A    between atoms: C_2  and  C_3
REMARK    3  A    between atoms: C_3  and  C_4
REMARK    4  A    between atoms: C_4  and  C_5
REMARK    5  A    between atoms: C_5  and  O_6
REMARK    6  A    between atoms: O_6  and  C_7
REMARK    7  A    between atoms: C_10  and  N_11
REMARK    8  A    between atoms: N_11  and  C_12
REMARK    9  A    between atoms: C_13  and  N_14
REMARK                            x       y       z     vdW  Elec       q    Type
REMARK                         _______ _______ _______ _____ _____    ______ ____
ROOT
ATOM      1  C   UNL     1       0.676  10.041  19.357  0.00  0.00    +0.000 C 
ATOM      2  C   UNL     1       1.181  10.890  20.280  0.00  0.00    +0.000 C 
ATOM      3  C   UNL     1       0.310  10.696  21.508  0.00  0.00    +0.000 C 
ATOM      4  O   UNL     1       0.635  10.093  22.517  0.00  0.00    +0.000 OA
ATOM      5  C   UNL     1      -0.998  11.340  21.330  0.00  0.00    +0.000 A 
ATOM      6  C   UNL     1      -1.586  12.054  22.371  0.00  0.00    +0.000 A 
ATOM      7  C   UNL     1      -2.459  13.086  22.041  0.00  0.00    +0.000 A 
ATOM      8  C   UNL     1      -2.734  13.363  20.696  0.00  0.00    +0.000 A 
ATOM      9  C   UNL     1      -2.246  12.531  19.672  0.00  0.00    +0.000 A 
ATOM     10  C   UNL     1      -1.402  11.476  19.996  0.00  0.00    +0.000 A 
ATOM     11  C   UNL     1      -0.713  10.604  18.970  0.00  0.00    +0.000 C 
ATOM     12  O   UNL     1      -1.196  10.439  17.856  0.00  0.00    +0.000 OA
ENDROOT
BRANCH   2  13
ATOM     13  N   UNL     1       1.493  12.240  19.901  0.00  0.00    +0.000 N 
ATOM     14  C   UNL     1       1.572  13.322  20.893  0.00  0.00    +0.000 C 
ATOM     15  C   UNL     1       1.071  14.640  20.291  0.00  0.00    +0.000 C 
ATOM     16  C   UNL     1       1.754  14.981  18.970  0.00  0.00    +0.000 C 
ATOM     17  C   UNL     1       1.614  13.827  17.999  0.00  0.00    +0.000 C 
ATOM     18  C   UNL     1       2.171  12.553  18.617  0.00  0.00    +0.000 C 
ENDBRANCH   2  13
BRANCH   1  19
ATOM     19  N   UNL     1       1.481   9.490  18.339  0.00  0.00    +0.000 N 
ATOM     20  H   UNL     1       1.919  10.194  17.754  0.00  0.00    +0.000 HD
BRANCH  19  24
ATOM     21  C   UNL     1       3.600   5.811  18.761  0.00  0.00    +0.000 A 
ATOM     22  C   UNL     1       3.732   6.610  17.618  0.00  0.00    +0.000 A 
ATOM     23  C   UNL     1       3.038   7.815  17.500  0.00  0.00    +0.000 A 
ATOM     24  C   UNL     1       2.207   8.288  18.525  0.00  0.00    +0.000 A 
ATOM     25  C   UNL     1       2.072   7.490  19.669  0.00  0.00    +0.000 A 
ATOM     26  C   UNL     1       2.773   6.263  19.780  0.00  0.00    +0.000 A 
BRANCH  21  27
ATOM     27  O   UNL     1       4.243   4.603  18.943  0.00  0.00    +0.000 OA
BRANCH  27  28
ATOM     28  C   UNL     1       5.602   4.573  18.482  0.00  0.00    +0.000 C 
BRANCH  28  29
ATOM     29  C   UNL     1       6.528   5.454  19.328  0.00  0.00    +0.000 C 
BRANCH  29  30
ATOM     30  C   UNL     1       7.720   5.913  18.467  0.00  0.00    +0.000 C 
BRANCH  30  32
ATOM     31  C   UNL     1       7.850   8.331  17.770  0.00  0.00    +0.000 C 
ATOM     32  C   UNL     1       7.339   6.942  17.405  0.00  0.00    +0.000 C 
ENDBRANCH  30  32
ENDBRANCH  29  30
ENDBRANCH  28  29
ENDBRANCH  27  28
ENDBRANCH  21  27
ENDBRANCH  19  24
ENDBRANCH   1  19
TORSDOF 8
ENDMDL
MODEL 2
REMARK VINA RESULT:      -7.5      1.417      2.772
REMARK  Name = 
REMARK  9 active torsions:
REMARK  status: ('A' for Active; 'I' for Inactive)
REMARK    1  A    between atoms: C_1  and  C_2
REMARK    2  A    between atoms: C_2  and  C_3
REMARK    3  A    between atoms: C_3  and  C_4
REMARK    4  A    between atoms: C_4  and  C_5
REMARK    5  A    between atoms: C_5  and  O_6
REMARK    6  A    between atoms: O_6  and  C_7
REMARK    7  A    between atoms: C_10  and  N_11
REMARK    8  A    between atoms: N_11  and  C_12
REMARK    9  A    between atoms: C_13  and  N_14
REMARK                            x       y       z     vdW  Elec       q    Type
REMARK                         _______ _______ _______ _____ _____    ______ ____
ROOT
ATOM      1  C   UNL     1       0.758  10.124  19.453  0.00  0.00    +0.000 C 
ATOM      2  C   UNL     1       1.217  10.966  20.406  0.00  0.00    +0.000 C 
ATOM      3  C   UNL     1       0.349  10.692  21.621  0.00  0.00    +0.000 C 
ATOM      4  O   UNL     1       0.697  10.072  22.613  0.00  0.00    +0.000 OA
ATOM      5  C   UNL     1      -0.987  11.277  21.454  0.00  0.00    +0.000 A 
ATOM      6  C   UNL     1      -1.614  11.929  22.514  0.00  0.00    +0.000 A 
ATOM      7  C   UNL     1      -2.534  12.928  22.210  0.00  0.00    +0.000 A 
ATOM      8  C   UNL     1      -2.814  13.235  20.873  0.00  0.00    +0.000 A 
ATOM      9  C   UNL     1      -2.281  12.461  19.826  0.00  0.00    +0.000 A 
ATOM     10  C   UNL     1      -1.390  11.437  20.123  0.00  0.00    +0.000 A 
ATOM     11  C   UNL     1      -0.654  10.633  19.074  0.00  0.00    +0.000 C 
ATOM     12  O   UNL     1      -1.122  10.481  17.952  0.00  0.00    +0.000 OA
ENDROOT
BRANCH   2  13
ATOM     13  N   UNL     1       1.467  12.340  20.072  0.00  0.00    +0.000 N 
ATOM     14  C   UNL     1       1.539  13.385  21.105  0.00  0.00    +0.000 C 
ATOM     15  C   UNL     1       0.970  14.705  20.574  0.00  0.00    +0.000 C 
ATOM     16  C   UNL     1       1.595  15.124  19.247  0.00  0.00    +0.000 C 
ATOM     17  C   UNL     1       1.464  14.005  18.234  0.00  0.00    +0.000 C 
ATOM     18  C   UNL     1       2.088  12.730  18.781  0.00  0.00    +0.000 C 
ENDBRANCH   2  13
BRANCH   1  19
ATOM     19  N   UNL     1       1.594   9.645  18.424  0.00  0.00    +0.000 N 
ATOM     20  H   UNL     1       2.120  10.381  17.963  0.00  0.00    +0.000 HD
BRANCH  19  24
ATOM     21  C   UNL     1       3.543   5.867  18.789  0.00  0.00    +0.000 A 
ATOM     22  C   UNL     1       2.620   6.315  19.743  0.00  0.00    +0.000 A 
ATOM     23  C   UNL     1       1.985   7.550  19.603  0.00  0.00    +0.000 A 
ATOM     24  C   UNL     1       2.222   8.377  18.497  0.00  0.00    +0.000 A 
ATOM     25  C   UNL     1       3.145   7.932  17.542  0.00  0.00    +0.000 A 
ATOM     26  C   UNL     1       3.794   6.680  17.692  0.00  0.00    +0.000 A 
BRANCH  21  27
ATOM     27  O   UNL     1       4.220   4.666  18.867  0.00  0.00    +0.000 OA
BRANCH  27  28
ATOM     28  C   UNL     1       4.096   3.834  17.704  0.00  0.00    +0.000 C 
BRANCH  28  29
ATOM     29  C   UNL     1       2.636   3.504  17.373  0.00  0.00    +0.000 C 
BRANCH  29  30
ATOM     30  C   UNL     1       2.216   2.233  18.138  0.00  0.00    +0.000 C 
BRANCH  30  32
ATOM     31  C   UNL     1       0.944   3.208  20.083  0.00  0.00    +0.000 C 
ATOM     32  C   UNL     1       0.856   2.359  18.820  0.00  0.00    +0.000 C 
ENDBRANCH  30  32
ENDBRANCH  29  30
ENDBRANCH  28  29
ENDBRANCH  27  28
ENDBRANCH  21  27
ENDBRANCH  19  24
ENDBRANCH   1  19
TORSDOF 8
ENDMDL
MODEL 3
REMARK VINA RESULT:      -7.4      1.370      2.564
REMARK  Name = 
REMARK  9 active torsions:
REMARK  status: ('A' for Active; 'I' for Inactive)
REMARK    1  A    between atoms: C_1  and  C_2
REMARK    2  A    between atoms: C_2  and  C_3
REMARK    3  A    between atoms: C_3  and  C_4
REMARK    4  A    between atoms: C_4  and  C_5
REMARK    5  A    between atoms: C_5  and  O_6
REMARK    6  A    between atoms: O_6  and  C_7
REMARK    7  A    between atoms: C_10  and  N_11
REMARK    8  A    between atoms: N_11  and  C_12
REMARK    9  A    between atoms: C_13  and  N_14
REMARK                            x       y       z     vdW  Elec       q    Type
REMARK                         _______ _______ _______ _____ _____    ______ ____
ROOT
ATOM      1  C   UNL     1       0.636   9.776  19.516  0.00  0.00    +0.000 C 
ATOM      2  C   UNL     1       1.254  10.600  20.391  0.00  0.00    +0.000 C 
ATOM      3  C   UNL     1       0.548  10.366  21.715  0.00  0.00    +0.000 C 
ATOM      4  O   UNL     1       1.001   9.734  22.656  0.00  0.00    +0.000 OA
ATOM      5  C   UNL     1      -0.772  11.007  21.725  0.00  0.00    +0.000 A 
ATOM      6  C   UNL     1      -1.222  11.688  22.854  0.00  0.00    +0.000 A 
ATOM      7  C   UNL     1      -2.132  12.724  22.670  0.00  0.00    +0.000 A 
ATOM      8  C   UNL     1      -2.577  13.040  21.380  0.00  0.00    +0.000 A 
ATOM      9  C   UNL     1      -2.224  12.241  20.278  0.00  0.00    +0.000 A 
ATOM     10  C   UNL     1      -1.345  11.181  20.459  0.00  0.00    +0.000 A 
ATOM     11  C   UNL     1      -0.792  10.343  19.327  0.00  0.00    +0.000 C 
ATOM     12  O   UNL     1      -1.414  10.209  18.280  0.00  0.00    +0.000 OA
ENDROOT
BRANCH   2  13
ATOM     13  N   UNL     1       1.514  11.962  20.016  0.00  0.00    +0.000 N 
ATOM     14  C   UNL     1       1.796  12.999  21.019  0.00  0.00    +0.000 C 
ATOM     15  C   UNL     1       1.215  14.346  20.576  0.00  0.00    +0.000 C 
ATOM     16  C   UNL     1       1.644  14.738  19.166  0.00  0.00    +0.000 C 
ATOM     17  C   UNL     1       1.304  13.629  18.192  0.00  0.00    +0.000 C 
ATOM     18  C   UNL     1       1.944  12.324  18.641  0.00  0.00    +0.000 C 
ENDBRANCH   2  13
BRANCH   1  19
ATOM     19  N   UNL     1       1.304   9.259  18.387  0.00  0.00    +0.000 N 
ATOM     20  H   UNL     1       1.522   9.968  17.694  0.00  0.00    +0.000 HD
BRANCH  19  24
ATOM     21  C   UNL     1       3.993   5.950  18.530  0.00  0.00    +0.000 A 
ATOM     22  C   UNL     1       4.052   6.902  17.504  0.00  0.00    +0.000 A 
ATOM     23  C   UNL     1       3.170   7.984  17.478  0.00  0.00    +0.000 A 
ATOM     24  C   UNL     1       2.213   8.177  18.484  0.00  0.00    +0.000 A 
ATOM     25  C   UNL     1       2.153   7.226  19.510  0.00  0.00    +0.000 A 
ATOM     26  C   UNL     1       3.045   6.124  19.528  0.00  0.00    +0.000 A 
BRANCH  21  27
ATOM     27  O   UNL     1       4.822   4.849  18.616  0.00  0.00    +0.000 OA
BRANCH  27  28
ATOM     28  C   UNL     1       4.210   3.683  19.189  0.00  0.00    +0.000 C 
BRANCH  28  29
ATOM     29  C   UNL     1       3.745   2.682  18.125  0.00  0.00    +0.000 C 
BRANCH  29  30
ATOM     30  C   UNL     1       2.416   2.046  18.574  0.00  0.00    +0.000 C 
BRANCH  30  32
ATOM     31  C   UNL     1       0.797   3.269  20.068  0.00  0.00    +0.000 C 
ATOM     32  C   UNL     1       1.258   3.039  18.634  0.00  0.00    +0.000 C 
ENDBRANCH  30  32
ENDBRANCH  29  30
ENDBRANCH  28  29
ENDBRANCH  27  28
ENDBRANCH  21  27
ENDBRANCH  19  24
ENDBRANCH   1  19
TORSDOF 8
ENDMDL
MODEL 4
REMARK VINA RESULT:      -7.3      2.673      8.917
REMARK  Name = 
REMARK  9 active torsions:
REMARK  status: ('A' for Active; 'I' for Inactive)
REMARK    1  A    between atoms: C_1  and  C_2
REMARK    2  A    between atoms: C_2  and  C_3
REMARK    3  A    between atoms: C_3  and  C_4
REMARK    4  A    between atoms: C_4  and  C_5
REMARK    5  A    between atoms: C_5  and  O_6
REMARK    6  A    between atoms: O_6  and  C_7
REMARK    7  A    between atoms: C_10  and  N_11
REMARK    8  A    between atoms: N_11  and  C_12
REMARK    9  A    between atoms: C_13  and  N_14
REMARK                            x       y       z     vdW  Elec       q    Type
REMARK                         _______ _______ _______ _____ _____    ______ ____
ROOT
ATOM      1  C   UNL     1       2.221   5.903  19.681  0.00  0.00    +0.000 C 
ATOM      2  C   UNL     1       2.689   5.709  18.428  0.00  0.00    +0.000 C 
ATOM      3  C   UNL     1       1.871   4.555  17.879  0.00  0.00    +0.000 C 
ATOM      4  O   UNL     1       0.970   4.653  17.061  0.00  0.00    +0.000 OA
ATOM      5  C   UNL     1       2.306   3.279  18.460  0.00  0.00    +0.000 A 
ATOM      6  C   UNL     1       2.425   2.141  17.667  0.00  0.00    +0.000 A 
ATOM      7  C   UNL     1       3.342   1.170  18.056  0.00  0.00    +0.000 A 
ATOM      8  C   UNL     1       4.096   1.350  19.224  0.00  0.00    +0.000 A 
ATOM      9  C   UNL     1       3.847   2.434  20.084  0.00  0.00    +0.000 A 
ATOM     10  C   UNL     1       2.906   3.390  19.721  0.00  0.00    +0.000 A 
ATOM     11  C   UNL     1       2.656   4.663  20.499  0.00  0.00    +0.000 C 
ATOM     12  O   UNL     1       2.884   4.722  21.702  0.00  0.00    +0.000 OA
ENDROOT
BRANCH   2  13
ATOM     13  N   UNL     1       4.107   5.677  18.202  0.00  0.00    +0.000 N 
ATOM     14  C   UNL     1       4.671   5.584  16.847  0.00  0.00    +0.000 C 
ATOM     15  C   UNL     1       5.958   4.752  16.856  0.00  0.00    +0.000 C 
ATOM     16  C   UNL     1       6.964   5.234  17.897  0.00  0.00    +0.000 C 
ATOM     17  C   UNL     1       6.314   5.284  19.264  0.00  0.00    +0.000 C 
ATOM     18  C   UNL     1       5.072   6.163  19.221  0.00  0.00    +0.000 C 
ENDBRANCH   2  13
BRANCH   1  19
ATOM     19  N   UNL     1       2.275   7.167  20.304  0.00  0.00    +0.000 N 
ATOM     20  H   UNL     1       3.180   7.369  20.716  0.00  0.00    +0.000 HD
BRANCH  19  24
ATOM     21  C   UNL     1      -0.056  10.435  18.859  0.00  0.00    +0.000 A 
ATOM     22  C   UNL     1      -0.163   9.982  20.180  0.00  0.00    +0.000 A 
ATOM     23  C   UNL     1       0.614   8.917  20.639  0.00  0.00    +0.000 A 
ATOM     24  C   UNL     1       1.547   8.277  19.811  0.00  0.00    +0.000 A 
ATOM     25  C   UNL     1       1.655   8.728  18.489  0.00  0.00    +0.000 A 
ATOM     26  C   UNL     1       0.858   9.805  18.025  0.00  0.00    +0.000 A 
BRANCH  21  27
ATOM     27  O   UNL     1      -0.800  11.472  18.331  0.00  0.00    +0.000 OA
BRANCH  27  28
ATOM     28  C   UNL     1      -2.093  11.646  18.929  0.00  0.00    +0.000 C 
BRANCH  28  29
ATOM     29  C   UNL     1      -3.235  11.422  17.931  0.00  0.00    +0.000 C 
BRANCH  29  30
ATOM     30  C   UNL     1      -3.303   9.927  17.564  0.00  0.00    +0.000 C 
BRANCH  30  32
ATOM     31  C   UNL     1      -3.062  10.807  15.214  0.00  0.00    +0.000 C 
ATOM     32  C   UNL     1      -2.814   9.628  16.148  0.00  0.00    +0.000 C 
ENDBRANCH  30  32
ENDBRANCH  29  30
ENDBRANCH  28  29
ENDBRANCH  27  28
ENDBRANCH  21  27
ENDBRANCH  19  24
ENDBRANCH   1  19
TORSDOF 8
ENDMDL
MODEL 5
REMARK VINA RESULT:      -7.2      2.135      3.036
REMARK  Name = 
REMARK  9 active torsions:
REMARK  status: ('A' for Active; 'I' for Inactive)
REMARK    1  A    between atoms: C_1  and  C_2
REMARK    2  A    between atoms: C_2  and  C_3
REMARK    3  A    between atoms: C_3  and  C_4
REMARK    4  A    between atoms: C_4  and  C_5
REMARK    5  A    between atoms: C_5  and  O_6
REMARK    6  A    between atoms: O_6  and  C_7
REMARK    7  A    between atoms: C_10  and  N_11
REMARK    8  A    between atoms: N_11  and  C_12
REMARK    9  A    between atoms: C_13  and  N_14
REMARK                            x       y       z     vdW  Elec       q    Type
REMARK                         _______ _______ _______ _____ _____    ______ ____
ROOT
ATOM      1  C   UNL     1       0.158  10.915  20.158  0.00  0.00    +0.000 C 
ATOM      2  C   UNL     1       0.457  11.759  21.171  0.00  0.00    +0.000 C 
ATOM      3  C   UNL     1      -0.478  11.364  22.299  0.00  0.00    +0.000 C 
ATOM      4  O   UNL     1      -0.157  10.741  23.299  0.00  0.00    +0.000 OA
ATOM      5  C   UNL     1      -1.844  11.834  22.037  0.00  0.00    +0.000 A 
ATOM      6  C   UNL     1      -2.613  12.387  23.058  0.00  0.00    +0.000 A 
ATOM      7  C   UNL     1      -3.592  13.311  22.708  0.00  0.00    +0.000 A 
ATOM      8  C   UNL     1      -3.789  13.641  21.361  0.00  0.00    +0.000 A 
ATOM      9  C   UNL     1      -3.104  12.957  20.341  0.00  0.00    +0.000 A 
ATOM     10  C   UNL     1      -2.149  12.006  20.682  0.00  0.00    +0.000 A 
ATOM     11  C   UNL     1      -1.260  11.310  19.676  0.00  0.00    +0.000 C 
ATOM     12  O   UNL     1      -1.618  11.159  18.514  0.00  0.00    +0.000 OA
ENDROOT
BRANCH   2  13
ATOM     13  N   UNL     1       0.607  13.161  20.901  0.00  0.00    +0.000 N 
ATOM     14  C   UNL     1       0.564  14.164  21.975  0.00  0.00    +0.000 C 
ATOM     15  C   UNL     1      -0.092  15.457  21.478  0.00  0.00    +0.000 C 
ATOM     16  C   UNL     1       0.537  15.979  20.191  0.00  0.00    +0.000 C 
ATOM     17  C   UNL     1       0.526  14.897  19.131  0.00  0.00    +0.000 C 
ATOM     18  C   UNL     1       1.234  13.653  19.647  0.00  0.00    +0.000 C 
ENDBRANCH   2  13
BRANCH   1  19
ATOM     19  N   UNL     1       1.116  10.551  19.190  0.00  0.00    +0.000 N 
ATOM     20  H   UNL     1       1.754  11.305  18.959  0.00  0.00    +0.000 HD
BRANCH  19  24
ATOM     21  C   UNL     1       2.600   6.568  18.825  0.00  0.00    +0.000 A 
ATOM     22  C   UNL     1       2.679   7.483  17.767  0.00  0.00    +0.000 A 
ATOM     23  C   UNL     1       2.196   8.785  17.907  0.00  0.00    +0.000 A 
ATOM     24  C   UNL     1       1.641   9.238  19.112  0.00  0.00    +0.000 A 
ATOM     25  C   UNL     1       1.561   8.325  20.170  0.00  0.00    +0.000 A 
ATOM     26  C   UNL     1       2.045   7.001  20.021  0.00  0.00    +0.000 A 
BRANCH  21  27
ATOM     27  O   UNL     1       3.043   5.262  18.757  0.00  0.00    +0.000 OA
BRANCH  27  28
ATOM     28  C   UNL     1       2.166   4.369  18.054  0.00  0.00    +0.000 C 
BRANCH  28  29
ATOM     29  C   UNL     1       1.915   3.068  18.824  0.00  0.00    +0.000 C 
BRANCH  29  30
ATOM     30  C   UNL     1       0.832   3.311  19.893  0.00  0.00    +0.000 C 
BRANCH  30  32
ATOM     31  C   UNL     1       2.777   2.684  21.368  0.00  0.00    +0.000 C 
ATOM     32  C   UNL     1       1.272   2.919  21.302  0.00  0.00    +0.000 C 
ENDBRANCH  30  32
ENDBRANCH  29  30
ENDBRANCH  28  29
ENDBRANCH  27  28
ENDBRANCH  21  27
ENDBRANCH  19  24
ENDBRANCH   1  19
TORSDOF 8
ENDMDL
MODEL 6
REMARK VINA RESULT:      -7.2      1.441      2.784
REMARK  Name = 
REMARK  9 active torsions:
REMARK  status: ('A' for Active; 'I' for Inactive)
REMARK    1  A    between atoms: C_1  and  C_2
REMARK    2  A    between atoms: C_2  and  C_3
REMARK    3  A    between atoms: C_3  and  C_4
REMARK    4  A    between atoms: C_4  and  C_5
REMARK    5  A    between atoms: C_5  and  O_6
REMARK    6  A    between atoms: O_6  and  C_7
REMARK    7  A    between atoms: C_10  and  N_11
REMARK    8  A    between atoms: N_11  and  C_12
REMARK    9  A    between atoms: C_13  and  N_14
REMARK                            x       y       z     vdW  Elec       q    Type
REMARK                         _______ _______ _______ _____ _____    ______ ____
ROOT
ATOM      1  C   UNL     1       1.013   9.876  19.289  0.00  0.00    +0.000 C 
ATOM      2  C   UNL     1       1.451  10.746  20.226  0.00  0.00    +0.000 C 
ATOM      3  C   UNL     1       0.627  10.438  21.463  0.00  0.00    +0.000 C 
ATOM      4  O   UNL     1       1.029   9.843  22.450  0.00  0.00    +0.000 OA
ATOM      5  C   UNL     1      -0.740  10.956  21.325  0.00  0.00    +0.000 A 
ATOM      6  C   UNL     1      -1.373  11.583  22.395  0.00  0.00    +0.000 A 
ATOM      7  C   UNL     1      -2.348  12.534  22.109  0.00  0.00    +0.000 A 
ATOM      8  C   UNL     1      -2.674  12.817  20.776  0.00  0.00    +0.000 A 
ATOM      9  C   UNL     1      -2.129  12.063  19.722  0.00  0.00    +0.000 A 
ATOM     10  C   UNL     1      -1.181  11.087  20.003  0.00  0.00    +0.000 A 
ATOM     11  C   UNL     1      -0.432  10.312  18.941  0.00  0.00    +0.000 C 
ATOM     12  O   UNL     1      -0.918  10.129  17.832  0.00  0.00    +0.000 OA
ENDROOT
BRANCH   2  13
ATOM     13  N   UNL     1       1.625  12.129  19.879  0.00  0.00    +0.000 N 
ATOM     14  C   UNL     1       1.636  13.187  20.900  0.00  0.00    +0.000 C 
ATOM     15  C   UNL     1       0.996  14.468  20.354  0.00  0.00    +0.000 C 
ATOM     16  C   UNL     1       1.600  14.907  19.024  0.00  0.00    +0.000 C 
ATOM     17  C   UNL     1       1.535  13.772  18.023  0.00  0.00    +0.000 C 
ATOM     18  C   UNL     1       2.228  12.539  18.585  0.00  0.00    +0.000 C 
ENDBRANCH   2  13
BRANCH   1  19
ATOM     19  N   UNL     1       1.847   9.432  18.243  0.00  0.00    +0.000 N 
ATOM     20  H   UNL     1       2.417  10.172  17.847  0.00  0.00    +0.000 HD
BRANCH  19  24
ATOM     21  C   UNL     1       3.581   5.536  18.373  0.00  0.00    +0.000 A 
ATOM     22  C   UNL     1       2.535   5.905  19.229  0.00  0.00    +0.000 A 
ATOM     23  C   UNL     1       1.973   7.182  19.166  0.00  0.00    +0.000 A 
ATOM     24  C   UNL     1       2.410   8.132  18.234  0.00  0.00    +0.000 A 
ATOM     25  C   UNL     1       3.457   7.766  17.378  0.00  0.00    +0.000 A 
ATOM     26  C   UNL     1       4.030   6.471  17.450  0.00  0.00    +0.000 A 
BRANCH  21  27
ATOM     27  O   UNL     1       4.195   4.299  18.385  0.00  0.00    +0.000 OA
BRANCH  27  28
ATOM     28  C   UNL     1       4.442   3.767  19.695  0.00  0.00    +0.000 C 
BRANCH  28  29
ATOM     29  C   UNL     1       3.554   2.559  20.015  0.00  0.00    +0.000 C 
BRANCH  29  30
ATOM     30  C   UNL     1       2.676   2.884  21.239  0.00  0.00    +0.000 C 
BRANCH  30  32
ATOM     31  C   UNL     1       0.910   2.716  19.449  0.00  0.00    +0.000 C 
ATOM     32  C   UNL     1       1.179   2.813  20.946  0.00  0.00    +0.000 C 
ENDBRANCH  30  32
ENDBRANCH  29  30
ENDBRANCH  28  29
ENDBRANCH  27  28
ENDBRANCH  21  27
ENDBRANCH  19  24
ENDBRANCH   1  19
TORSDOF 8
ENDMDL
MODEL 7
REMARK VINA RESULT:      -7.1      1.740      3.082
REMARK  Name = 
REMARK  9 active torsions:
REMARK  status: ('A' for Active; 'I' for Inactive)
REMARK    1  A    between atoms: C_1  and  C_2
REMARK    2  A    between atoms: C_2  and  C_3
REMARK    3  A    between atoms: C_3  and  C_4
REMARK    4  A    between atoms: C_4  and  C_5
REMARK    5  A    between atoms: C_5  and  O_6
REMARK    6  A    between atoms: O_6  and  C_7
REMARK    7  A    between atoms: C_10  and  N_11
REMARK    8  A    between atoms: N_11  and  C_12
REMARK    9  A    between atoms: C_13  and  N_14
REMARK                            x       y       z     vdW  Elec       q    Type
REMARK                         _______ _______ _______ _____ _____    ______ ____
ROOT
ATOM      1  C   UNL     1       1.184   9.704  19.187  0.00  0.00    +0.000 C 
ATOM      2  C   UNL     1       0.759  10.872  18.654  0.00  0.00    +0.000 C 
ATOM      3  C   UNL     1       1.452  11.949  19.468  0.00  0.00    +0.000 C 
ATOM      4  O   UNL     1       2.399  12.621  19.091  0.00  0.00    +0.000 OA
ATOM      5  C   UNL     1       0.830  12.089  20.790  0.00  0.00    +0.000 A 
ATOM      6  C   UNL     1       0.607  13.349  21.341  0.00  0.00    +0.000 A 
ATOM      7  C   UNL     1      -0.445  13.489  22.241  0.00  0.00    +0.000 A 
ATOM      8  C   UNL     1      -1.227  12.377  22.578  0.00  0.00    +0.000 A 
ATOM      9  C   UNL     1      -0.887  11.090  22.125  0.00  0.00    +0.000 A 
ATOM     10  C   UNL     1       0.184  10.936  21.254  0.00  0.00    +0.000 A 
ATOM     11  C   UNL     1       0.554   9.623  20.599  0.00  0.00    +0.000 C 
ATOM     12  O   UNL     1       0.275   8.554  21.128  0.00  0.00    +0.000 OA
ENDROOT
BRANCH   2  13
ATOM     13  N   UNL     1      -0.638  11.053  18.375  0.00  0.00    +0.000 N 
ATOM     14  C   UNL     1      -1.295  12.359  18.536  0.00  0.00    +0.000 C 
ATOM     15  C   UNL     1      -2.738  12.178  19.018  0.00  0.00    +0.000 C 
ATOM     16  C   UNL     1      -3.532  11.206  18.151  0.00  0.00    +0.000 C 
ATOM     17  C   UNL     1      -2.801   9.884  18.050  0.00  0.00    +0.000 C 
ATOM     18  C   UNL     1      -1.392  10.104  17.517  0.00  0.00    +0.000 C 
ENDBRANCH   2  13
BRANCH   1  19
ATOM     19  N   UNL     1       1.260   8.524  18.420  0.00  0.00    +0.000 N 
ATOM     20  H   UNL     1       0.874   8.630  17.488  0.00  0.00    +0.000 HD
BRANCH  19  24
ATOM     21  C   UNL     1       4.461   5.715  18.676  0.00  0.00    +0.000 A 
ATOM     22  C   UNL     1       4.405   6.677  17.659  0.00  0.00    +0.000 A 
ATOM     23  C   UNL     1       3.355   7.594  17.596  0.00  0.00    +0.000 A 
ATOM     24  C   UNL     1       2.333   7.609  18.555  0.00  0.00    +0.000 A 
ATOM     25  C   UNL     1       2.387   6.648  19.572  0.00  0.00    +0.000 A 
ATOM     26  C   UNL     1       3.451   5.713  19.628  0.00  0.00    +0.000 A 
BRANCH  21  27
ATOM     27  O   UNL     1       5.459   4.768  18.796  0.00  0.00    +0.000 OA
BRANCH  27  28
ATOM     28  C   UNL     1       6.784   5.262  18.550  0.00  0.00    +0.000 C 
BRANCH  28  29
ATOM     29  C   UNL     1       7.448   4.584  17.346  0.00  0.00    +0.000 C 
BRANCH  29  30
ATOM     30  C   UNL     1       7.347   5.513  16.121  0.00  0.00    +0.000 C 
BRANCH  30  32
ATOM     31  C   UNL     1       5.819   3.634  15.423  0.00  0.00    +0.000 C 
ATOM     32  C   UNL     1       6.427   4.974  15.027  0.00  0.00    +0.000 C 
ENDBRANCH  30  32
ENDBRANCH  29  30
ENDBRANCH  28  29
ENDBRANCH  27  28
ENDBRANCH  21  27
ENDBRANCH  19  24
ENDBRANCH   1  19
TORSDOF 8
ENDMDL
MODEL 8
REMARK VINA RESULT:      -7.1      2.214      3.086
REMARK  Name = 
REMARK  9 active torsions:
REMARK  status: ('A' for Active; 'I' for Inactive)
REMARK    1  A    between atoms: C_1  and  C_2
REMARK    2  A    between atoms: C_2  and  C_3
REMARK    3  A    between atoms: C_3  and  C_4
REMARK    4  A    between atoms: C_4  and  C_5
REMARK    5  A    between atoms: C_5  and  O_6
REMARK    6  A    between atoms: O_6  and  C_7
REMARK    7  A    between atoms: C_10  and  N_11
REMARK    8  A    between atoms: N_11  and  C_12
REMARK    9  A    between atoms: C_13  and  N_14
REMARK                            x       y       z     vdW  Elec       q    Type
REMARK                         _______ _______ _______ _____ _____    ______ ____
ROOT
ATOM      1  C   UNL     1      -0.271  11.169  20.177  0.00  0.00    +0.000 C 
ATOM      2  C   UNL     1       0.142  11.963  21.190  0.00  0.00    +0.000 C 
ATOM      3  C   UNL     1      -0.751  11.598  22.362  0.00  0.00    +0.000 C 
ATOM      4  O   UNL     1      -0.415  10.928  23.325  0.00  0.00    +0.000 OA
ATOM      5  C   UNL     1      -2.095  12.164  22.193  0.00  0.00    +0.000 A 
ATOM      6  C   UNL     1      -2.765  12.738  23.271  0.00  0.00    +0.000 A 
ATOM      7  C   UNL     1      -3.699  13.733  23.002  0.00  0.00    +0.000 A 
ATOM      8  C   UNL     1      -3.950  14.113  21.677  0.00  0.00    +0.000 A 
ATOM      9  C   UNL     1      -3.373  13.414  20.602  0.00  0.00    +0.000 A 
ATOM     10  C   UNL     1      -2.466  12.394  20.863  0.00  0.00    +0.000 A 
ATOM     11  C   UNL     1      -1.684  11.669  19.789  0.00  0.00    +0.000 C 
ATOM     12  O   UNL     1      -2.119  11.574  18.648  0.00  0.00    +0.000 OA
ENDROOT
BRANCH   2  13
ATOM     13  N   UNL     1       0.369  13.359  20.945  0.00  0.00    +0.000 N 
ATOM     14  C   UNL     1       0.448  14.334  22.043  0.00  0.00    +0.000 C 
ATOM     15  C   UNL     1      -0.147  15.679  21.612  0.00  0.00    +0.000 C 
ATOM     16  C   UNL     1       0.449  16.193  20.305  0.00  0.00    +0.000 C 
ATOM     17  C   UNL     1       0.313  15.143  19.223  0.00  0.00    +0.000 C 
ATOM     18  C   UNL     1       0.963  13.842  19.672  0.00  0.00    +0.000 C 
ENDBRANCH   2  13
BRANCH   1  19
ATOM     19  N   UNL     1       0.603  10.770  19.145  0.00  0.00    +0.000 N 
ATOM     20  H   UNL     1       1.139  11.539  18.758  0.00  0.00    +0.000 HD
BRANCH  19  24
ATOM     21  C   UNL     1       2.409   6.907  19.026  0.00  0.00    +0.000 A 
ATOM     22  C   UNL     1       2.372   7.737  17.898  0.00  0.00    +0.000 A 
ATOM     23  C   UNL     1       1.785   9.002  17.958  0.00  0.00    +0.000 A 
ATOM     24  C   UNL     1       1.235   9.502  19.146  0.00  0.00    +0.000 A 
ATOM     25  C   UNL     1       1.270   8.674  20.274  0.00  0.00    +0.000 A 
ATOM     26  C   UNL     1       1.861   7.386  20.208  0.00  0.00    +0.000 A 
BRANCH  21  27
ATOM     27  O   UNL     1       2.959   5.640  19.041  0.00  0.00    +0.000 OA
BRANCH  27  28
ATOM     28  C   UNL     1       3.060   5.047  20.344  0.00  0.00    +0.000 C 
BRANCH  28  29
ATOM     29  C   UNL     1       2.567   3.596  20.367  0.00  0.00    +0.000 C 
BRANCH  29  30
ATOM     30  C   UNL     1       1.102   3.550  19.894  0.00  0.00    +0.000 C 
BRANCH  30  32
ATOM     31  C   UNL     1       2.156   2.273  17.994  0.00  0.00    +0.000 C 
ATOM     32  C   UNL     1       0.866   2.566  18.750  0.00  0.00    +0.000 C 
ENDBRANCH  30  32
ENDBRANCH  29  30
ENDBRANCH  28  29
ENDBRANCH  27  28
ENDBRANCH  21  27
ENDBRANCH  19  24
ENDBRANCH   1  19
TORSDOF 8
ENDMDL
MODEL 9
REMARK VINA RESULT:      -7.0      2.706      8.948
REMARK  Name = 
REMARK  9 active torsions:
REMARK  status: ('A' for Active; 'I' for Inactive)
REMARK    1  A    between atoms: C_1  and  C_2
REMARK    2  A    between atoms: C_2  and  C_3
REMARK    3  A    between atoms: C_3  and  C_4
REMARK    4  A    between atoms: C_4  and  C_5
REMARK    5  A    between atoms: C_5  and  O_6
REMARK    6  A    between atoms: O_6  and  C_7
REMARK    7  A    between atoms: C_10  and  N_11
REMARK    8  A    between atoms: N_11  and  C_12
REMARK    9  A    between atoms: C_13  and  N_14
REMARK                            x       y       z     vdW  Elec       q    Type
REMARK                         _______ _______ _______ _____ _____    ______ ____
ROOT
ATOM      1  C   UNL     1       2.395   5.994  19.529  0.00  0.00    +0.000 C 
ATOM      2  C   UNL     1       2.824   5.724  18.275  0.00  0.00    +0.000 C 
ATOM      3  C   UNL     1       1.940   4.587  17.796  0.00  0.00    +0.000 C 
ATOM      4  O   UNL     1       1.025   4.692  16.995  0.00  0.00    +0.000 OA
ATOM      5  C   UNL     1       2.329   3.319  18.425  0.00  0.00    +0.000 A 
ATOM      6  C   UNL     1       2.376   2.142  17.681  0.00  0.00    +0.000 A 
ATOM      7  C   UNL     1       3.257   1.147  18.092  0.00  0.00    +0.000 A 
ATOM      8  C   UNL     1       4.046   1.342  19.233  0.00  0.00    +0.000 A 
ATOM      9  C   UNL     1       3.869   2.474  20.050  0.00  0.00    +0.000 A 
ATOM     10  C   UNL     1       2.964   3.456  19.665  0.00  0.00    +0.000 A 
ATOM     11  C   UNL     1       2.792   4.772  20.391  0.00  0.00    +0.000 C 
ATOM     12  O   UNL     1       3.051   4.872  21.584  0.00  0.00    +0.000 OA
ENDROOT
BRANCH   2  13
ATOM     13  N   UNL     1       4.233   5.615  18.019  0.00  0.00    +0.000 N 
ATOM     14  C   UNL     1       4.753   5.296  16.681  0.00  0.00    +0.000 C 
ATOM     15  C   UNL     1       6.018   4.438  16.787  0.00  0.00    +0.000 C 
ATOM     16  C   UNL     1       7.067   5.046  17.712  0.00  0.00    +0.000 C 
ATOM     17  C   UNL     1       6.460   5.327  19.071  0.00  0.00    +0.000 C 
ATOM     18  C   UNL     1       5.240   6.225  18.924  0.00  0.00    +0.000 C 
ENDBRANCH   2  13
BRANCH   1  19
ATOM     19  N   UNL     1       2.523   7.280  20.093  0.00  0.00    +0.000 N 
ATOM     20  H   UNL     1       3.472   7.636  20.063  0.00  0.00    +0.000 HD
BRANCH  19  24
ATOM     21  C   UNL     1      -0.481  10.294  19.786  0.00  0.00    +0.000 A 
ATOM     22  C   UNL     1       0.365   9.987  18.713  0.00  0.00    +0.000 A 
ATOM     23  C   UNL     1       1.337   8.991  18.828  0.00  0.00    +0.000 A 
ATOM     24  C   UNL     1       1.488   8.244  20.004  0.00  0.00    +0.000 A 
ATOM     25  C   UNL     1       0.643   8.550  21.078  0.00  0.00    +0.000 A 
ATOM     26  C   UNL     1      -0.337   9.568  20.959  0.00  0.00    +0.000 A 
BRANCH  21  27
ATOM     27  O   UNL     1      -1.455  11.273  19.751  0.00  0.00    +0.000 OA
BRANCH  27  28
ATOM     28  C   UNL     1      -1.616  11.911  18.475  0.00  0.00    +0.000 C 
BRANCH  28  29
ATOM     29  C   UNL     1      -2.856  11.414  17.724  0.00  0.00    +0.000 C 
BRANCH  29  30
ATOM     30  C   UNL     1      -2.474  11.102  16.264  0.00  0.00    +0.000 C 
BRANCH  30  32
ATOM     31  C   UNL     1      -3.272   9.993  14.146  0.00  0.00    +0.000 C 
ATOM     32  C   UNL     1      -3.260   9.935  15.669  0.00  0.00    +0.000 C 
ENDBRANCH  30  32
ENDBRANCH  29  30
ENDBRANCH  28  29
ENDBRANCH  27  28
ENDBRANCH  21  27
ENDBRANCH  19  24
ENDBRANCH   1  19
TORSDOF 8
ENDMDL
