MODEL 1
REMARK VINA RESULT:      -7.2      0.000      0.000
REMARK  Name = 
REMARK  8 active torsions:
REMARK  status: ('A' for Active; 'I' for Inactive)
REMARK    1  A    between atoms: C_1  and  C_2
REMARK    2  A    between atoms: C_6  and  S_7
REMARK    3  A    between atoms: S_7  and  C_8
REMARK    4  A    between atoms: C_12  and  C_14
REMARK    5  A    between atoms: C_14  and  C_15
REMARK    6  A    between atoms: C_15  and  C_16
REMARK    7  A    between atoms: C_16  and  S_17
REMARK    8  A    between atoms: S_17  and  N_18
REMARK                            x       y       z     vdW  Elec       q    Type
REMARK                         _______ _______ _______ _____ _____    ______ ____
ROOT
ATOM      1  C   UNL     1       4.978   4.915  16.550  0.00  0.00    +0.000 C 
ATOM      2  C   UNL     1       4.259   6.273  16.577  0.00  0.00    +0.000 C 
ATOM      3  C   UNL     1       4.179   6.943  17.949  0.00  0.00    +0.000 C 
ATOM      4  N   UNL     1       3.811   5.993  18.993  0.00  0.00    +0.000 N 
ATOM      5  C   UNL     1       2.778   6.310  19.864  0.00  0.00    +0.000 C 
ATOM      6  O   UNL     1       2.170   7.381  19.808  0.00  0.00    +0.000 OA
ATOM      7  C   UNL     1       4.718   4.855  19.106  0.00  0.00    +0.000 C 
ATOM      8  C   UNL     1       4.728   4.064  17.806  0.00  0.00    +0.000 C 
ENDROOT
BRANCH   1   9
ATOM      9  S   UNL     1       6.782   5.101  16.210  0.00  0.00    +0.000 S 
BRANCH   9  15
ATOM     10  C   UNL     1       5.474   2.528  11.706  0.00  0.00    +0.000 C 
ATOM     11  C   UNL     1       6.330   3.555  12.390  0.00  0.00    +0.000 A 
ATOM     12  C   UNL     1       7.219   4.351  11.669  0.00  0.00    +0.000 A 
ATOM     13  C   UNL     1       7.979   5.316  12.327  0.00  0.00    +0.000 A 
ATOM     14  C   UNL     1       7.834   5.510  13.706  0.00  0.00    +0.000 A 
ATOM     15  C   UNL     1       6.925   4.744  14.449  0.00  0.00    +0.000 A 
ATOM     16  C   UNL     1       6.204   3.750  13.776  0.00  0.00    +0.000 A 
ENDBRANCH   9  15
ENDBRANCH   1   9
BRANCH   5  17
ATOM     17  C   UNL     1       2.378   5.261  20.900  0.00  0.00    +0.000 C 
BRANCH  17  18
ATOM     18  C   UNL     1       1.139   4.462  20.471  0.00  0.00    +0.000 C 
BRANCH  18  19
ATOM     19  C   UNL     1       1.474   2.980  20.294  0.00  0.00    +0.000 C 
BRANCH  19  20
ATOM     20  S   UNL     1       1.335   2.414  18.607  0.00  0.00    +0.000 S 
ATOM     21  O   UNL     1       2.569   1.749  18.255  0.00  0.00    +0.000 OA
ATOM     22  O   UNL     1       0.044   1.792  18.425  0.00  0.00    +0.000 OA
BRANCH  20  23
ATOM     23  N   UNL     1       1.310   3.840  17.743  0.00  0.00    +0.000 NA
ATOM     24  H   UNL     1       2.145   4.045  17.197  0.00  0.00    +0.000 HD
ATOM     25  H   UNL     1       0.807   4.615  18.169  0.00  0.00    +0.000 HD
ENDBRANCH  20  23
ENDBRANCH  19  20
ENDBRANCH  18  19
ENDBRANCH  17  18
ENDBRANCH   5  17
TORSDOF 7
ENDMDL
MODEL 2
REMARK VINA RESULT:      -6.9      3.981      5.805
REMARK  Name = 
REMARK  8 active torsions:
REMARK  status: ('A' for Active; 'I' for Inactive)
REMARK    1  A    between atoms: C_1  and  C_2
REMARK    2  A    between atoms: C_6  and  S_7
REMARK    3  A    between atoms: S_7  and  C_8
REMARK    4  A    between atoms: C_12  and  C_14
REMARK    5  A    between atoms: C_14  and  C_15
REMARK    6  A    between atoms: C_15  and  C_16
REMARK    7  A    between atoms: C_16  and  S_17
REMARK    8  A    between atoms: S_17  and  N_18
REMARK                            x       y       z     vdW  Elec       q    Type
REMARK                         _______ _______ _______ _____ _____    ______ ____
ROOT
ATOM      1  C   UNL     1       2.325   4.604  18.867  0.00  0.00    +0.000 C 
ATOM      2  C   UNL     1       2.605   5.924  18.133  0.00  0.00    +0.000 C 
ATOM      3  C   UNL     1       2.837   7.136  19.034  0.00  0.00    +0.000 C 
ATOM      4  N   UNL     1       1.868   7.193  20.123  0.00  0.00    +0.000 N 
ATOM      5  C   UNL     1       1.183   8.376  20.360  0.00  0.00    +0.000 C 
ATOM      6  O   UNL     1       1.378   9.398  19.700  0.00  0.00    +0.000 OA
ATOM      7  C   UNL     1       1.859   6.004  20.970  0.00  0.00    +0.000 C 
ATOM      8  C   UNL     1       1.491   4.779  20.147  0.00  0.00    +0.000 C 
ENDROOT
BRANCH   1   9
ATOM      9  S   UNL     1       3.877   3.661  19.197  0.00  0.00    +0.000 S 
BRANCH   9  15
ATOM     10  C   UNL     1       5.749   4.165  14.211  0.00  0.00    +0.000 C 
ATOM     11  C   UNL     1       5.887   4.498  15.669  0.00  0.00    +0.000 A 
ATOM     12  C   UNL     1       6.866   5.383  16.119  0.00  0.00    +0.000 A 
ATOM     13  C   UNL     1       6.951   5.695  17.474  0.00  0.00    +0.000 A 
ATOM     14  C   UNL     1       6.040   5.146  18.384  0.00  0.00    +0.000 A 
ATOM     15  C   UNL     1       5.027   4.278  17.954  0.00  0.00    +0.000 A 
ATOM     16  C   UNL     1       4.986   3.943  16.594  0.00  0.00    +0.000 A 
ENDBRANCH   9  15
ENDBRANCH   1   9
BRANCH   5  17
ATOM     17  C   UNL     1       0.129   8.375  21.466  0.00  0.00    +0.000 C 
BRANCH  17  18
ATOM     18  C   UNL     1       0.487   9.331  22.613  0.00  0.00    +0.000 C 
BRANCH  18  19
ATOM     19  C   UNL     1      -0.700  10.220  22.982  0.00  0.00    +0.000 C 
BRANCH  19  20
ATOM     20  S   UNL     1      -0.642  11.838  22.233  0.00  0.00    +0.000 S 
ATOM     21  O   UNL     1      -1.645  11.887  21.194  0.00  0.00    +0.000 OA
ATOM     22  O   UNL     1      -0.559  12.835  23.275  0.00  0.00    +0.000 OA
BRANCH  20  23
ATOM     23  N   UNL     1       0.834  11.829  21.456  0.00  0.00    +0.000 NA
ATOM     24  H   UNL     1       1.585  11.329  21.930  0.00  0.00    +0.000 HD
ATOM     25  H   UNL     1       1.068  12.666  20.927  0.00  0.00    +0.000 HD
ENDBRANCH  20  23
ENDBRANCH  19  20
ENDBRANCH  18  19
ENDBRANCH  17  18
ENDBRANCH   5  17
TORSDOF 7
ENDMDL
MODEL 3
REMARK VINA RESULT:      -6.8      3.380      5.531
REMARK  Name = 
REMARK  8 active torsions:
REMARK  status: ('A' for Active; 'I' for Inactive)
REMARK    1  A    between atoms: C_1  and  C_2
REMARK    2  A    between atoms: C_6  and  S_7
REMARK    3  A    between atoms: S_7  and  C_8
REMARK    4  A    between atoms: C_12  and  C_14
REMARK    5  A    between atoms: C_14  and  C_15
REMARK    6  A    between atoms: C_15  and  C_16
REMARK    7  A    between atoms: C_16  and  S_17
REMARK    8  A    between atoms: S_17  and  N_18
REMARK                            x       y       z     vdW  Elec       q    Type
REMARK                         _______ _______ _______ _____ _____    ______ ____
ROOT
ATOM      1  C   UNL     1       1.496   3.744  18.933  0.00  0.00    +0.000 C 
ATOM      2  C   UNL     1       1.700   4.874  17.912  0.00  0.00    +0.000 C 
ATOM      3  C   UNL     1       2.501   6.074  18.417  0.00  0.00    +0.000 C 
ATOM      4  N   UNL     1       2.084   6.477  19.756  0.00  0.00    +0.000 N 
ATOM      5  C   UNL     1       1.790   7.811  20.002  0.00  0.00    +0.000 C 
ATOM      6  O   UNL     1       1.892   8.681  19.136  0.00  0.00    +0.000 OA
ATOM      7  C   UNL     1       2.193   5.417  20.754  0.00  0.00    +0.000 C 
ATOM      8  C   UNL     1       1.299   4.246  20.372  0.00  0.00    +0.000 C 
ENDROOT
BRANCH   1   9
ATOM      9  S   UNL     1       2.840   2.482  18.837  0.00  0.00    +0.000 S 
BRANCH   9  15
ATOM     10  C   UNL     1       5.692   4.394  14.734  0.00  0.00    +0.000 C 
ATOM     11  C   UNL     1       5.529   4.246  16.220  0.00  0.00    +0.000 A 
ATOM     12  C   UNL     1       6.395   4.881  17.109  0.00  0.00    +0.000 A 
ATOM     13  C   UNL     1       6.200   4.749  18.483  0.00  0.00    +0.000 A 
ATOM     14  C   UNL     1       5.122   4.004  18.975  0.00  0.00    +0.000 A 
ATOM     15  C   UNL     1       4.219   3.381  18.103  0.00  0.00    +0.000 A 
ATOM     16  C   UNL     1       4.458   3.489  16.727  0.00  0.00    +0.000 A 
ENDBRANCH   9  15
ENDBRANCH   1   9
BRANCH   5  17
ATOM     17  C   UNL     1       1.293   8.181  21.398  0.00  0.00    +0.000 C 
BRANCH  17  18
ATOM     18  C   UNL     1      -0.172   8.641  21.391  0.00  0.00    +0.000 C 
BRANCH  18  19
ATOM     19  C   UNL     1      -0.279  10.148  21.620  0.00  0.00    +0.000 C 
BRANCH  19  20
ATOM     20  S   UNL     1      -0.643  11.073  20.138  0.00  0.00    +0.000 S 
ATOM     21  O   UNL     1      -1.142  10.149  19.145  0.00  0.00    +0.000 OA
ATOM     22  O   UNL     1      -1.353  12.277  20.499  0.00  0.00    +0.000 OA
BRANCH  20  23
ATOM     23  N   UNL     1       0.870  11.543  19.619  0.00  0.00    +0.000 NA
ATOM     24  H   UNL     1       1.238  12.399  20.030  0.00  0.00    +0.000 HD
ATOM     25  H   UNL     1       1.096  11.335  18.648  0.00  0.00    +0.000 HD
ENDBRANCH  20  23
ENDBRANCH  19  20
ENDBRANCH  18  19
ENDBRANCH  17  18
ENDBRANCH   5  17
TORSDOF 7
ENDMDL
MODEL 4
REMARK VINA RESULT:      -6.7      3.549      5.676
REMARK  Name = 
REMARK  8 active torsions:
REMARK  status: ('A' for Active; 'I' for Inactive)
REMARK    1  A    between atoms: C_1  and  C_2
REMARK    2  A    between atoms: C_6  and  S_7
REMARK    3  A    between atoms: S_7  and  C_8
REMARK    4  A    between atoms: C_12  and  C_14
REMARK    5  A    between atoms: C_14  and  C_15
REMARK    6  A    between atoms: C_15  and  C_16
REMARK    7  A    between atoms: C_16  and  S_17
REMARK    8  A    between atoms: S_17  and  N_18
REMARK                            x       y       z     vdW  Elec       q    Type
REMARK                         _______ _______ _______ _____ _____    ______ ____
ROOT
ATOM      1  C   UNL     1       1.562   3.711  18.923  0.00  0.00    +0.000 C 
ATOM      2  C   UNL     1       1.691   4.807  17.854  0.00  0.00    +0.000 C 
ATOM      3  C   UNL     1       2.502   6.033  18.271  0.00  0.00    +0.000 C 
ATOM      4  N   UNL     1       2.157   6.477  19.617  0.00  0.00    +0.000 N 
ATOM      5  C   UNL     1       1.859   7.815  19.835  0.00  0.00    +0.000 C 
ATOM      6  O   UNL     1       1.899   8.657  18.935  0.00  0.00    +0.000 OA
ATOM      7  C   UNL     1       2.338   5.455  20.643  0.00  0.00    +0.000 C 
ATOM      8  C   UNL     1       1.441   4.260  20.354  0.00  0.00    +0.000 C 
ENDROOT
BRANCH   1   9
ATOM      9  S   UNL     1       2.916   2.463  18.792  0.00  0.00    +0.000 S 
BRANCH   9  15
ATOM     10  C   UNL     1       5.707   4.405  14.662  0.00  0.00    +0.000 C 
ATOM     11  C   UNL     1       5.556   4.261  16.149  0.00  0.00    +0.000 A 
ATOM     12  C   UNL     1       6.417   4.916  17.029  0.00  0.00    +0.000 A 
ATOM     13  C   UNL     1       6.234   4.787  18.405  0.00  0.00    +0.000 A 
ATOM     14  C   UNL     1       5.172   4.026  18.908  0.00  0.00    +0.000 A 
ATOM     15  C   UNL     1       4.274   3.382  18.044  0.00  0.00    +0.000 A 
ATOM     16  C   UNL     1       4.502   3.489  16.667  0.00  0.00    +0.000 A 
ENDBRANCH   9  15
ENDBRANCH   1   9
BRANCH   5  17
ATOM     17  C   UNL     1       1.437   8.228  21.244  0.00  0.00    +0.000 C 
BRANCH  17  18
ATOM     18  C   UNL     1      -0.075   8.469  21.352  0.00  0.00    +0.000 C 
BRANCH  18  19
ATOM     19  C   UNL     1      -0.471   9.791  20.695  0.00  0.00    +0.000 C 
BRANCH  19  20
ATOM     20  S   UNL     1      -0.356  11.196  21.789  0.00  0.00    +0.000 S 
ATOM     21  O   UNL     1       0.954  11.784  21.626  0.00  0.00    +0.000 OA
ATOM     22  O   UNL     1      -1.569  11.972  21.686  0.00  0.00    +0.000 OA
BRANCH  20  23
ATOM     23  N   UNL     1      -0.364  10.486  23.298  0.00  0.00    +0.000 NA
ATOM     24  H   UNL     1      -1.268  10.156  23.631  0.00  0.00    +0.000 HD
ATOM     25  H   UNL     1       0.293  10.866  23.976  0.00  0.00    +0.000 HD
ENDBRANCH  20  23
ENDBRANCH  19  20
ENDBRANCH  18  19
ENDBRANCH  17  18
ENDBRANCH   5  17
TORSDOF 7
ENDMDL
MODEL 5
REMARK VINA RESULT:      -6.7      4.157      5.900
REMARK  Name = 
REMARK  8 active torsions:
REMARK  status: ('A' for Active; 'I' for Inactive)
REMARK    1  A    between atoms: C_1  and  C_2
REMARK    2  A    between atoms: C_6  and  S_7
REMARK    3  A    between atoms: S_7  and  C_8
REMARK    4  A    between atoms: C_12  and  C_14
REMARK    5  A    between atoms: C_14  and  C_15
REMARK    6  A    between atoms: C_15  and  C_16
REMARK    7  A    between atoms: C_16  and  S_17
REMARK    8  A    between atoms: S_17  and  N_18
REMARK                            x       y       z     vdW  Elec       q    Type
REMARK                         _______ _______ _______ _____ _____    ______ ____
ROOT
ATOM      1  C   UNL     1       2.103   4.698  19.188  0.00  0.00    +0.000 C 
ATOM      2  C   UNL     1       2.361   5.370  17.831  0.00  0.00    +0.000 C 
ATOM      3  C   UNL     1       2.919   6.791  17.901  0.00  0.00    +0.000 C 
ATOM      4  N   UNL     1       2.225   7.595  18.902  0.00  0.00    +0.000 N 
ATOM      5  C   UNL     1       1.745   8.849  18.551  0.00  0.00    +0.000 C 
ATOM      6  O   UNL     1       1.904   9.327  17.427  0.00  0.00    +0.000 OA
ATOM      7  C   UNL     1       2.270   7.033  20.248  0.00  0.00    +0.000 C 
ATOM      8  C   UNL     1       1.596   5.668  20.267  0.00  0.00    +0.000 C 
ENDROOT
BRANCH   1   9
ATOM      9  S   UNL     1       3.575   3.749  19.774  0.00  0.00    +0.000 S 
BRANCH   9  15
ATOM     10  C   UNL     1       6.111   3.922  15.066  0.00  0.00    +0.000 C 
ATOM     11  C   UNL     1       6.058   4.343  16.507  0.00  0.00    +0.000 A 
ATOM     12  C   UNL     1       6.984   5.244  17.031  0.00  0.00    +0.000 A 
ATOM     13  C   UNL     1       6.892   5.639  18.365  0.00  0.00    +0.000 A 
ATOM     14  C   UNL     1       5.855   5.158  19.173  0.00  0.00    +0.000 A 
ATOM     15  C   UNL     1       4.893   4.275  18.663  0.00  0.00    +0.000 A 
ATOM     16  C   UNL     1       5.030   3.857  17.333  0.00  0.00    +0.000 A 
ENDBRANCH   9  15
ENDBRANCH   1   9
BRANCH   5  17
ATOM     17  C   UNL     1       0.966   9.631  19.608  0.00  0.00    +0.000 C 
BRANCH  17  18
ATOM     18  C   UNL     1       0.110  10.747  18.992  0.00  0.00    +0.000 C 
BRANCH  18  19
ATOM     19  C   UNL     1      -1.274  10.229  18.601  0.00  0.00    +0.000 C 
BRANCH  19  20
ATOM     20  S   UNL     1      -2.216  11.381  17.617  0.00  0.00    +0.000 S 
ATOM     21  O   UNL     1      -2.372  10.818  16.295  0.00  0.00    +0.000 OA
ATOM     22  O   UNL     1      -3.339  11.853  18.392  0.00  0.00    +0.000 OA
BRANCH  20  23
ATOM     23  N   UNL     1      -1.168  12.668  17.455  0.00  0.00    +0.000 NA
ATOM     24  H   UNL     1      -1.594  13.593  17.446  0.00  0.00    +0.000 HD
ATOM     25  H   UNL     1      -0.346  12.507  16.876  0.00  0.00    +0.000 HD
ENDBRANCH  20  23
ENDBRANCH  19  20
ENDBRANCH  18  19
ENDBRANCH  17  18
ENDBRANCH   5  17
TORSDOF 7
ENDMDL
MODEL 6
REMARK VINA RESULT:      -6.6      3.659      5.908
REMARK  Name = 
REMARK  8 active torsions:
REMARK  status: ('A' for Active; 'I' for Inactive)
REMARK    1  A    between atoms: C_1  and  C_2
REMARK    2  A    between atoms: C_6  and  S_7
REMARK    3  A    between atoms: S_7  and  C_8
REMARK    4  A    between atoms: C_12  and  C_14
REMARK    5  A    between atoms: C_14  and  C_15
REMARK    6  A    between atoms: C_15  and  C_16
REMARK    7  A    between atoms: C_16  and  S_17
REMARK    8  A    between atoms: S_17  and  N_18
REMARK                            x       y       z     vdW  Elec       q    Type
REMARK                         _______ _______ _______ _____ _____    ______ ____
ROOT
ATOM      1  C   UNL     1       1.664   3.727  18.971  0.00  0.00    +0.000 C 
ATOM      2  C   UNL     1       1.772   4.869  17.949  0.00  0.00    +0.000 C 
ATOM      3  C   UNL     1       2.524   6.109  18.433  0.00  0.00    +0.000 C 
ATOM      4  N   UNL     1       2.131   6.485  19.787  0.00  0.00    +0.000 N 
ATOM      5  C   UNL     1       1.775   7.800  20.049  0.00  0.00    +0.000 C 
ATOM      6  O   UNL     1       1.801   8.678  19.184  0.00  0.00    +0.000 OA
ATOM      7  C   UNL     1       2.330   5.430  20.776  0.00  0.00    +0.000 C 
ATOM      8  C   UNL     1       1.488   4.213  20.419  0.00  0.00    +0.000 C 
ENDROOT
BRANCH   1   9
ATOM      9  S   UNL     1       3.069   2.539  18.824  0.00  0.00    +0.000 S 
BRANCH   9  15
ATOM     10  C   UNL     1       7.345   5.735  19.188  0.00  0.00    +0.000 C 
ATOM     11  C   UNL     1       6.358   5.013  18.316  0.00  0.00    +0.000 A 
ATOM     12  C   UNL     1       6.487   5.009  16.928  0.00  0.00    +0.000 A 
ATOM     13  C   UNL     1       5.573   4.305  16.146  0.00  0.00    +0.000 A 
ATOM     14  C   UNL     1       4.540   3.578  16.750  0.00  0.00    +0.000 A 
ATOM     15  C   UNL     1       4.406   3.540  18.145  0.00  0.00    +0.000 A 
ATOM     16  C   UNL     1       5.309   4.290  18.909  0.00  0.00    +0.000 A 
ENDBRANCH   9  15
ENDBRANCH   1   9
BRANCH   5  17
ATOM     17  C   UNL     1       1.305   8.139  21.463  0.00  0.00    +0.000 C 
BRANCH  17  18
ATOM     18  C   UNL     1      -0.198   8.442  21.520  0.00  0.00    +0.000 C 
BRANCH  18  19
ATOM     19  C   UNL     1      -0.495   9.583  22.493  0.00  0.00    +0.000 C 
BRANCH  19  20
ATOM     20  S   UNL     1      -0.291  11.205  21.777  0.00  0.00    +0.000 S 
ATOM     21  O   UNL     1       1.120  11.418  21.545  0.00  0.00    +0.000 OA
ATOM     22  O   UNL     1      -1.280  11.388  20.741  0.00  0.00    +0.000 OA
BRANCH  20  23
ATOM     23  N   UNL     1      -0.715  12.216  23.033  0.00  0.00    +0.000 NA
ATOM     24  H   UNL     1      -1.252  13.043  22.779  0.00  0.00    +0.000 HD
ATOM     25  H   UNL     1      -0.046  12.289  23.797  0.00  0.00    +0.000 HD
ENDBRANCH  20  23
ENDBRANCH  19  20
ENDBRANCH  18  19
ENDBRANCH  17  18
ENDBRANCH   5  17
TORSDOF 7
ENDMDL
MODEL 7
REMARK VINA RESULT:      -6.5      3.577      5.859
REMARK  Name = 
REMARK  8 active torsions:
REMARK  status: ('A' for Active; 'I' for Inactive)
REMARK    1  A    between atoms: C_1  and  C_2
REMARK    2  A    between atoms: C_6  and  S_7
REMARK    3  A    between atoms: S_7  and  C_8
REMARK    4  A    between atoms: C_12  and  C_14
REMARK    5  A    between atoms: C_14  and  C_15
REMARK    6  A    between atoms: C_15  and  C_16
REMARK    7  A    between atoms: C_16  and  S_17
REMARK    8  A    between atoms: S_17  and  N_18
REMARK                            x       y       z     vdW  Elec       q    Type
REMARK                         _______ _______ _______ _____ _____    ______ ____
ROOT
ATOM      1  C   UNL     1       1.799   3.971  18.946  0.00  0.00    +0.000 C 
ATOM      2  C   UNL     1       2.055   5.015  17.848  0.00  0.00    +0.000 C 
ATOM      3  C   UNL     1       2.733   6.302  18.317  0.00  0.00    +0.000 C 
ATOM      4  N   UNL     1       2.150   6.797  19.559  0.00  0.00    +0.000 N 
ATOM      5  C   UNL     1       1.762   8.127  19.644  0.00  0.00    +0.000 C 
ATOM      6  O   UNL     1       1.914   8.921  18.714  0.00  0.00    +0.000 OA
ATOM      7  C   UNL     1       2.203   5.841  20.661  0.00  0.00    +0.000 C 
ATOM      8  C   UNL     1       1.419   4.587  20.302  0.00  0.00    +0.000 C 
ENDROOT
BRANCH   1   9
ATOM      9  S   UNL     1       3.209   2.791  19.113  0.00  0.00    +0.000 S 
BRANCH   9  15
ATOM     10  C   UNL     1       7.628   5.806  19.069  0.00  0.00    +0.000 C 
ATOM     11  C   UNL     1       6.597   5.036  18.295  0.00  0.00    +0.000 A 
ATOM     12  C   UNL     1       6.707   4.867  16.915  0.00  0.00    +0.000 A 
ATOM     13  C   UNL     1       5.750   4.122  16.227  0.00  0.00    +0.000 A 
ATOM     14  C   UNL     1       4.695   3.517  16.920  0.00  0.00    +0.000 A 
ATOM     15  C   UNL     1       4.579   3.645  18.311  0.00  0.00    +0.000 A 
ATOM     16  C   UNL     1       5.525   4.434  18.977  0.00  0.00    +0.000 A 
ENDBRANCH   9  15
ENDBRANCH   1   9
BRANCH   5  17
ATOM     17  C   UNL     1       1.096   8.590  20.938  0.00  0.00    +0.000 C 
BRANCH  17  18
ATOM     18  C   UNL     1       0.796  10.096  20.932  0.00  0.00    +0.000 C 
BRANCH  18  19
ATOM     19  C   UNL     1      -0.619  10.374  20.424  0.00  0.00    +0.000 C 
BRANCH  19  20
ATOM     20  S   UNL     1      -0.664  11.377  18.949  0.00  0.00    +0.000 S 
ATOM     21  O   UNL     1      -1.966  11.999  18.869  0.00  0.00    +0.000 OA
ATOM     22  O   UNL     1       0.562  12.135  18.859  0.00  0.00    +0.000 OA
BRANCH  20  23
ATOM     23  N   UNL     1      -0.616  10.238  17.731  0.00  0.00    +0.000 NA
ATOM     24  H   UNL     1      -1.509   9.817  17.479  0.00  0.00    +0.000 HD
ATOM     25  H   UNL     1       0.221   9.661  17.688  0.00  0.00    +0.000 HD
ENDBRANCH  20  23
ENDBRANCH  19  20
ENDBRANCH  18  19
ENDBRANCH  17  18
ENDBRANCH   5  17
TORSDOF 7
ENDMDL
MODEL 8
REMARK VINA RESULT:      -6.5      0.995      1.124
REMARK  Name = 
REMARK  8 active torsions:
REMARK  status: ('A' for Active; 'I' for Inactive)
REMARK    1  A    between atoms: C_1  and  C_2
REMARK    2  A    between atoms: C_6  and  S_7
REMARK    3  A    between atoms: S_7  and  C_8
REMARK    4  A    between atoms: C_12  and  C_14
REMARK    5  A    between atoms: C_14  and  C_15
REMARK    6  A    between atoms: C_15  and  C_16
REMARK    7  A    between atoms: C_16  and  S_17
REMARK    8  A    between atoms: S_17  and  N_18
REMARK                            x       y       z     vdW  Elec       q    Type
REMARK                         _______ _______ _______ _____ _____    ______ ____
ROOT
ATOM      1  C   UNL     1       4.743   4.898  16.781  0.00  0.00    +0.000 C 
ATOM      2  C   UNL     1       3.724   6.027  17.000  0.00  0.00    +0.000 C 
ATOM      3  C   UNL     1       3.646   6.569  18.427  0.00  0.00    +0.000 C 
ATOM      4  N   UNL     1       3.643   5.493  19.413  0.00  0.00    +0.000 N 
ATOM      5  C   UNL     1       2.673   5.486  20.406  0.00  0.00    +0.000 C 
ATOM      6  O   UNL     1       1.822   6.371  20.506  0.00  0.00    +0.000 OA
ATOM      7  C   UNL     1       4.806   4.614  19.334  0.00  0.00    +0.000 C 
ATOM      8  C   UNL     1       4.855   3.934  17.974  0.00  0.00    +0.000 C 
ENDROOT
BRANCH   1   9
ATOM      9  S   UNL     1       6.396   5.551  16.284  0.00  0.00    +0.000 S 
BRANCH   9  15
ATOM     10  C   UNL     1       4.855   2.903  11.898  0.00  0.00    +0.000 C 
ATOM     11  C   UNL     1       5.885   3.755  12.582  0.00  0.00    +0.000 A 
ATOM     12  C   UNL     1       7.005   4.224  11.897  0.00  0.00    +0.000 A 
ATOM     13  C   UNL     1       7.929   5.039  12.550  0.00  0.00    +0.000 A 
ATOM     14  C   UNL     1       7.723   5.412  13.883  0.00  0.00    +0.000 A 
ATOM     15  C   UNL     1       6.590   4.979  14.586  0.00  0.00    +0.000 A 
ATOM     16  C   UNL     1       5.697   4.126  13.925  0.00  0.00    +0.000 A 
ENDBRANCH   9  15
ENDBRANCH   1   9
BRANCH   5  17
ATOM     17  C   UNL     1       2.664   4.307  21.378  0.00  0.00    +0.000 C 
BRANCH  17  18
ATOM     18  C   UNL     1       1.457   3.384  21.161  0.00  0.00    +0.000 C 
BRANCH  18  19
ATOM     19  C   UNL     1       0.810   3.632  19.798  0.00  0.00    +0.000 C 
BRANCH  19  20
ATOM     20  S   UNL     1       1.444   2.580  18.504  0.00  0.00    +0.000 S 
ATOM     21  O   UNL     1       1.533   3.364  17.293  0.00  0.00    +0.000 OA
ATOM     22  O   UNL     1       2.562   1.824  19.019  0.00  0.00    +0.000 OA
BRANCH  20  23
ATOM     23  N   UNL     1       0.198   1.497  18.268  0.00  0.00    +0.000 NA
ATOM     24  H   UNL     1      -0.503   1.456  19.007  0.00  0.00    +0.000 HD
ATOM     25  H   UNL     1       0.436   0.639  17.777  0.00  0.00    +0.000 HD
ENDBRANCH  20  23
ENDBRANCH  19  20
ENDBRANCH  18  19
ENDBRANCH  17  18
ENDBRANCH   5  17
TORSDOF 7
ENDMDL
MODEL 9
REMARK VINA RESULT:      -6.5      4.279      6.268
REMARK  Name = 
REMARK  8 active torsions:
REMARK  status: ('A' for Active; 'I' for Inactive)
REMARK    1  A    between atoms: C_1  and  C_2
REMARK    2  A    between atoms: C_6  and  S_7
REMARK    3  A    between atoms: S_7  and  C_8
REMARK    4  A    between atoms: C_12  and  C_14
REMARK    5  A    between atoms: C_14  and  C_15
REMARK    6  A    between atoms: C_15  and  C_16
REMARK    7  A    between atoms: C_16  and  S_17
REMARK    8  A    between atoms: S_17  and  N_18
REMARK                            x       y       z     vdW  Elec       q    Type
REMARK                         _______ _______ _______ _____ _____    ______ ____
ROOT
ATOM      1  C   UNL     1       2.221   4.501  19.149  0.00  0.00    +0.000 C 
ATOM      2  C   UNL     1       2.426   5.191  17.792  0.00  0.00    +0.000 C 
ATOM      3  C   UNL     1       2.977   6.615  17.860  0.00  0.00    +0.000 C 
ATOM      4  N   UNL     1       2.312   7.402  18.893  0.00  0.00    +0.000 N 
ATOM      5  C   UNL     1       1.811   8.656  18.574  0.00  0.00    +0.000 C 
ATOM      6  O   UNL     1       1.928   9.149  17.450  0.00  0.00    +0.000 OA
ATOM      7  C   UNL     1       2.407   6.824  20.230  0.00  0.00    +0.000 C 
ATOM      8  C   UNL     1       1.743   5.455  20.256  0.00  0.00    +0.000 C 
ENDROOT
BRANCH   1   9
ATOM      9  S   UNL     1       3.718   3.557  19.673  0.00  0.00    +0.000 S 
BRANCH   9  15
ATOM     10  C   UNL     1       6.362   4.077  15.051  0.00  0.00    +0.000 C 
ATOM     11  C   UNL     1       6.242   4.439  16.503  0.00  0.00    +0.000 A 
ATOM     12  C   UNL     1       7.090   5.379  17.087  0.00  0.00    +0.000 A 
ATOM     13  C   UNL     1       6.935   5.717  18.430  0.00  0.00    +0.000 A 
ATOM     14  C   UNL     1       5.913   5.137  19.190  0.00  0.00    +0.000 A 
ATOM     15  C   UNL     1       5.027   4.212  18.620  0.00  0.00    +0.000 A 
ATOM     16  C   UNL     1       5.227   3.854  17.281  0.00  0.00    +0.000 A 
ENDBRANCH   9  15
ENDBRANCH   1   9
BRANCH   5  17
ATOM     17  C   UNL     1       1.063   9.420  19.665  0.00  0.00    +0.000 C 
BRANCH  17  18
ATOM     18  C   UNL     1       0.017  10.384  19.088  0.00  0.00    +0.000 C 
BRANCH  18  19
ATOM     19  C   UNL     1       0.434  11.840  19.296  0.00  0.00    +0.000 C 
BRANCH  19  20
ATOM     20  S   UNL     1      -0.823  13.017  18.827  0.00  0.00    +0.000 S 
ATOM     21  O   UNL     1      -1.940  12.864  19.731  0.00  0.00    +0.000 OA
ATOM     22  O   UNL     1      -0.199  14.296  18.579  0.00  0.00    +0.000 OA
BRANCH  20  23
ATOM     23  N   UNL     1      -1.336  12.436  17.350  0.00  0.00    +0.000 NA
ATOM     24  H   UNL     1      -1.490  11.431  17.295  0.00  0.00    +0.000 HD
ATOM     25  H   UNL     1      -0.975  12.917  16.529  0.00  0.00    +0.000 HD
ENDBRANCH  20  23
ENDBRANCH  19  20
ENDBRANCH  18  19
ENDBRANCH  17  18
ENDBRANCH   5  17
TORSDOF 7
ENDMDL
