MODEL 1
REMARK VINA RESULT:      -7.3      0.000      0.000
REMARK  Name = 
REMARK  1 active torsions:
REMARK  status: ('A' for Active; 'I' for Inactive)
REMARK    1  A    between atoms: C_11  and  C_12
REMARK                            x       y       z     vdW  Elec       q    Type
REMARK                         _______ _______ _______ _____ _____    ______ ____
ROOT
ATOM      1  O   UNL     1       5.029   3.643  19.752  0.00  0.00    +0.000 OA
ATOM      2  C   UNL     1       5.327   3.937  18.610  0.00  0.00    +0.000 C 
ATOM      3  N   UNL     1       6.586   4.236  18.141  0.00  0.00    +0.000 N 
ATOM      4  C   UNL     1       6.590   4.426  16.770  0.00  0.00    +0.000 A 
ATOM      5  N   UNL     1       7.694   4.680  16.061  0.00  0.00    +0.000 NA
ATOM      6  C   UNL     1       7.480   4.807  14.731  0.00  0.00    +0.000 A 
ATOM      7  C   UNL     1       6.230   4.693  14.116  0.00  0.00    +0.000 A 
ATOM      8  C   UNL     1       5.106   4.425  14.901  0.00  0.00    +0.000 A 
ATOM      9  C   UNL     1       5.300   4.284  16.259  0.00  0.00    +0.000 A 
ATOM     10  C   UNL     1       4.425   3.988  17.400  0.00  0.00    +0.000 C 
ATOM     11  C   UNL     1       3.092   3.839  17.317  0.00  0.00    +0.000 C 
ATOM     12  H   UNL     1       7.418   4.272  18.706  0.00  0.00    +0.000 HD
ENDROOT
BRANCH  11  13
ATOM     13  C   UNL     1       2.183   3.599  18.375  0.00  0.00    +0.000 A 
ATOM     14  N   UNL     1       1.488   2.504  18.617  0.00  0.00    +0.000 NA
ATOM     15  C   UNL     1       0.744   2.764  19.740  0.00  0.00    +0.000 A 
ATOM     16  C   UNL     1       1.027   4.012  20.230  0.00  0.00    +0.000 A 
ATOM     17  N   UNL     1       1.954   4.525  19.366  0.00  0.00    +0.000 N 
ATOM     18  H   UNL     1       2.330   5.465  19.392  0.00  0.00    +0.000 HD
ENDBRANCH  11  13
TORSDOF 1
ENDMDL
MODEL 2
REMARK VINA RESULT:      -7.2      1.622      1.991
REMARK  Name = 
REMARK  1 active torsions:
REMARK  status: ('A' for Active; 'I' for Inactive)
REMARK    1  A    between atoms: C_11  and  C_12
REMARK                            x       y       z     vdW  Elec       q    Type
REMARK                         _______ _______ _______ _____ _____    ______ ____
ROOT
ATOM      1  O   UNL     1       6.680   4.794  18.821  0.00  0.00    +0.000 OA
ATOM      2  C   UNL     1       6.615   4.752  17.607  0.00  0.00    +0.000 C 
ATOM      3  N   UNL     1       7.490   5.330  16.716  0.00  0.00    +0.000 N 
ATOM      4  C   UNL     1       7.181   5.001  15.408  0.00  0.00    +0.000 A 
ATOM      5  N   UNL     1       7.904   5.395  14.355  0.00  0.00    +0.000 NA
ATOM      6  C   UNL     1       7.443   4.942  13.166  0.00  0.00    +0.000 A 
ATOM      7  C   UNL     1       6.312   4.135  13.012  0.00  0.00    +0.000 A 
ATOM      8  C   UNL     1       5.591   3.749  14.144  0.00  0.00    +0.000 A 
ATOM      9  C   UNL     1       6.046   4.192  15.369  0.00  0.00    +0.000 A 
ATOM     10  C   UNL     1       5.611   4.007  16.759  0.00  0.00    +0.000 C 
ATOM     11  C   UNL     1       4.512   3.329  17.127  0.00  0.00    +0.000 C 
ATOM     12  H   UNL     1       8.286   5.889  16.973  0.00  0.00    +0.000 HD
ENDROOT
BRANCH  11  13
ATOM     13  C   UNL     1       4.008   3.148  18.438  0.00  0.00    +0.000 A 
ATOM     14  N   UNL     1       2.849   3.547  18.924  0.00  0.00    +0.000 NA
ATOM     15  C   UNL     1       2.829   3.150  20.238  0.00  0.00    +0.000 A 
ATOM     16  C   UNL     1       3.964   2.448  20.548  0.00  0.00    +0.000 A 
ATOM     17  N   UNL     1       4.695   2.438  19.394  0.00  0.00    +0.000 N 
ATOM     18  H   UNL     1       5.630   2.062  19.289  0.00  0.00    +0.000 HD
ENDBRANCH  11  13
TORSDOF 1
ENDMDL
MODEL 3
REMARK VINA RESULT:      -7.1      1.901      5.678
REMARK  Name = 
REMARK  1 active torsions:
REMARK  status: ('A' for Active; 'I' for Inactive)
REMARK    1  A    between atoms: C_11  and  C_12
REMARK                            x       y       z     vdW  Elec       q    Type
REMARK                         _______ _______ _______ _____ _____    ______ ____
ROOT
ATOM      1  O   UNL     1       7.902   4.486  16.595  0.00  0.00    +0.000 OA
ATOM      2  C   UNL     1       6.792   4.298  17.054  0.00  0.00    +0.000 C 
ATOM      3  N   UNL     1       6.467   4.141  18.382  0.00  0.00    +0.000 N 
ATOM      4  C   UNL     1       5.098   4.049  18.567  0.00  0.00    +0.000 A 
ATOM      5  N   UNL     1       4.519   3.939  19.767  0.00  0.00    +0.000 NA
ATOM      6  C   UNL     1       3.168   3.888  19.726  0.00  0.00    +0.000 A 
ATOM      7  C   UNL     1       2.409   3.939  18.553  0.00  0.00    +0.000 A 
ATOM      8  C   UNL     1       3.062   4.054  17.323  0.00  0.00    +0.000 A 
ATOM      9  C   UNL     1       4.439   4.116  17.340  0.00  0.00    +0.000 A 
ATOM     10  C   UNL     1       5.477   4.256  16.311  0.00  0.00    +0.000 C 
ATOM     11  C   UNL     1       5.237   4.298  14.990  0.00  0.00    +0.000 C 
ATOM     12  H   UNL     1       7.129   4.136  19.140  0.00  0.00    +0.000 HD
ENDROOT
BRANCH  11  13
ATOM     13  C   UNL     1       6.186   4.385  13.942  0.00  0.00    +0.000 A 
ATOM     14  N   UNL     1       6.255   3.654  12.847  0.00  0.00    +0.000 NA
ATOM     15  C   UNL     1       7.350   4.107  12.155  0.00  0.00    +0.000 A 
ATOM     16  C   UNL     1       7.928   5.167  12.803  0.00  0.00    +0.000 A 
ATOM     17  N   UNL     1       7.170   5.346  13.926  0.00  0.00    +0.000 N 
ATOM     18  H   UNL     1       7.361   6.005  14.671  0.00  0.00    +0.000 HD
ENDBRANCH  11  13
TORSDOF 1
ENDMDL
MODEL 4
REMARK VINA RESULT:      -7.0      1.326      1.347
REMARK  Name = 
REMARK  1 active torsions:
REMARK  status: ('A' for Active; 'I' for Inactive)
REMARK    1  A    between atoms: C_11  and  C_12
REMARK                            x       y       z     vdW  Elec       q    Type
REMARK                         _______ _______ _______ _____ _____    ______ ____
ROOT
ATOM      1  O   UNL     1       5.984   5.318  19.739  0.00  0.00    +0.000 OA
ATOM      2  C   UNL     1       6.018   5.165  18.533  0.00  0.00    +0.000 C 
ATOM      3  N   UNL     1       6.979   5.641  17.671  0.00  0.00    +0.000 N 
ATOM      4  C   UNL     1       6.771   5.199  16.376  0.00  0.00    +0.000 A 
ATOM      5  N   UNL     1       7.589   5.480  15.357  0.00  0.00    +0.000 NA
ATOM      6  C   UNL     1       7.215   4.929  14.179  0.00  0.00    +0.000 A 
ATOM      7  C   UNL     1       6.079   4.133  14.003  0.00  0.00    +0.000 A 
ATOM      8  C   UNL     1       5.256   3.868  15.101  0.00  0.00    +0.000 A 
ATOM      9  C   UNL     1       5.621   4.413  16.314  0.00  0.00    +0.000 A 
ATOM     10  C   UNL     1       5.068   4.366  17.673  0.00  0.00    +0.000 C 
ATOM     11  C   UNL     1       3.924   3.746  18.006  0.00  0.00    +0.000 C 
ATOM     12  H   UNL     1       7.767   6.206  17.942  0.00  0.00    +0.000 HD
ENDROOT
BRANCH  11  13
ATOM     13  C   UNL     1       3.308   3.697  19.281  0.00  0.00    +0.000 A 
ATOM     14  N   UNL     1       3.188   2.659  20.086  0.00  0.00    +0.000 NA
ATOM     15  C   UNL     1       2.507   3.109  21.189  0.00  0.00    +0.000 A 
ATOM     16  C   UNL     1       2.256   4.452  21.089  0.00  0.00    +0.000 A 
ATOM     17  N   UNL     1       2.784   4.818  19.883  0.00  0.00    +0.000 N 
ATOM     18  H   UNL     1       2.711   5.734  19.458  0.00  0.00    +0.000 HD
ENDBRANCH  11  13
TORSDOF 1
ENDMDL
MODEL 5
REMARK VINA RESULT:      -7.0      1.079      1.174
REMARK  Name = 
REMARK  1 active torsions:
REMARK  status: ('A' for Active; 'I' for Inactive)
REMARK    1  A    between atoms: C_11  and  C_12
REMARK                            x       y       z     vdW  Elec       q    Type
REMARK                         _______ _______ _______ _____ _____    ______ ____
ROOT
ATOM      1  O   UNL     1       5.174   5.383  19.700  0.00  0.00    +0.000 OA
ATOM      2  C   UNL     1       5.393   5.217  18.515  0.00  0.00    +0.000 C 
ATOM      3  N   UNL     1       6.442   5.738  17.793  0.00  0.00    +0.000 N 
ATOM      4  C   UNL     1       6.450   5.269  16.491  0.00  0.00    +0.000 A 
ATOM      5  N   UNL     1       7.391   5.585  15.596  0.00  0.00    +0.000 NA
ATOM      6  C   UNL     1       7.225   4.998  14.388  0.00  0.00    +0.000 A 
ATOM      7  C   UNL     1       6.173   4.136  14.065  0.00  0.00    +0.000 A 
ATOM      8  C   UNL     1       5.215   3.837  15.036  0.00  0.00    +0.000 A 
ATOM      9  C   UNL     1       5.367   4.416  16.278  0.00  0.00    +0.000 A 
ATOM     10  C   UNL     1       4.625   4.353  17.543  0.00  0.00    +0.000 C 
ATOM     11  C   UNL     1       3.481   3.673  17.720  0.00  0.00    +0.000 C 
ATOM     12  H   UNL     1       7.149   6.351  18.164  0.00  0.00    +0.000 HD
ENDROOT
BRANCH  11  13
ATOM     13  C   UNL     1       2.689   3.603  18.892  0.00  0.00    +0.000 A 
ATOM     14  N   UNL     1       1.457   4.041  19.067  0.00  0.00    +0.000 NA
ATOM     15  C   UNL     1       1.133   3.757  20.370  0.00  0.00    +0.000 A 
ATOM     16  C   UNL     1       2.155   3.085  20.987  0.00  0.00    +0.000 A 
ATOM     17  N   UNL     1       3.129   2.978  20.035  0.00  0.00    +0.000 N 
ATOM     18  H   UNL     1       4.056   2.595  20.177  0.00  0.00    +0.000 HD
ENDBRANCH  11  13
TORSDOF 1
ENDMDL
MODEL 6
REMARK VINA RESULT:      -7.0      1.784      2.266
REMARK  Name = 
REMARK  1 active torsions:
REMARK  status: ('A' for Active; 'I' for Inactive)
REMARK    1  A    between atoms: C_11  and  C_12
REMARK                            x       y       z     vdW  Elec       q    Type
REMARK                         _______ _______ _______ _____ _____    ______ ____
ROOT
ATOM      1  O   UNL     1       6.609   5.569  18.033  0.00  0.00    +0.000 OA
ATOM      2  C   UNL     1       6.578   5.303  16.847  0.00  0.00    +0.000 C 
ATOM      3  N   UNL     1       7.441   5.762  15.879  0.00  0.00    +0.000 N 
ATOM      4  C   UNL     1       7.185   5.183  14.648  0.00  0.00    +0.000 A 
ATOM      5  N   UNL     1       7.911   5.423  13.552  0.00  0.00    +0.000 NA
ATOM      6  C   UNL     1       7.507   4.735  12.459  0.00  0.00    +0.000 A 
ATOM      7  C   UNL     1       6.427   3.846  12.438  0.00  0.00    +0.000 A 
ATOM      8  C   UNL     1       5.700   3.629  13.611  0.00  0.00    +0.000 A 
ATOM      9  C   UNL     1       6.099   4.314  14.740  0.00  0.00    +0.000 A 
ATOM     10  C   UNL     1       5.640   4.358  16.134  0.00  0.00    +0.000 C 
ATOM     11  C   UNL     1       4.572   3.693  16.604  0.00  0.00    +0.000 C 
ATOM     12  H   UNL     1       8.198   6.405  16.040  0.00  0.00    +0.000 HD
ENDROOT
BRANCH  11  13
ATOM     13  C   UNL     1       4.045   3.723  17.918  0.00  0.00    +0.000 A 
ATOM     14  N   UNL     1       4.015   2.746  18.804  0.00  0.00    +0.000 NA
ATOM     15  C   UNL     1       3.395   3.258  19.916  0.00  0.00    +0.000 A 
ATOM     16  C   UNL     1       3.091   4.582  19.734  0.00  0.00    +0.000 A 
ATOM     17  N   UNL     1       3.524   4.870  18.471  0.00  0.00    +0.000 N 
ATOM     18  H   UNL     1       3.391   5.749  17.985  0.00  0.00    +0.000 HD
ENDBRANCH  11  13
TORSDOF 1
ENDMDL
MODEL 7
REMARK VINA RESULT:      -6.7      3.282      5.888
REMARK  Name = 
REMARK  1 active torsions:
REMARK  status: ('A' for Active; 'I' for Inactive)
REMARK    1  A    between atoms: C_11  and  C_12
REMARK                            x       y       z     vdW  Elec       q    Type
REMARK                         _______ _______ _______ _____ _____    ______ ____
ROOT
ATOM      1  O   UNL     1       4.607   4.826  19.221  0.00  0.00    +0.000 OA
ATOM      2  C   UNL     1       3.846   5.769  19.110  0.00  0.00    +0.000 C 
ATOM      3  N   UNL     1       2.951   6.217  20.054  0.00  0.00    +0.000 N 
ATOM      4  C   UNL     1       2.312   7.375  19.645  0.00  0.00    +0.000 A 
ATOM      5  N   UNL     1       1.430   8.040  20.397  0.00  0.00    +0.000 NA
ATOM      6  C   UNL     1       0.941   9.160  19.817  0.00  0.00    +0.000 A 
ATOM      7  C   UNL     1       1.300   9.613  18.544  0.00  0.00    +0.000 A 
ATOM      8  C   UNL     1       2.226   8.882  17.797  0.00  0.00    +0.000 A 
ATOM      9  C   UNL     1       2.745   7.740  18.370  0.00  0.00    +0.000 A 
ATOM     10  C   UNL     1       3.725   6.730  17.952  0.00  0.00    +0.000 C 
ATOM     11  C   UNL     1       4.328   6.709  16.752  0.00  0.00    +0.000 C 
ATOM     12  H   UNL     1       2.801   5.792  20.954  0.00  0.00    +0.000 HD
ENDROOT
BRANCH  11  13
ATOM     13  C   UNL     1       5.245   5.746  16.264  0.00  0.00    +0.000 A 
ATOM     14  N   UNL     1       6.515   5.918  15.952  0.00  0.00    +0.000 NA
ATOM     15  C   UNL     1       6.969   4.699  15.515  0.00  0.00    +0.000 A 
ATOM     16  C   UNL     1       5.985   3.752  15.614  0.00  0.00    +0.000 A 
ATOM     17  N   UNL     1       4.901   4.423  16.107  0.00  0.00    +0.000 N 
ATOM     18  H   UNL     1       3.974   4.037  16.236  0.00  0.00    +0.000 HD
ENDBRANCH  11  13
TORSDOF 1
ENDMDL
MODEL 8
REMARK VINA RESULT:      -6.7      2.438      5.893
REMARK  Name = 
REMARK  1 active torsions:
REMARK  status: ('A' for Active; 'I' for Inactive)
REMARK    1  A    between atoms: C_11  and  C_12
REMARK                            x       y       z     vdW  Elec       q    Type
REMARK                         _______ _______ _______ _____ _____    ______ ____
ROOT
ATOM      1  O   UNL     1       5.239   7.038  15.200  0.00  0.00    +0.000 OA
ATOM      2  C   UNL     1       4.941   6.363  16.166  0.00  0.00    +0.000 C 
ATOM      3  N   UNL     1       4.294   6.792  17.302  0.00  0.00    +0.000 N 
ATOM      4  C   UNL     1       4.018   5.744  18.162  0.00  0.00    +0.000 A 
ATOM      5  N   UNL     1       3.354   5.886  19.313  0.00  0.00    +0.000 NA
ATOM      6  C   UNL     1       3.170   4.730  19.992  0.00  0.00    +0.000 A 
ATOM      7  C   UNL     1       3.622   3.479  19.562  0.00  0.00    +0.000 A 
ATOM      8  C   UNL     1       4.310   3.383  18.350  0.00  0.00    +0.000 A 
ATOM      9  C   UNL     1       4.504   4.548  17.636  0.00  0.00    +0.000 A 
ATOM     10  C   UNL     1       5.135   4.876  16.352  0.00  0.00    +0.000 C 
ATOM     11  C   UNL     1       5.770   3.989  15.568  0.00  0.00    +0.000 C 
ATOM     12  H   UNL     1       4.011   7.742  17.478  0.00  0.00    +0.000 HD
ENDROOT
BRANCH  11  13
ATOM     13  C   UNL     1       6.438   4.240  14.345  0.00  0.00    +0.000 A 
ATOM     14  N   UNL     1       6.192   3.712  13.162  0.00  0.00    +0.000 NA
ATOM     15  C   UNL     1       7.112   4.259  12.302  0.00  0.00    +0.000 A 
ATOM     16  C   UNL     1       7.896   5.176  12.951  0.00  0.00    +0.000 A 
ATOM     17  N   UNL     1       7.447   5.169  14.241  0.00  0.00    +0.000 N 
ATOM     18  H   UNL     1       7.856   5.683  15.013  0.00  0.00    +0.000 HD
ENDBRANCH  11  13
TORSDOF 1
ENDMDL
MODEL 9
REMARK VINA RESULT:      -6.7      1.852      1.961
REMARK  Name = 
REMARK  1 active torsions:
REMARK  status: ('A' for Active; 'I' for Inactive)
REMARK    1  A    between atoms: C_11  and  C_12
REMARK                            x       y       z     vdW  Elec       q    Type
REMARK                         _______ _______ _______ _____ _____    ______ ____
ROOT
ATOM      1  O   UNL     1       3.314   6.223  19.228  0.00  0.00    +0.000 OA
ATOM      2  C   UNL     1       3.878   5.802  18.236  0.00  0.00    +0.000 C 
ATOM      3  N   UNL     1       4.472   6.553  17.247  0.00  0.00    +0.000 N 
ATOM      4  C   UNL     1       5.113   5.757  16.314  0.00  0.00    +0.000 A 
ATOM      5  N   UNL     1       5.807   6.241  15.280  0.00  0.00    +0.000 NA
ATOM      6  C   UNL     1       6.376   5.291  14.502  0.00  0.00    +0.000 A 
ATOM      7  C   UNL     1       6.268   3.915  14.726  0.00  0.00    +0.000 A 
ATOM      8  C   UNL     1       5.531   3.459  15.823  0.00  0.00    +0.000 A 
ATOM      9  C   UNL     1       4.948   4.410  16.635  0.00  0.00    +0.000 A 
ATOM     10  C   UNL     1       4.138   4.363  17.858  0.00  0.00    +0.000 C 
ATOM     11  C   UNL     1       3.719   3.232  18.449  0.00  0.00    +0.000 C 
ATOM     12  H   UNL     1       4.484   7.559  17.217  0.00  0.00    +0.000 HD
ENDROOT
BRANCH  11  13
ATOM     13  C   UNL     1       2.901   3.110  19.598  0.00  0.00    +0.000 A 
ATOM     14  N   UNL     1       3.239   2.662  20.792  0.00  0.00    +0.000 NA
ATOM     15  C   UNL     1       2.102   2.726  21.559  0.00  0.00    +0.000 A 
ATOM     16  C   UNL     1       1.067   3.271  20.847  0.00  0.00    +0.000 A 
ATOM     17  N   UNL     1       1.590   3.528  19.610  0.00  0.00    +0.000 N 
ATOM     18  H   UNL     1       1.074   3.870  18.809  0.00  0.00    +0.000 HD
ENDBRANCH  11  13
TORSDOF 1
ENDMDL
