MODEL 1
REMARK VINA RESULT:      -8.2      0.000      0.000
REMARK  Name = 
REMARK  9 active torsions:
REMARK  status: ('A' for Active; 'I' for Inactive)
REMARK    1  A    between atoms: C_1  and  C_2
REMARK    2  A    between atoms: C_2  and  C_3
REMARK    3  A    between atoms: C_2  and  C_13
REMARK    4  A    between atoms: N_5  and  C_6
REMARK    5  A    between atoms: C_6  and  C_7
REMARK    6  A    between atoms: C_13  and  O_15
REMARK    7  A    between atoms: O_15  and  C_16
REMARK    8  A    between atoms: C_20  and  C_21
REMARK    9  A    between atoms: C_21  and  O_23
REMARK                            x       y       z     vdW  Elec       q    Type
REMARK                         _______ _______ _______ _____ _____    ______ ____
ROOT
ATOM      1  C   UNL     1       7.745   7.086  17.908  0.00  0.00    +0.000 C 
ATOM      2  C   UNL     1       7.104   5.743  17.554  0.00  0.00    +0.000 C 
ENDROOT
BRANCH   2   3
ATOM      3  C   UNL     1       6.621   5.044  18.816  0.00  0.00    +0.000 C 
ATOM      4  O   UNL     1       7.039   5.321  19.936  0.00  0.00    +0.000 OA
ATOM      5  N   UNL     1       5.665   4.071  18.623  0.00  0.00    +0.000 N 
ATOM      6  H   UNL     1       5.261   3.919  17.709  0.00  0.00    +0.000 HD
BRANCH   5   7
ATOM      7  C   UNL     1       5.040   3.419  19.755  0.00  0.00    +0.000 C 
BRANCH   7   8
ATOM      8  C   UNL     1       3.555   3.276  19.560  0.00  0.00    +0.000 A 
ATOM      9  C   UNL     1       3.043   2.461  18.539  0.00  0.00    +0.000 A 
ATOM     10  C   UNL     1       1.665   2.340  18.355  0.00  0.00    +0.000 A 
ATOM     11  C   UNL     1       0.785   3.033  19.184  0.00  0.00    +0.000 A 
ATOM     12  C   UNL     1       1.282   3.842  20.203  0.00  0.00    +0.000 A 
ATOM     13  C   UNL     1       2.660   3.966  20.390  0.00  0.00    +0.000 A 
ENDBRANCH   7   8
ENDBRANCH   5   7
ENDBRANCH   2   3
BRANCH   2  14
ATOM     14  C   UNL     1       5.975   5.974  16.572  0.00  0.00    +0.000 C 
ATOM     15  O   UNL     1       5.493   7.072  16.311  0.00  0.00    +0.000 OA
BRANCH  14  16
ATOM     16  O   UNL     1       5.614   4.778  15.955  0.00  0.00    +0.000 OA
BRANCH  16  17
ATOM     17  C   UNL     1       6.012   4.563  14.617  0.00  0.00    +0.000 A 
ATOM     18  C   UNL     1       7.196   5.204  14.245  0.00  0.00    +0.000 A 
ATOM     19  C   UNL     1       7.754   4.955  12.991  0.00  0.00    +0.000 A 
ATOM     20  C   UNL     1       7.134   4.058  12.121  0.00  0.00    +0.000 A 
ATOM     21  C   UNL     1       5.942   3.425  12.493  0.00  0.00    +0.000 A 
ATOM     22  C   UNL     1       5.360   3.707  13.731  0.00  0.00    +0.000 A 
BRANCH  21  23
ATOM     23  C   UNL     1       5.318   2.475  11.537  0.00  0.00    +0.000 C 
ATOM     24  O   UNL     1       4.220   2.668  11.047  0.00  0.00    +0.000 OA
BRANCH  23  25
ATOM     25  O   UNL     1       6.083   1.407  11.223  0.00  0.00    +0.000 OA
ATOM     26  H   UNL     1       6.823   1.218  11.829  0.00  0.00    +0.000 HD
ENDBRANCH  23  25
ENDBRANCH  21  23
ENDBRANCH  16  17
ENDBRANCH  14  16
ENDBRANCH   2  14
TORSDOF 8
ENDMDL
MODEL 2
REMARK VINA RESULT:      -8.1      1.222      1.759
REMARK  Name = 
REMARK  9 active torsions:
REMARK  status: ('A' for Active; 'I' for Inactive)
REMARK    1  A    between atoms: C_1  and  C_2
REMARK    2  A    between atoms: C_2  and  C_3
REMARK    3  A    between atoms: C_2  and  C_13
REMARK    4  A    between atoms: N_5  and  C_6
REMARK    5  A    between atoms: C_6  and  C_7
REMARK    6  A    between atoms: C_13  and  O_15
REMARK    7  A    between atoms: O_15  and  C_16
REMARK    8  A    between atoms: C_20  and  C_21
REMARK    9  A    between atoms: C_21  and  O_23
REMARK                            x       y       z     vdW  Elec       q    Type
REMARK                         _______ _______ _______ _____ _____    ______ ____
ROOT
ATOM      1  C   UNL     1       7.906   6.400  18.653  0.00  0.00    +0.000 C 
ATOM      2  C   UNL     1       6.904   5.417  18.047  0.00  0.00    +0.000 C 
ENDROOT
BRANCH   2   3
ATOM      3  C   UNL     1       5.557   5.543  18.744  0.00  0.00    +0.000 C 
ATOM      4  O   UNL     1       5.404   5.345  19.945  0.00  0.00    +0.000 OA
ATOM      5  N   UNL     1       4.504   5.906  17.932  0.00  0.00    +0.000 N 
ATOM      6  H   UNL     1       4.662   6.158  16.966  0.00  0.00    +0.000 HD
BRANCH   5   7
ATOM      7  C   UNL     1       3.199   6.175  18.498  0.00  0.00    +0.000 C 
BRANCH   7   8
ATOM      8  C   UNL     1       2.431   4.905  18.745  0.00  0.00    +0.000 A 
ATOM      9  C   UNL     1       1.671   4.745  19.914  0.00  0.00    +0.000 A 
ATOM     10  C   UNL     1       0.969   3.561  20.144  0.00  0.00    +0.000 A 
ATOM     11  C   UNL     1       1.021   2.525  19.215  0.00  0.00    +0.000 A 
ATOM     12  C   UNL     1       1.770   2.674  18.049  0.00  0.00    +0.000 A 
ATOM     13  C   UNL     1       2.474   3.857  17.815  0.00  0.00    +0.000 A 
ENDBRANCH   7   8
ENDBRANCH   5   7
ENDBRANCH   2   3
BRANCH   2  14
ATOM     14  C   UNL     1       6.794   5.673  16.559  0.00  0.00    +0.000 C 
ATOM     15  O   UNL     1       6.383   6.717  16.061  0.00  0.00    +0.000 OA
BRANCH  14  16
ATOM     16  O   UNL     1       7.292   4.589  15.840  0.00  0.00    +0.000 OA
BRANCH  16  17
ATOM     17  C   UNL     1       7.079   4.552  14.444  0.00  0.00    +0.000 A 
ATOM     18  C   UNL     1       7.907   5.395  13.700  0.00  0.00    +0.000 A 
ATOM     19  C   UNL     1       7.877   5.342  12.306  0.00  0.00    +0.000 A 
ATOM     20  C   UNL     1       7.033   4.437  11.664  0.00  0.00    +0.000 A 
ATOM     21  C   UNL     1       6.198   3.599  12.412  0.00  0.00    +0.000 A 
ATOM     22  C   UNL     1       6.195   3.683  13.806  0.00  0.00    +0.000 A 
BRANCH  21  23
ATOM     23  C   UNL     1       5.317   2.647  11.687  0.00  0.00    +0.000 C 
ATOM     24  O   UNL     1       5.667   1.514  11.412  0.00  0.00    +0.000 OA
BRANCH  23  25
ATOM     25  O   UNL     1       4.087   3.125  11.402  0.00  0.00    +0.000 OA
ATOM     26  H   UNL     1       3.983   3.543  10.527  0.00  0.00    +0.000 HD
ENDBRANCH  23  25
ENDBRANCH  21  23
ENDBRANCH  16  17
ENDBRANCH  14  16
ENDBRANCH   2  14
TORSDOF 8
ENDMDL
MODEL 3
REMARK VINA RESULT:      -8.0      3.287      5.947
REMARK  Name = 
REMARK  9 active torsions:
REMARK  status: ('A' for Active; 'I' for Inactive)
REMARK    1  A    between atoms: C_1  and  C_2
REMARK    2  A    between atoms: C_2  and  C_3
REMARK    3  A    between atoms: C_2  and  C_13
REMARK    4  A    between atoms: N_5  and  C_6
REMARK    5  A    between atoms: C_6  and  C_7
REMARK    6  A    between atoms: C_13  and  O_15
REMARK    7  A    between atoms: O_15  and  C_16
REMARK    8  A    between atoms: C_20  and  C_21
REMARK    9  A    between atoms: C_21  and  O_23
REMARK                            x       y       z     vdW  Elec       q    Type
REMARK                         _______ _______ _______ _____ _____    ______ ____
ROOT
ATOM      1  C   UNL     1       7.180   5.767  17.118  0.00  0.00    +0.000 C 
ATOM      2  C   UNL     1       5.850   5.026  16.976  0.00  0.00    +0.000 C 
ENDROOT
BRANCH   2   3
ATOM      3  C   UNL     1       5.617   4.132  18.185  0.00  0.00    +0.000 C 
ATOM      4  O   UNL     1       6.071   4.379  19.298  0.00  0.00    +0.000 OA
ATOM      5  N   UNL     1       4.849   3.012  17.951  0.00  0.00    +0.000 N 
ATOM      6  H   UNL     1       4.404   2.870  17.054  0.00  0.00    +0.000 HD
BRANCH   5   7
ATOM      7  C   UNL     1       4.458   2.148  19.045  0.00  0.00    +0.000 C 
BRANCH   7   8
ATOM      8  C   UNL     1       3.083   2.488  19.555  0.00  0.00    +0.000 A 
ATOM      9  C   UNL     1       2.877   2.777  20.913  0.00  0.00    +0.000 A 
ATOM     10  C   UNL     1       1.599   3.082  21.384  0.00  0.00    +0.000 A 
ATOM     11  C   UNL     1       0.515   3.096  20.508  0.00  0.00    +0.000 A 
ATOM     12  C   UNL     1       0.710   2.814  19.157  0.00  0.00    +0.000 A 
ATOM     13  C   UNL     1       1.987   2.508  18.683  0.00  0.00    +0.000 A 
ENDBRANCH   7   8
ENDBRANCH   5   7
ENDBRANCH   2   3
BRANCH   2  14
ATOM     14  C   UNL     1       4.735   6.035  16.800  0.00  0.00    +0.000 C 
ATOM     15  O   UNL     1       4.839   7.085  16.173  0.00  0.00    +0.000 OA
BRANCH  14  16
ATOM     16  O   UNL     1       3.560   5.569  17.386  0.00  0.00    +0.000 OA
BRANCH  16  17
ATOM     17  C   UNL     1       2.833   6.443  18.225  0.00  0.00    +0.000 A 
ATOM     18  C   UNL     1       2.662   5.992  19.536  0.00  0.00    +0.000 A 
ATOM     19  C   UNL     1       2.078   6.831  20.486  0.00  0.00    +0.000 A 
ATOM     20  C   UNL     1       1.683   8.119  20.126  0.00  0.00    +0.000 A 
ATOM     21  C   UNL     1       1.848   8.564  18.809  0.00  0.00    +0.000 A 
ATOM     22  C   UNL     1       2.392   7.710  17.847  0.00  0.00    +0.000 A 
BRANCH  21  23
ATOM     23  C   UNL     1       1.417   9.945  18.469  0.00  0.00    +0.000 C 
ATOM     24  O   UNL     1       0.667  10.589  19.181  0.00  0.00    +0.000 OA
BRANCH  23  25
ATOM     25  O   UNL     1       1.958  10.441  17.336  0.00  0.00    +0.000 OA
ATOM     26  H   UNL     1       2.296  11.355  17.388  0.00  0.00    +0.000 HD
ENDBRANCH  23  25
ENDBRANCH  21  23
ENDBRANCH  16  17
ENDBRANCH  14  16
ENDBRANCH   2  14
TORSDOF 8
ENDMDL
MODEL 4
REMARK VINA RESULT:      -8.0      3.069      5.791
REMARK  Name = 
REMARK  9 active torsions:
REMARK  status: ('A' for Active; 'I' for Inactive)
REMARK    1  A    between atoms: C_1  and  C_2
REMARK    2  A    between atoms: C_2  and  C_3
REMARK    3  A    between atoms: C_2  and  C_13
REMARK    4  A    between atoms: N_5  and  C_6
REMARK    5  A    between atoms: C_6  and  C_7
REMARK    6  A    between atoms: C_13  and  O_15
REMARK    7  A    between atoms: O_15  and  C_16
REMARK    8  A    between atoms: C_20  and  C_21
REMARK    9  A    between atoms: C_21  and  O_23
REMARK                            x       y       z     vdW  Elec       q    Type
REMARK                         _______ _______ _______ _____ _____    ______ ____
ROOT
ATOM      1  C   UNL     1       4.132   2.416  20.640  0.00  0.00    +0.000 C 
ATOM      2  C   UNL     1       2.914   2.423  19.715  0.00  0.00    +0.000 C 
ENDROOT
BRANCH   2   3
ATOM      3  C   UNL     1       2.010   3.601  20.047  0.00  0.00    +0.000 C 
ATOM      4  O   UNL     1       0.786   3.544  19.984  0.00  0.00    +0.000 OA
ATOM      5  N   UNL     1       2.660   4.753  20.436  0.00  0.00    +0.000 N 
ATOM      6  H   UNL     1       3.661   4.757  20.576  0.00  0.00    +0.000 HD
BRANCH   5   7
ATOM      7  C   UNL     1       1.908   5.903  20.892  0.00  0.00    +0.000 C 
BRANCH   7   8
ATOM      8  C   UNL     1       1.974   7.035  19.903  0.00  0.00    +0.000 A 
ATOM      9  C   UNL     1       1.342   8.258  20.174  0.00  0.00    +0.000 A 
ATOM     10  C   UNL     1       1.396   9.301  19.249  0.00  0.00    +0.000 A 
ATOM     11  C   UNL     1       2.076   9.134  18.044  0.00  0.00    +0.000 A 
ATOM     12  C   UNL     1       2.709   7.924  17.766  0.00  0.00    +0.000 A 
ATOM     13  C   UNL     1       2.656   6.878  18.689  0.00  0.00    +0.000 A 
ENDBRANCH   7   8
ENDBRANCH   5   7
ENDBRANCH   2   3
BRANCH   2  14
ATOM     14  C   UNL     1       3.383   2.462  18.275  0.00  0.00    +0.000 C 
ATOM     15  O   UNL     1       3.580   1.470  17.581  0.00  0.00    +0.000 OA
BRANCH  14  16
ATOM     16  O   UNL     1       3.487   3.779  17.833  0.00  0.00    +0.000 OA
BRANCH  16  17
ATOM     17  C   UNL     1       4.770   4.289  17.531  0.00  0.00    +0.000 A 
ATOM     18  C   UNL     1       5.076   4.342  16.170  0.00  0.00    +0.000 A 
ATOM     19  C   UNL     1       6.259   4.950  15.749  0.00  0.00    +0.000 A 
ATOM     20  C   UNL     1       7.121   5.515  16.688  0.00  0.00    +0.000 A 
ATOM     21  C   UNL     1       6.816   5.451  18.053  0.00  0.00    +0.000 A 
ATOM     22  C   UNL     1       5.654   4.804  18.478  0.00  0.00    +0.000 A 
BRANCH  21  23
ATOM     23  C   UNL     1       7.761   6.068  19.019  0.00  0.00    +0.000 C 
ATOM     24  O   UNL     1       8.416   7.059  18.750  0.00  0.00    +0.000 OA
BRANCH  23  25
ATOM     25  O   UNL     1       7.799   5.470  20.229  0.00  0.00    +0.000 OA
ATOM     26  H   UNL     1       8.097   4.542  20.238  0.00  0.00    +0.000 HD
ENDBRANCH  23  25
ENDBRANCH  21  23
ENDBRANCH  16  17
ENDBRANCH  14  16
ENDBRANCH   2  14
TORSDOF 8
ENDMDL
MODEL 5
REMARK VINA RESULT:      -7.9      3.375      6.088
REMARK  Name = 
REMARK  9 active torsions:
REMARK  status: ('A' for Active; 'I' for Inactive)
REMARK    1  A    between atoms: C_1  and  C_2
REMARK    2  A    between atoms: C_2  and  C_3
REMARK    3  A    between atoms: C_2  and  C_13
REMARK    4  A    between atoms: N_5  and  C_6
REMARK    5  A    between atoms: C_6  and  C_7
REMARK    6  A    between atoms: C_13  and  O_15
REMARK    7  A    between atoms: O_15  and  C_16
REMARK    8  A    between atoms: C_20  and  C_21
REMARK    9  A    between atoms: C_21  and  O_23
REMARK                            x       y       z     vdW  Elec       q    Type
REMARK                         _______ _______ _______ _____ _____    ______ ____
ROOT
ATOM      1  C   UNL     1       7.180   5.356  16.878  0.00  0.00    +0.000 C 
ATOM      2  C   UNL     1       5.685   5.031  16.883  0.00  0.00    +0.000 C 
ENDROOT
BRANCH   2   3
ATOM      3  C   UNL     1       5.393   3.918  17.878  0.00  0.00    +0.000 C 
ATOM      4  O   UNL     1       5.908   3.863  18.990  0.00  0.00    +0.000 OA
ATOM      5  N   UNL     1       4.496   2.964  17.450  0.00  0.00    +0.000 N 
ATOM      6  H   UNL     1       4.009   3.072  16.570  0.00  0.00    +0.000 HD
BRANCH   5   7
ATOM      7  C   UNL     1       4.047   1.922  18.348  0.00  0.00    +0.000 C 
BRANCH   7   8
ATOM      8  C   UNL     1       2.965   2.415  19.270  0.00  0.00    +0.000 A 
ATOM      9  C   UNL     1       1.684   2.707  18.778  0.00  0.00    +0.000 A 
ATOM     10  C   UNL     1       0.687   3.175  19.634  0.00  0.00    +0.000 A 
ATOM     11  C   UNL     1       0.958   3.360  20.988  0.00  0.00    +0.000 A 
ATOM     12  C   UNL     1       2.226   3.070  21.489  0.00  0.00    +0.000 A 
ATOM     13  C   UNL     1       3.226   2.603  20.635  0.00  0.00    +0.000 A 
ENDBRANCH   7   8
ENDBRANCH   5   7
ENDBRANCH   2   3
BRANCH   2  14
ATOM     14  C   UNL     1       4.904   6.290  17.202  0.00  0.00    +0.000 C 
ATOM     15  O   UNL     1       5.392   7.413  17.266  0.00  0.00    +0.000 OA
BRANCH  14  16
ATOM     16  O   UNL     1       3.549   5.999  17.338  0.00  0.00    +0.000 OA
BRANCH  16  17
ATOM     17  C   UNL     1       2.770   6.808  18.195  0.00  0.00    +0.000 A 
ATOM     18  C   UNL     1       2.612   6.312  19.490  0.00  0.00    +0.000 A 
ATOM     19  C   UNL     1       1.977   7.090  20.458  0.00  0.00    +0.000 A 
ATOM     20  C   UNL     1       1.516   8.366  20.131  0.00  0.00    +0.000 A 
ATOM     21  C   UNL     1       1.668   8.856  18.829  0.00  0.00    +0.000 A 
ATOM     22  C   UNL     1       2.264   8.060  17.849  0.00  0.00    +0.000 A 
BRANCH  21  23
ATOM     23  C   UNL     1       1.165  10.221  18.524  0.00  0.00    +0.000 C 
ATOM     24  O   UNL     1       0.110  10.641  18.963  0.00  0.00    +0.000 OA
BRANCH  23  25
ATOM     25  O   UNL     1       1.993  10.969  17.763  0.00  0.00    +0.000 OA
ATOM     26  H   UNL     1       1.913  10.848  16.798  0.00  0.00    +0.000 HD
ENDBRANCH  23  25
ENDBRANCH  21  23
ENDBRANCH  16  17
ENDBRANCH  14  16
ENDBRANCH   2  14
TORSDOF 8
ENDMDL
MODEL 6
REMARK VINA RESULT:      -7.9      3.296      5.967
REMARK  Name = 
REMARK  9 active torsions:
REMARK  status: ('A' for Active; 'I' for Inactive)
REMARK    1  A    between atoms: C_1  and  C_2
REMARK    2  A    between atoms: C_2  and  C_3
REMARK    3  A    between atoms: C_2  and  C_13
REMARK    4  A    between atoms: N_5  and  C_6
REMARK    5  A    between atoms: C_6  and  C_7
REMARK    6  A    between atoms: C_13  and  O_15
REMARK    7  A    between atoms: O_15  and  C_16
REMARK    8  A    between atoms: C_20  and  C_21
REMARK    9  A    between atoms: C_21  and  O_23
REMARK                            x       y       z     vdW  Elec       q    Type
REMARK                         _______ _______ _______ _____ _____    ______ ____
ROOT
ATOM      1  C   UNL     1       3.490   1.909  19.583  0.00  0.00    +0.000 C 
ATOM      2  C   UNL     1       2.309   2.752  19.100  0.00  0.00    +0.000 C 
ENDROOT
BRANCH   2   3
ATOM      3  C   UNL     1       2.052   3.898  20.067  0.00  0.00    +0.000 C 
ATOM      4  O   UNL     1       1.589   3.733  21.191  0.00  0.00    +0.000 OA
ATOM      5  N   UNL     1       2.381   5.151  19.598  0.00  0.00    +0.000 N 
ATOM      6  H   UNL     1       2.849   5.262  18.709  0.00  0.00    +0.000 HD
BRANCH   5   7
ATOM      7  C   UNL     1       2.295   6.306  20.466  0.00  0.00    +0.000 C 
BRANCH   7   8
ATOM      8  C   UNL     1       2.018   7.564  19.688  0.00  0.00    +0.000 A 
ATOM      9  C   UNL     1       1.255   8.599  20.249  0.00  0.00    +0.000 A 
ATOM     10  C   UNL     1       0.991   9.759  19.520  0.00  0.00    +0.000 A 
ATOM     11  C   UNL     1       1.482   9.896  18.223  0.00  0.00    +0.000 A 
ATOM     12  C   UNL     1       2.244   8.876  17.656  0.00  0.00    +0.000 A 
ATOM     13  C   UNL     1       2.509   7.714  18.383  0.00  0.00    +0.000 A 
ENDBRANCH   7   8
ENDBRANCH   5   7
ENDBRANCH   2   3
BRANCH   2  14
ATOM     14  C   UNL     1       2.595   3.251  17.699  0.00  0.00    +0.000 C 
ATOM     15  O   UNL     1       1.776   3.815  16.980  0.00  0.00    +0.000 OA
BRANCH  14  16
ATOM     16  O   UNL     1       3.934   3.045  17.373  0.00  0.00    +0.000 OA
BRANCH  16  17
ATOM     17  C   UNL     1       4.802   4.159  17.359  0.00  0.00    +0.000 A 
ATOM     18  C   UNL     1       4.510   5.120  16.388  0.00  0.00    +0.000 A 
ATOM     19  C   UNL     1       5.217   6.323  16.369  0.00  0.00    +0.000 A 
ATOM     20  C   UNL     1       6.201   6.565  17.328  0.00  0.00    +0.000 A 
ATOM     21  C   UNL     1       6.497   5.596  18.293  0.00  0.00    +0.000 A 
ATOM     22  C   UNL     1       5.821   4.375  18.286  0.00  0.00    +0.000 A 
BRANCH  21  23
ATOM     23  C   UNL     1       7.550   5.897  19.298  0.00  0.00    +0.000 C 
ATOM     24  O   UNL     1       7.689   5.242  20.315  0.00  0.00    +0.000 OA
BRANCH  23  25
ATOM     25  O   UNL     1       8.365   6.923  18.969  0.00  0.00    +0.000 OA
ATOM     26  H   UNL     1       9.286   6.685  18.754  0.00  0.00    +0.000 HD
ENDBRANCH  23  25
ENDBRANCH  21  23
ENDBRANCH  16  17
ENDBRANCH  14  16
ENDBRANCH   2  14
TORSDOF 8
ENDMDL
MODEL 7
REMARK VINA RESULT:      -7.9      2.919      5.574
REMARK  Name = 
REMARK  9 active torsions:
REMARK  status: ('A' for Active; 'I' for Inactive)
REMARK    1  A    between atoms: C_1  and  C_2
REMARK    2  A    between atoms: C_2  and  C_3
REMARK    3  A    between atoms: C_2  and  C_13
REMARK    4  A    between atoms: N_5  and  C_6
REMARK    5  A    between atoms: C_6  and  C_7
REMARK    6  A    between atoms: C_13  and  O_15
REMARK    7  A    between atoms: O_15  and  C_16
REMARK    8  A    between atoms: C_20  and  C_21
REMARK    9  A    between atoms: C_21  and  O_23
REMARK                            x       y       z     vdW  Elec       q    Type
REMARK                         _______ _______ _______ _____ _____    ______ ____
ROOT
ATOM      1  C   UNL     1       7.411   6.450  17.812  0.00  0.00    +0.000 C 
ATOM      2  C   UNL     1       6.592   5.203  17.478  0.00  0.00    +0.000 C 
ENDROOT
BRANCH   2   3
ATOM      3  C   UNL     1       6.189   4.483  18.756  0.00  0.00    +0.000 C 
ATOM      4  O   UNL     1       6.538   4.854  19.872  0.00  0.00    +0.000 OA
ATOM      5  N   UNL     1       5.389   3.374  18.582  0.00  0.00    +0.000 N 
ATOM      6  H   UNL     1       5.031   3.135  17.667  0.00  0.00    +0.000 HD
BRANCH   5   7
ATOM      7  C   UNL     1       4.842   2.675  19.726  0.00  0.00    +0.000 C 
BRANCH   7   8
ATOM      8  C   UNL     1       3.352   2.863  19.828  0.00  0.00    +0.000 A 
ATOM      9  C   UNL     1       2.547   2.832  18.679  0.00  0.00    +0.000 A 
ATOM     10  C   UNL     1       1.167   3.018  18.778  0.00  0.00    +0.000 A 
ATOM     11  C   UNL     1       0.578   3.242  20.020  0.00  0.00    +0.000 A 
ATOM     12  C   UNL     1       1.368   3.272  21.168  0.00  0.00    +0.000 A 
ATOM     13  C   UNL     1       2.749   3.087  21.073  0.00  0.00    +0.000 A 
ENDBRANCH   7   8
ENDBRANCH   5   7
ENDBRANCH   2   3
BRANCH   2  14
ATOM     14  C   UNL     1       5.386   5.605  16.654  0.00  0.00    +0.000 C 
ATOM     15  O   UNL     1       4.751   4.843  15.934  0.00  0.00    +0.000 OA
BRANCH  14  16
ATOM     16  O   UNL     1       5.062   6.940  16.888  0.00  0.00    +0.000 OA
BRANCH  16  17
ATOM     17  C   UNL     1       3.879   7.230  17.603  0.00  0.00    +0.000 A 
ATOM     18  C   UNL     1       3.602   6.358  18.659  0.00  0.00    +0.000 A 
ATOM     19  C   UNL     1       2.534   6.626  19.516  0.00  0.00    +0.000 A 
ATOM     20  C   UNL     1       1.759   7.770  19.324  0.00  0.00    +0.000 A 
ATOM     21  C   UNL     1       2.034   8.636  18.259  0.00  0.00    +0.000 A 
ATOM     22  C   UNL     1       3.075   8.345  17.375  0.00  0.00    +0.000 A 
BRANCH  21  23
ATOM     23  C   UNL     1       1.186   9.844  18.093  0.00  0.00    +0.000 C 
ATOM     24  O   UNL     1      -0.031   9.794  18.097  0.00  0.00    +0.000 OA
BRANCH  23  25
ATOM     25  O   UNL     1       1.871  11.003  17.983  0.00  0.00    +0.000 OA
ATOM     26  H   UNL     1       1.339  11.819  18.022  0.00  0.00    +0.000 HD
ENDBRANCH  23  25
ENDBRANCH  21  23
ENDBRANCH  16  17
ENDBRANCH  14  16
ENDBRANCH   2  14
TORSDOF 8
ENDMDL
MODEL 8
REMARK VINA RESULT:      -7.9      3.589      7.488
REMARK  Name = 
REMARK  9 active torsions:
REMARK  status: ('A' for Active; 'I' for Inactive)
REMARK    1  A    between atoms: C_1  and  C_2
REMARK    2  A    between atoms: C_2  and  C_3
REMARK    3  A    between atoms: C_2  and  C_13
REMARK    4  A    between atoms: N_5  and  C_6
REMARK    5  A    between atoms: C_6  and  C_7
REMARK    6  A    between atoms: C_13  and  O_15
REMARK    7  A    between atoms: O_15  and  C_16
REMARK    8  A    between atoms: C_20  and  C_21
REMARK    9  A    between atoms: C_21  and  O_23
REMARK                            x       y       z     vdW  Elec       q    Type
REMARK                         _______ _______ _______ _____ _____    ______ ____
ROOT
ATOM      1  C   UNL     1       8.225   5.901  19.560  0.00  0.00    +0.000 C 
ATOM      2  C   UNL     1       7.307   6.171  18.367  0.00  0.00    +0.000 C 
ENDROOT
BRANCH   2   3
ATOM      3  C   UNL     1       7.767   7.414  17.621  0.00  0.00    +0.000 C 
ATOM      4  O   UNL     1       7.915   7.448  16.404  0.00  0.00    +0.000 OA
ATOM      5  N   UNL     1       8.007   8.520  18.408  0.00  0.00    +0.000 N 
ATOM      6  H   UNL     1       7.790   8.506  19.396  0.00  0.00    +0.000 HD
BRANCH   5   7
ATOM      7  C   UNL     1       8.333   9.795  17.805  0.00  0.00    +0.000 C 
BRANCH   7   8
ATOM      8  C   UNL     1       9.363  10.540  18.610  0.00  0.00    +0.000 A 
ATOM      9  C   UNL     1       9.219  10.682  19.998  0.00  0.00    +0.000 A 
ATOM     10  C   UNL     1      10.171  11.384  20.739  0.00  0.00    +0.000 A 
ATOM     11  C   UNL     1      11.271  11.955  20.103  0.00  0.00    +0.000 A 
ATOM     12  C   UNL     1      11.425  11.818  18.725  0.00  0.00    +0.000 A 
ATOM     13  C   UNL     1      10.475  11.117  17.980  0.00  0.00    +0.000 A 
ENDBRANCH   7   8
ENDBRANCH   5   7
ENDBRANCH   2   3
BRANCH   2  14
ATOM     14  C   UNL     1       7.287   4.951  17.469  0.00  0.00    +0.000 C 
ATOM     15  O   UNL     1       8.129   4.059  17.488  0.00  0.00    +0.000 OA
BRANCH  14  16
ATOM     16  O   UNL     1       6.142   4.951  16.674  0.00  0.00    +0.000 OA
BRANCH  16  17
ATOM     17  C   UNL     1       4.885   4.824  17.304  0.00  0.00    +0.000 A 
ATOM     18  C   UNL     1       4.207   6.027  17.511  0.00  0.00    +0.000 A 
ATOM     19  C   UNL     1       2.901   6.011  18.002  0.00  0.00    +0.000 A 
ATOM     20  C   UNL     1       2.275   4.793  18.269  0.00  0.00    +0.000 A 
ATOM     21  C   UNL     1       2.961   3.590  18.069  0.00  0.00    +0.000 A 
ATOM     22  C   UNL     1       4.283   3.607  17.619  0.00  0.00    +0.000 A 
BRANCH  21  23
ATOM     23  C   UNL     1       2.255   2.316  18.362  0.00  0.00    +0.000 C 
ATOM     24  O   UNL     1       1.051   2.261  18.535  0.00  0.00    +0.000 OA
BRANCH  23  25
ATOM     25  O   UNL     1       3.048   1.223  18.376  0.00  0.00    +0.000 OA
ATOM     26  H   UNL     1       2.793   0.517  18.999  0.00  0.00    +0.000 HD
ENDBRANCH  23  25
ENDBRANCH  21  23
ENDBRANCH  16  17
ENDBRANCH  14  16
ENDBRANCH   2  14
TORSDOF 8
ENDMDL
MODEL 9
REMARK VINA RESULT:      -7.9      3.264      5.206
REMARK  Name = 
REMARK  9 active torsions:
REMARK  status: ('A' for Active; 'I' for Inactive)
REMARK    1  A    between atoms: C_1  and  C_2
REMARK    2  A    between atoms: C_2  and  C_3
REMARK    3  A    between atoms: C_2  and  C_13
REMARK    4  A    between atoms: N_5  and  C_6
REMARK    5  A    between atoms: C_6  and  C_7
REMARK    6  A    between atoms: C_13  and  O_15
REMARK    7  A    between atoms: O_15  and  C_16
REMARK    8  A    between atoms: C_20  and  C_21
REMARK    9  A    between atoms: C_21  and  O_23
REMARK                            x       y       z     vdW  Elec       q    Type
REMARK                         _______ _______ _______ _____ _____    ______ ____
ROOT
ATOM      1  C   UNL     1       2.714   2.231  21.596  0.00  0.00    +0.000 C 
ATOM      2  C   UNL     1       2.469   2.914  20.250  0.00  0.00    +0.000 C 
ENDROOT
BRANCH   2   3
ATOM      3  C   UNL     1       1.704   4.213  20.452  0.00  0.00    +0.000 C 
ATOM      4  O   UNL     1       0.485   4.297  20.339  0.00  0.00    +0.000 OA
ATOM      5  N   UNL     1       2.475   5.307  20.783  0.00  0.00    +0.000 N 
ATOM      6  H   UNL     1       3.464   5.204  20.966  0.00  0.00    +0.000 HD
BRANCH   5   7
ATOM      7  C   UNL     1       1.853   6.570  21.118  0.00  0.00    +0.000 C 
BRANCH   7   8
ATOM      8  C   UNL     1       1.896   7.532  19.961  0.00  0.00    +0.000 A 
ATOM      9  C   UNL     1       1.266   8.783  20.048  0.00  0.00    +0.000 A 
ATOM     10  C   UNL     1       1.299   9.667  18.969  0.00  0.00    +0.000 A 
ATOM     11  C   UNL     1       1.955   9.312  17.793  0.00  0.00    +0.000 A 
ATOM     12  C   UNL     1       2.587   8.073  17.696  0.00  0.00    +0.000 A 
ATOM     13  C   UNL     1       2.555   7.186  18.774  0.00  0.00    +0.000 A 
ENDBRANCH   7   8
ENDBRANCH   5   7
ENDBRANCH   2   3
BRANCH   2  14
ATOM     14  C   UNL     1       3.797   3.145  19.560  0.00  0.00    +0.000 C 
ATOM     15  O   UNL     1       4.878   2.743  19.979  0.00  0.00    +0.000 OA
BRANCH  14  16
ATOM     16  O   UNL     1       3.608   3.811  18.351  0.00  0.00    +0.000 OA
BRANCH  16  17
ATOM     17  C   UNL     1       4.704   4.496  17.781  0.00  0.00    +0.000 A 
ATOM     18  C   UNL     1       5.407   5.319  18.664  0.00  0.00    +0.000 A 
ATOM     19  C   UNL     1       6.585   5.938  18.246  0.00  0.00    +0.000 A 
ATOM     20  C   UNL     1       7.063   5.719  16.954  0.00  0.00    +0.000 A 
ATOM     21  C   UNL     1       6.351   4.901  16.068  0.00  0.00    +0.000 A 
ATOM     22  C   UNL     1       5.149   4.318  16.473  0.00  0.00    +0.000 A 
BRANCH  21  23
ATOM     23  C   UNL     1       6.897   4.694  14.703  0.00  0.00    +0.000 C 
ATOM     24  O   UNL     1       7.734   5.431  14.214  0.00  0.00    +0.000 OA
BRANCH  23  25
ATOM     25  O   UNL     1       6.426   3.599  14.068  0.00  0.00    +0.000 OA
ATOM     26  H   UNL     1       5.923   3.762  13.249  0.00  0.00    +0.000 HD
ENDBRANCH  23  25
ENDBRANCH  21  23
ENDBRANCH  16  17
ENDBRANCH  14  16
ENDBRANCH   2  14
TORSDOF 8
ENDMDL
