MODEL 1
REMARK VINA RESULT:      -7.7      0.000      0.000
REMARK  Name = 
REMARK  4 active torsions:
REMARK  status: ('A' for Active; 'I' for Inactive)
REMARK    1  A    between atoms: C_2  and  CA_3
REMARK    2  A    between atoms: C_11  and  N_12
REMARK    3  A    between atoms: N_12  and  C_17
REMARK    4  A    between atoms: C_13  and  C_15
REMARK                            x       y       z     vdW  Elec       q    Type
REMARK                         _______ _______ _______ _____ _____    ______ ____
ROOT
ATOM      1  CA  UNL     1       2.463   5.194  20.632  0.00  0.00    +0.000 A 
ATOM      2  N   UNL     1       1.690   6.198  21.173  0.00  0.00    +0.000 N 
ATOM      3  C   UNL     1       1.649   7.292  20.353  0.00  0.00    +0.000 A 
ATOM      4  C   UNL     1       1.024   8.528  20.553  0.00  0.00    +0.000 A 
ATOM      5  C   UNL     1       1.111   9.467  19.526  0.00  0.00    +0.000 A 
ATOM      6  C   UNL     1       1.792   9.173  18.347  0.00  0.00    +0.000 A 
ATOM      7  C   UNL     1       2.428   7.933  18.175  0.00  0.00    +0.000 A 
ATOM      8  C   UNL     1       2.374   6.968  19.208  0.00  0.00    +0.000 A 
ATOM      9  C   UNL     1       2.901   5.630  19.385  0.00  0.00    +0.000 A 
ATOM     10  H   UNL     1       1.258   6.137  22.087  0.00  0.00    +0.000 HD
ENDROOT
BRANCH   9  11
ATOM     11  N   UNL     1       3.735   4.933  18.480  0.00  0.00    +0.000 N 
ATOM     12  C   UNL     1       3.336   3.744  17.848  0.00  0.00    +0.000 C 
ATOM     13  O   UNL     1       4.125   2.840  17.538  0.00  0.00    +0.000 OA
BRANCH  11  14
ATOM     14  C   UNL     1       5.080   5.423  18.286  0.00  0.00    +0.000 A 
ATOM     15  C   UNL     1       6.062   5.207  19.273  0.00  0.00    +0.000 A 
ATOM     16  C   UNL     1       7.354   5.727  19.153  0.00  0.00    +0.000 A 
ATOM     17  C   UNL     1       7.693   6.481  18.039  0.00  0.00    +0.000 A 
ATOM     18  C   UNL     1       6.749   6.690  17.036  0.00  0.00    +0.000 A 
ATOM     19  C   UNL     1       5.458   6.156  17.150  0.00  0.00    +0.000 A 
ENDBRANCH  11  14
BRANCH  12  20
ATOM     20  C   UNL     1       1.889   3.642  17.415  0.00  0.00    +0.000 C 
ATOM     21 CL   UNL     1       0.985   2.609  18.530  0.00  0.00    +0.000 Cl
ENDBRANCH  12  20
ENDBRANCH   9  11
BRANCH   1  23
ATOM     22  O   UNL     1       1.830   3.369  21.964  0.00  0.00    +0.000 OA
ATOM     23  C   UNL     1       2.723   4.016  21.425  0.00  0.00    +0.000 C 
ENDBRANCH   1  23
TORSDOF 4
ENDMDL
MODEL 2
REMARK VINA RESULT:      -7.7      0.303      1.069
REMARK  Name = 
REMARK  4 active torsions:
REMARK  status: ('A' for Active; 'I' for Inactive)
REMARK    1  A    between atoms: C_2  and  CA_3
REMARK    2  A    between atoms: C_11  and  N_12
REMARK    3  A    between atoms: N_12  and  C_17
REMARK    4  A    between atoms: C_13  and  C_15
REMARK                            x       y       z     vdW  Elec       q    Type
REMARK                         _______ _______ _______ _____ _____    ______ ____
ROOT
ATOM      1  CA  UNL     1       2.336   5.527  20.557  0.00  0.00    +0.000 A 
ATOM      2  N   UNL     1       1.561   6.575  21.005  0.00  0.00    +0.000 N 
ATOM      3  C   UNL     1       1.600   7.630  20.137  0.00  0.00    +0.000 A 
ATOM      4  C   UNL     1       0.999   8.890  20.242  0.00  0.00    +0.000 A 
ATOM      5  C   UNL     1       1.174   9.778  19.182  0.00  0.00    +0.000 A 
ATOM      6  C   UNL     1       1.916   9.413  18.061  0.00  0.00    +0.000 A 
ATOM      7  C   UNL     1       2.526   8.151  17.984  0.00  0.00    +0.000 A 
ATOM      8  C   UNL     1       2.383   7.236  19.053  0.00  0.00    +0.000 A 
ATOM      9  C   UNL     1       2.860   5.894  19.321  0.00  0.00    +0.000 A 
ATOM     10  H   UNL     1       1.074   6.567  21.892  0.00  0.00    +0.000 HD
ENDROOT
BRANCH   9  11
ATOM     11  N   UNL     1       3.728   5.136  18.501  0.00  0.00    +0.000 N 
ATOM     12  C   UNL     1       3.341   3.918  17.916  0.00  0.00    +0.000 C 
ATOM     13  O   UNL     1       4.129   2.987  17.698  0.00  0.00    +0.000 OA
BRANCH  11  14
ATOM     14  C   UNL     1       5.089   5.594  18.349  0.00  0.00    +0.000 A 
ATOM     15  C   UNL     1       5.478   6.285  17.184  0.00  0.00    +0.000 A 
ATOM     16  C   UNL     1       6.802   6.680  16.970  0.00  0.00    +0.000 A 
ATOM     17  C   UNL     1       7.771   6.390  17.920  0.00  0.00    +0.000 A 
ATOM     18  C   UNL     1       7.409   5.728  19.092  0.00  0.00    +0.000 A 
ATOM     19  C   UNL     1       6.079   5.345  19.313  0.00  0.00    +0.000 A 
ENDBRANCH  11  14
BRANCH  12  20
ATOM     20  C   UNL     1       1.916   3.812  17.416  0.00  0.00    +0.000 C 
ATOM     21 CL   UNL     1       0.980   2.725  18.449  0.00  0.00    +0.000 Cl
ENDBRANCH  12  20
ENDBRANCH   9  11
BRANCH   1  23
ATOM     22  O   UNL     1       1.642   3.534  21.582  0.00  0.00    +0.000 OA
ATOM     23  C   UNL     1       2.515   4.380  21.416  0.00  0.00    +0.000 C 
ENDBRANCH   1  23
TORSDOF 4
ENDMDL
MODEL 3
REMARK VINA RESULT:      -7.3      1.861      4.800
REMARK  Name = 
REMARK  4 active torsions:
REMARK  status: ('A' for Active; 'I' for Inactive)
REMARK    1  A    between atoms: C_2  and  CA_3
REMARK    2  A    between atoms: C_11  and  N_12
REMARK    3  A    between atoms: N_12  and  C_17
REMARK    4  A    between atoms: C_13  and  C_15
REMARK                            x       y       z     vdW  Elec       q    Type
REMARK                         _______ _______ _______ _____ _____    ______ ____
ROOT
ATOM      1  CA  UNL     1       5.035   3.890  19.051  0.00  0.00    +0.000 A 
ATOM      2  N   UNL     1       6.313   3.818  18.542  0.00  0.00    +0.000 N 
ATOM      3  C   UNL     1       6.378   4.349  17.284  0.00  0.00    +0.000 A 
ATOM      4  C   UNL     1       7.467   4.425  16.407  0.00  0.00    +0.000 A 
ATOM      5  C   UNL     1       7.264   5.059  15.182  0.00  0.00    +0.000 A 
ATOM      6  C   UNL     1       6.022   5.598  14.855  0.00  0.00    +0.000 A 
ATOM      7  C   UNL     1       4.938   5.495  15.741  0.00  0.00    +0.000 A 
ATOM      8  C   UNL     1       5.108   4.840  16.983  0.00  0.00    +0.000 A 
ATOM      9  C   UNL     1       4.245   4.543  18.109  0.00  0.00    +0.000 A 
ATOM     10  H   UNL     1       7.083   3.377  19.030  0.00  0.00    +0.000 HD
ENDROOT
BRANCH   9  11
ATOM     11  N   UNL     1       2.862   4.823  18.199  0.00  0.00    +0.000 N 
ATOM     12  C   UNL     1       1.883   3.968  17.668  0.00  0.00    +0.000 C 
ATOM     13  O   UNL     1       0.801   4.369  17.216  0.00  0.00    +0.000 OA
BRANCH  11  14
ATOM     14  C   UNL     1       2.464   6.088  18.772  0.00  0.00    +0.000 A 
ATOM     15  C   UNL     1       2.031   6.153  20.112  0.00  0.00    +0.000 A 
ATOM     16  C   UNL     1       1.570   7.344  20.679  0.00  0.00    +0.000 A 
ATOM     17  C   UNL     1       1.529   8.502  19.915  0.00  0.00    +0.000 A 
ATOM     18  C   UNL     1       1.972   8.471  18.595  0.00  0.00    +0.000 A 
ATOM     19  C   UNL     1       2.448   7.280  18.030  0.00  0.00    +0.000 A 
ENDBRANCH  11  14
BRANCH  12  20
ATOM     20  C   UNL     1       2.127   2.479  17.787  0.00  0.00    +0.000 C 
ATOM     21 CL   UNL     1       1.554   1.884  19.350  0.00  0.00    +0.000 Cl
ENDBRANCH  12  20
ENDBRANCH   9  11
BRANCH   1  23
ATOM     22  O   UNL     1       4.810   2.041  20.478  0.00  0.00    +0.000 OA
ATOM     23  C   UNL     1       4.757   3.257  20.319  0.00  0.00    +0.000 C 
ENDBRANCH   1  23
TORSDOF 4
ENDMDL
MODEL 4
REMARK VINA RESULT:      -7.3      1.867      4.844
REMARK  Name = 
REMARK  4 active torsions:
REMARK  status: ('A' for Active; 'I' for Inactive)
REMARK    1  A    between atoms: C_2  and  CA_3
REMARK    2  A    between atoms: C_11  and  N_12
REMARK    3  A    between atoms: N_12  and  C_17
REMARK    4  A    between atoms: C_13  and  C_15
REMARK                            x       y       z     vdW  Elec       q    Type
REMARK                         _______ _______ _______ _____ _____    ______ ____
ROOT
ATOM      1  CA  UNL     1       4.934   3.828  19.110  0.00  0.00    +0.000 A 
ATOM      2  N   UNL     1       6.229   3.792  18.640  0.00  0.00    +0.000 N 
ATOM      3  C   UNL     1       6.329   4.378  17.409  0.00  0.00    +0.000 A 
ATOM      4  C   UNL     1       7.445   4.504  16.573  0.00  0.00    +0.000 A 
ATOM      5  C   UNL     1       7.275   5.188  15.370  0.00  0.00    +0.000 A 
ATOM      6  C   UNL     1       6.038   5.728  15.026  0.00  0.00    +0.000 A 
ATOM      7  C   UNL     1       4.927   5.574  15.871  0.00  0.00    +0.000 A 
ATOM      8  C   UNL     1       5.064   4.867  17.088  0.00  0.00    +0.000 A 
ATOM      9  C   UNL     1       4.168   4.513  18.171  0.00  0.00    +0.000 A 
ATOM     10  H   UNL     1       6.988   3.338  19.133  0.00  0.00    +0.000 HD
ENDROOT
BRANCH   9  11
ATOM     11  N   UNL     1       2.779   4.774  18.226  0.00  0.00    +0.000 N 
ATOM     12  C   UNL     1       1.826   3.913  17.659  0.00  0.00    +0.000 C 
ATOM     13  O   UNL     1       0.752   4.306  17.183  0.00  0.00    +0.000 OA
BRANCH  11  14
ATOM     14  C   UNL     1       2.349   6.026  18.804  0.00  0.00    +0.000 A 
ATOM     15  C   UNL     1       2.355   7.204  18.029  0.00  0.00    +0.000 A 
ATOM     16  C   UNL     1       2.015   8.445  18.573  0.00  0.00    +0.000 A 
ATOM     17  C   UNL     1       1.662   8.538  19.912  0.00  0.00    +0.000 A 
ATOM     18  C   UNL     1       1.625   7.386  20.696  0.00  0.00    +0.000 A 
ATOM     19  C   UNL     1       1.953   6.140  20.146  0.00  0.00    +0.000 A 
ENDBRANCH  11  14
BRANCH  12  20
ATOM     20  C   UNL     1       2.086   2.426  17.766  0.00  0.00    +0.000 C 
ATOM     21 CL   UNL     1       1.564   1.822  19.343  0.00  0.00    +0.000 Cl
ENDBRANCH  12  20
ENDBRANCH   9  11
BRANCH   1  23
ATOM     22  O   UNL     1       4.973   1.981  20.556  0.00  0.00    +0.000 OA
ATOM     23  C   UNL     1       4.623   3.137  20.339  0.00  0.00    +0.000 C 
ENDBRANCH   1  23
TORSDOF 4
ENDMDL
MODEL 5
REMARK VINA RESULT:      -7.2      3.958      5.450
REMARK  Name = 
REMARK  4 active torsions:
REMARK  status: ('A' for Active; 'I' for Inactive)
REMARK    1  A    between atoms: C_2  and  CA_3
REMARK    2  A    between atoms: C_11  and  N_12
REMARK    3  A    between atoms: N_12  and  C_17
REMARK    4  A    between atoms: C_13  and  C_15
REMARK                            x       y       z     vdW  Elec       q    Type
REMARK                         _______ _______ _______ _____ _____    ______ ____
ROOT
ATOM      1  CA  UNL     1       6.238   4.232  18.117  0.00  0.00    +0.000 A 
ATOM      2  N   UNL     1       5.640   3.433  19.067  0.00  0.00    +0.000 N 
ATOM      3  C   UNL     1       4.303   3.283  18.822  0.00  0.00    +0.000 A 
ATOM      4  C   UNL     1       3.335   2.599  19.566  0.00  0.00    +0.000 A 
ATOM      5  C   UNL     1       2.035   2.575  19.064  0.00  0.00    +0.000 A 
ATOM      6  C   UNL     1       1.723   3.206  17.863  0.00  0.00    +0.000 A 
ATOM      7  C   UNL     1       2.705   3.903  17.141  0.00  0.00    +0.000 A 
ATOM      8  C   UNL     1       4.029   3.962  17.636  0.00  0.00    +0.000 A 
ATOM      9  C   UNL     1       5.262   4.575  17.185  0.00  0.00    +0.000 A 
ATOM     10  H   UNL     1       6.132   3.056  19.867  0.00  0.00    +0.000 HD
ENDROOT
BRANCH   9  11
ATOM     11  N   UNL     1       5.419   5.397  16.046  0.00  0.00    +0.000 N 
ATOM     12  C   UNL     1       5.111   6.768  16.056  0.00  0.00    +0.000 C 
ATOM     13  O   UNL     1       4.691   7.379  15.063  0.00  0.00    +0.000 OA
BRANCH  11  14
ATOM     14  C   UNL     1       5.818   4.770  14.807  0.00  0.00    +0.000 A 
ATOM     15  C   UNL     1       7.103   5.002  14.277  0.00  0.00    +0.000 A 
ATOM     16  C   UNL     1       7.499   4.471  13.047  0.00  0.00    +0.000 A 
ATOM     17  C   UNL     1       6.613   3.694  12.314  0.00  0.00    +0.000 A 
ATOM     18  C   UNL     1       5.344   3.429  12.825  0.00  0.00    +0.000 A 
ATOM     19  C   UNL     1       4.953   3.950  14.065  0.00  0.00    +0.000 A 
ENDBRANCH  11  14
BRANCH  12  20
ATOM     20  C   UNL     1       5.441   7.542  17.314  0.00  0.00    +0.000 C 
ATOM     21 CL   UNL     1       7.170   7.906  17.377  0.00  0.00    +0.000 Cl
ENDBRANCH  12  20
ENDBRANCH   9  11
BRANCH   1  23
ATOM     22  O   UNL     1       8.537   4.066  17.678  0.00  0.00    +0.000 OA
ATOM     23  C   UNL     1       7.622   4.603  18.295  0.00  0.00    +0.000 C 
ENDBRANCH   1  23
TORSDOF 4
ENDMDL
MODEL 6
REMARK VINA RESULT:      -7.1      2.303      4.749
REMARK  Name = 
REMARK  4 active torsions:
REMARK  status: ('A' for Active; 'I' for Inactive)
REMARK    1  A    between atoms: C_2  and  CA_3
REMARK    2  A    between atoms: C_11  and  N_12
REMARK    3  A    between atoms: N_12  and  C_17
REMARK    4  A    between atoms: C_13  and  C_15
REMARK                            x       y       z     vdW  Elec       q    Type
REMARK                         _______ _______ _______ _____ _____    ______ ____
ROOT
ATOM      1  CA  UNL     1       4.184   6.634  17.079  0.00  0.00    +0.000 A 
ATOM      2  N   UNL     1       3.632   7.872  16.833  0.00  0.00    +0.000 N 
ATOM      3  C   UNL     1       2.774   8.242  17.832  0.00  0.00    +0.000 A 
ATOM      4  C   UNL     1       1.980   9.389  17.941  0.00  0.00    +0.000 A 
ATOM      5  C   UNL     1       1.214   9.535  19.096  0.00  0.00    +0.000 A 
ATOM      6  C   UNL     1       1.251   8.572  20.102  0.00  0.00    +0.000 A 
ATOM      7  C   UNL     1       2.040   7.419  19.964  0.00  0.00    +0.000 A 
ATOM      8  C   UNL     1       2.812   7.234  18.794  0.00  0.00    +0.000 A 
ATOM      9  C   UNL     1       3.708   6.202  18.313  0.00  0.00    +0.000 A 
ATOM     10  H   UNL     1       3.809   8.403  15.990  0.00  0.00    +0.000 HD
ENDROOT
BRANCH   9  11
ATOM     11  N   UNL     1       3.996   4.977  18.960  0.00  0.00    +0.000 N 
ATOM     12  C   UNL     1       5.308   4.510  19.141  0.00  0.00    +0.000 C 
ATOM     13  O   UNL     1       5.606   3.307  19.156  0.00  0.00    +0.000 OA
BRANCH  11  14
ATOM     14  C   UNL     1       2.885   4.142  19.353  0.00  0.00    +0.000 A 
ATOM     15  C   UNL     1       2.080   3.526  18.374  0.00  0.00    +0.000 A 
ATOM     16  C   UNL     1       0.955   2.770  18.715  0.00  0.00    +0.000 A 
ATOM     17  C   UNL     1       0.606   2.616  20.049  0.00  0.00    +0.000 A 
ATOM     18  C   UNL     1       1.397   3.195  21.039  0.00  0.00    +0.000 A 
ATOM     19  C   UNL     1       2.534   3.940  20.698  0.00  0.00    +0.000 A 
ENDBRANCH  11  14
BRANCH  12  20
ATOM     20  C   UNL     1       6.371   5.538  19.464  0.00  0.00    +0.000 C 
ATOM     21 CL   UNL     1       7.814   5.262  18.482  0.00  0.00    +0.000 Cl
ENDBRANCH  12  20
ENDBRANCH   9  11
BRANCH   1  23
ATOM     22  O   UNL     1       6.150   6.421  15.816  0.00  0.00    +0.000 OA
ATOM     23  C   UNL     1       5.013   6.031  16.062  0.00  0.00    +0.000 C 
ENDBRANCH   1  23
TORSDOF 4
ENDMDL
MODEL 7
REMARK VINA RESULT:      -7.1      2.971      5.903
REMARK  Name = 
REMARK  4 active torsions:
REMARK  status: ('A' for Active; 'I' for Inactive)
REMARK    1  A    between atoms: C_2  and  CA_3
REMARK    2  A    between atoms: C_11  and  N_12
REMARK    3  A    between atoms: N_12  and  C_17
REMARK    4  A    between atoms: C_13  and  C_15
REMARK                            x       y       z     vdW  Elec       q    Type
REMARK                         _______ _______ _______ _____ _____    ______ ____
ROOT
ATOM      1  CA  UNL     1       6.750   5.695  17.579  0.00  0.00    +0.000 A 
ATOM      2  N   UNL     1       7.625   5.546  16.526  0.00  0.00    +0.000 N 
ATOM      3  C   UNL     1       6.996   5.035  15.424  0.00  0.00    +0.000 A 
ATOM      4  C   UNL     1       7.529   4.691  14.177  0.00  0.00    +0.000 A 
ATOM      5  C   UNL     1       6.646   4.218  13.207  0.00  0.00    +0.000 A 
ATOM      6  C   UNL     1       5.285   4.103  13.478  0.00  0.00    +0.000 A 
ATOM      7  C   UNL     1       4.773   4.437  14.742  0.00  0.00    +0.000 A 
ATOM      8  C   UNL     1       5.648   4.900  15.752  0.00  0.00    +0.000 A 
ATOM      9  C   UNL     1       5.488   5.315  17.132  0.00  0.00    +0.000 A 
ATOM     10  H   UNL     1       8.615   5.745  16.592  0.00  0.00    +0.000 HD
ENDROOT
BRANCH   9  11
ATOM     11  N   UNL     1       4.287   5.289  17.879  0.00  0.00    +0.000 N 
ATOM     12  C   UNL     1       3.661   6.458  18.342  0.00  0.00    +0.000 C 
ATOM     13  O   UNL     1       3.008   6.508  19.394  0.00  0.00    +0.000 OA
BRANCH  11  14
ATOM     14  C   UNL     1       3.751   4.001  18.254  0.00  0.00    +0.000 A 
ATOM     15  C   UNL     1       4.413   3.211  19.216  0.00  0.00    +0.000 A 
ATOM     16  C   UNL     1       3.965   1.931  19.551  0.00  0.00    +0.000 A 
ATOM     17  C   UNL     1       2.841   1.408  18.927  0.00  0.00    +0.000 A 
ATOM     18  C   UNL     1       2.154   2.176  17.989  0.00  0.00    +0.000 A 
ATOM     19  C   UNL     1       2.595   3.465  17.663  0.00  0.00    +0.000 A 
ENDBRANCH  11  14
BRANCH  12  20
ATOM     20  C   UNL     1       3.688   7.666  17.431  0.00  0.00    +0.000 C 
ATOM     21 CL   UNL     1       2.216   8.623  17.634  0.00  0.00    +0.000 Cl
ENDBRANCH  12  20
ENDBRANCH   9  11
BRANCH   1  23
ATOM     22  O   UNL     1       7.135   5.424  19.878  0.00  0.00    +0.000 OA
ATOM     23  C   UNL     1       7.273   6.100  18.863  0.00  0.00    +0.000 C 
ENDBRANCH   1  23
TORSDOF 4
ENDMDL
MODEL 8
REMARK VINA RESULT:      -7.1      3.007      6.021
REMARK  Name = 
REMARK  4 active torsions:
REMARK  status: ('A' for Active; 'I' for Inactive)
REMARK    1  A    between atoms: C_2  and  CA_3
REMARK    2  A    between atoms: C_11  and  N_12
REMARK    3  A    between atoms: N_12  and  C_17
REMARK    4  A    between atoms: C_13  and  C_15
REMARK                            x       y       z     vdW  Elec       q    Type
REMARK                         _______ _______ _______ _____ _____    ______ ____
ROOT
ATOM      1  CA  UNL     1       6.783   5.748  17.440  0.00  0.00    +0.000 A 
ATOM      2  N   UNL     1       7.641   5.609  16.372  0.00  0.00    +0.000 N 
ATOM      3  C   UNL     1       7.006   5.068  15.289  0.00  0.00    +0.000 A 
ATOM      4  C   UNL     1       7.525   4.722  14.036  0.00  0.00    +0.000 A 
ATOM      5  C   UNL     1       6.636   4.214  13.089  0.00  0.00    +0.000 A 
ATOM      6  C   UNL     1       5.284   4.067  13.387  0.00  0.00    +0.000 A 
ATOM      7  C   UNL     1       4.787   4.403  14.657  0.00  0.00    +0.000 A 
ATOM      8  C   UNL     1       5.668   4.901  15.644  0.00  0.00    +0.000 A 
ATOM      9  C   UNL     1       5.523   5.330  17.021  0.00  0.00    +0.000 A 
ATOM     10  H   UNL     1       8.627   5.835  16.417  0.00  0.00    +0.000 HD
ENDROOT
BRANCH   9  11
ATOM     11  N   UNL     1       4.338   5.281  17.792  0.00  0.00    +0.000 N 
ATOM     12  C   UNL     1       3.691   6.439  18.255  0.00  0.00    +0.000 C 
ATOM     13  O   UNL     1       3.057   6.484  19.319  0.00  0.00    +0.000 OA
BRANCH  11  14
ATOM     14  C   UNL     1       3.842   3.984  18.190  0.00  0.00    +0.000 A 
ATOM     15  C   UNL     1       2.684   3.452  17.588  0.00  0.00    +0.000 A 
ATOM     16  C   UNL     1       2.135   2.235  17.998  0.00  0.00    +0.000 A 
ATOM     17  C   UNL     1       2.732   1.519  19.026  0.00  0.00    +0.000 A 
ATOM     18  C   UNL     1       3.891   2.010  19.623  0.00  0.00    +0.000 A 
ATOM     19  C   UNL     1       4.450   3.224  19.202  0.00  0.00    +0.000 A 
ENDBRANCH  11  14
BRANCH  12  20
ATOM     20  C   UNL     1       3.670   7.637  17.331  0.00  0.00    +0.000 C 
ATOM     21 CL   UNL     1       2.249   8.638  17.654  0.00  0.00    +0.000 Cl
ENDBRANCH  12  20
ENDBRANCH   9  11
BRANCH   1  23
ATOM     22  O   UNL     1       7.183   5.535  19.742  0.00  0.00    +0.000 OA
ATOM     23  C   UNL     1       7.319   6.182  18.709  0.00  0.00    +0.000 C 
ENDBRANCH   1  23
TORSDOF 4
ENDMDL
MODEL 9
REMARK VINA RESULT:      -7.0      2.292      4.658
REMARK  Name = 
REMARK  4 active torsions:
REMARK  status: ('A' for Active; 'I' for Inactive)
REMARK    1  A    between atoms: C_2  and  CA_3
REMARK    2  A    between atoms: C_11  and  N_12
REMARK    3  A    between atoms: N_12  and  C_17
REMARK    4  A    between atoms: C_13  and  C_15
REMARK                            x       y       z     vdW  Elec       q    Type
REMARK                         _______ _______ _______ _____ _____    ______ ____
ROOT
ATOM      1  CA  UNL     1       4.167   6.636  17.119  0.00  0.00    +0.000 A 
ATOM      2  N   UNL     1       3.623   7.874  16.857  0.00  0.00    +0.000 N 
ATOM      3  C   UNL     1       2.763   8.261  17.847  0.00  0.00    +0.000 A 
ATOM      4  C   UNL     1       1.975   9.414  17.939  0.00  0.00    +0.000 A 
ATOM      5  C   UNL     1       1.205   9.578  19.090  0.00  0.00    +0.000 A 
ATOM      6  C   UNL     1       1.231   8.627  20.106  0.00  0.00    +0.000 A 
ATOM      7  C   UNL     1       2.014   7.467  19.986  0.00  0.00    +0.000 A 
ATOM      8  C   UNL     1       2.790   7.264  18.821  0.00  0.00    +0.000 A 
ATOM      9  C   UNL     1       3.683   6.221  18.356  0.00  0.00    +0.000 A 
ATOM     10  H   UNL     1       3.807   8.394  16.008  0.00  0.00    +0.000 HD
ENDROOT
BRANCH   9  11
ATOM     11  N   UNL     1       3.960   5.002  19.019  0.00  0.00    +0.000 N 
ATOM     12  C   UNL     1       5.266   4.508  19.174  0.00  0.00    +0.000 C 
ATOM     13  O   UNL     1       5.537   3.299  19.204  0.00  0.00    +0.000 OA
BRANCH  11  14
ATOM     14  C   UNL     1       2.842   4.200  19.458  0.00  0.00    +0.000 A 
ATOM     15  C   UNL     1       2.603   4.010  20.834  0.00  0.00    +0.000 A 
ATOM     16  C   UNL     1       1.576   3.184  21.296  0.00  0.00    +0.000 A 
ATOM     17  C   UNL     1       0.761   2.523  20.387  0.00  0.00    +0.000 A 
ATOM     18  C   UNL     1       0.959   2.711  19.021  0.00  0.00    +0.000 A 
ATOM     19  C   UNL     1       1.981   3.551  18.558  0.00  0.00    +0.000 A 
ENDBRANCH  11  14
BRANCH  12  20
ATOM     20  C   UNL     1       6.360   5.517  19.448  0.00  0.00    +0.000 C 
ATOM     21 CL   UNL     1       7.740   5.236  18.380  0.00  0.00    +0.000 Cl
ENDBRANCH  12  20
ENDBRANCH   9  11
BRANCH   1  23
ATOM     22  O   UNL     1       6.000   6.555  15.658  0.00  0.00    +0.000 OA
ATOM     23  C   UNL     1       4.997   6.016  16.114  0.00  0.00    +0.000 C 
ENDBRANCH   1  23
TORSDOF 4
ENDMDL
