MODEL 1
REMARK VINA RESULT:      -7.5      0.000      0.000
REMARK  Name = 
REMARK  11 active torsions:
REMARK  status: ('A' for Active; 'I' for Inactive)
REMARK    1  A    between atoms: C_1  and  C_2
REMARK    2  A    between atoms: C_2  and  C_3
REMARK    3  A    between atoms: C_3  and  C_4
REMARK    4  A    between atoms: C_4  and  C_5
REMARK    5  A    between atoms: C_5  and  C_6
REMARK    6  A    between atoms: C_6  and  C_7
REMARK    7  A    between atoms: C_10  and  C_12
REMARK    8  A    between atoms: C_12  and  C_13
REMARK    9  A    between atoms: C_13  and  C_14
REMARK   10  A    between atoms: C_14  and  C_15
REMARK   11  A    between atoms: C_15  and  O_17
REMARK                            x       y       z     vdW  Elec       q    Type
REMARK                         _______ _______ _______ _____ _____    ______ ____
ROOT
ATOM      1  C   UNL     1       3.633   3.696  17.417  0.00  0.00    +0.000 A 
ATOM      2  C   UNL     1       4.786   3.653  16.659  0.00  0.00    +0.000 A 
ATOM      3  N   UNL     1       5.255   4.935  16.429  0.00  0.00    +0.000 N 
ATOM      4  C   UNL     1       6.415   5.299  15.705  0.00  0.00    +0.000 C 
ATOM      5  O   UNL     1       6.934   6.393  15.894  0.00  0.00    +0.000 OA
ATOM      6  C   UNL     1       4.378   5.823  17.060  0.00  0.00    +0.000 A 
ATOM      7  C   UNL     1       4.361   7.232  17.098  0.00  0.00    +0.000 A 
ATOM      8  C   UNL     1       3.318   7.875  17.768  0.00  0.00    +0.000 A 
ATOM      9  C   UNL     1       2.321   7.145  18.400  0.00  0.00    +0.000 A 
ATOM     10  C   UNL     1       2.338   5.748  18.363  0.00  0.00    +0.000 A 
ATOM     11  C   UNL     1       3.366   5.071  17.671  0.00  0.00    +0.000 A 
ENDROOT
BRANCH   1  12
ATOM     12  C   UNL     1       2.819   2.516  17.852  0.00  0.00    +0.000 C 
BRANCH  12  13
ATOM     13  C   UNL     1       3.535   1.653  18.893  0.00  0.00    +0.000 C 
BRANCH  13  14
ATOM     14  C   UNL     1       4.024   2.493  20.073  0.00  0.00    +0.000 C 
BRANCH  14  15
ATOM     15  C   UNL     1       2.970   2.545  21.178  0.00  0.00    +0.000 C 
BRANCH  15  17
ATOM     16  C   UNL     1       0.921   3.923  20.702  0.00  0.00    +0.000 C 
ATOM     17  C   UNL     1       2.327   3.927  21.282  0.00  0.00    +0.000 C 
ENDBRANCH  15  17
ENDBRANCH  14  15
ENDBRANCH  13  14
ENDBRANCH  12  13
ENDBRANCH   1  12
BRANCH   4  18
ATOM     18  C   UNL     1       6.900   4.313  14.669  0.00  0.00    +0.000 C 
BRANCH  18  19
ATOM     19  C   UNL     1       5.854   4.055  13.577  0.00  0.00    +0.000 C 
BRANCH  19  20
ATOM     20  C   UNL     1       6.427   3.415  12.309  0.00  0.00    +0.000 C 
BRANCH  20  21
ATOM     21  C   UNL     1       5.430   2.523  11.609  0.00  0.00    +0.000 C 
ATOM     22  O   UNL     1       4.369   2.904  11.138  0.00  0.00    +0.000 OA
BRANCH  21  23
ATOM     23  O   UNL     1       5.820   1.230  11.555  0.00  0.00    +0.000 OA
ATOM     24  H   UNL     1       5.372   0.644  12.195  0.00  0.00    +0.000 HD
ENDBRANCH  21  23
ENDBRANCH  20  21
ENDBRANCH  19  20
ENDBRANCH  18  19
ENDBRANCH   4  18
TORSDOF 10
ENDMDL
MODEL 2
REMARK VINA RESULT:      -7.4      2.828      6.457
REMARK  Name = 
REMARK  11 active torsions:
REMARK  status: ('A' for Active; 'I' for Inactive)
REMARK    1  A    between atoms: C_1  and  C_2
REMARK    2  A    between atoms: C_2  and  C_3
REMARK    3  A    between atoms: C_3  and  C_4
REMARK    4  A    between atoms: C_4  and  C_5
REMARK    5  A    between atoms: C_5  and  C_6
REMARK    6  A    between atoms: C_6  and  C_7
REMARK    7  A    between atoms: C_10  and  C_12
REMARK    8  A    between atoms: C_12  and  C_13
REMARK    9  A    between atoms: C_13  and  C_14
REMARK   10  A    between atoms: C_14  and  C_15
REMARK   11  A    between atoms: C_15  and  O_17
REMARK                            x       y       z     vdW  Elec       q    Type
REMARK                         _______ _______ _______ _____ _____    ______ ____
ROOT
ATOM      1  C   UNL     1       5.599   4.184  15.913  0.00  0.00    +0.000 A 
ATOM      2  C   UNL     1       4.252   4.258  16.205  0.00  0.00    +0.000 A 
ATOM      3  N   UNL     1       4.067   4.759  17.482  0.00  0.00    +0.000 N 
ATOM      4  C   UNL     1       2.832   4.992  18.133  0.00  0.00    +0.000 C 
ATOM      5  O   UNL     1       2.776   5.779  19.072  0.00  0.00    +0.000 OA
ATOM      6  C   UNL     1       5.332   5.014  18.021  0.00  0.00    +0.000 A 
ATOM      7  C   UNL     1       5.715   5.481  19.294  0.00  0.00    +0.000 A 
ATOM      8  C   UNL     1       7.076   5.593  19.589  0.00  0.00    +0.000 A 
ATOM      9  C   UNL     1       8.038   5.268  18.643  0.00  0.00    +0.000 A 
ATOM     10  C   UNL     1       7.658   4.807  17.379  0.00  0.00    +0.000 A 
ATOM     11  C   UNL     1       6.290   4.659  17.063  0.00  0.00    +0.000 A 
ENDROOT
BRANCH   1  12
ATOM     12  C   UNL     1       6.198   3.672  14.638  0.00  0.00    +0.000 C 
BRANCH  12  13
ATOM     13  C   UNL     1       5.340   3.988  13.411  0.00  0.00    +0.000 C 
BRANCH  13  14
ATOM     14  C   UNL     1       5.823   3.220  12.180  0.00  0.00    +0.000 C 
BRANCH  14  15
ATOM     15  C   UNL     1       4.643   2.773  11.319  0.00  0.00    +0.000 C 
BRANCH  15  17
ATOM     16  C   UNL     1       2.991   3.698   9.664  0.00  0.00    +0.000 C 
ATOM     17  C   UNL     1       3.720   3.942  10.976  0.00  0.00    +0.000 C 
ENDBRANCH  15  17
ENDBRANCH  14  15
ENDBRANCH  13  14
ENDBRANCH  12  13
ENDBRANCH   1  12
BRANCH   4  18
ATOM     18  C   UNL     1       1.655   4.174  17.659  0.00  0.00    +0.000 C 
BRANCH  18  19
ATOM     19  C   UNL     1       1.515   2.855  18.429  0.00  0.00    +0.000 C 
BRANCH  19  20
ATOM     20  C   UNL     1       2.561   2.668  19.532  0.00  0.00    +0.000 C 
BRANCH  20  21
ATOM     21  C   UNL     1       3.741   1.842  19.077  0.00  0.00    +0.000 C 
ATOM     22  O   UNL     1       3.729   1.088  18.117  0.00  0.00    +0.000 OA
BRANCH  21  23
ATOM     23  O   UNL     1       4.836   2.010  19.850  0.00  0.00    +0.000 OA
ATOM     24  H   UNL     1       4.667   1.962  20.810  0.00  0.00    +0.000 HD
ENDBRANCH  21  23
ENDBRANCH  20  21
ENDBRANCH  19  20
ENDBRANCH  18  19
ENDBRANCH   4  18
TORSDOF 10
ENDMDL
MODEL 3
REMARK VINA RESULT:      -7.3      3.476      6.764
REMARK  Name = 
REMARK  11 active torsions:
REMARK  status: ('A' for Active; 'I' for Inactive)
REMARK    1  A    between atoms: C_1  and  C_2
REMARK    2  A    between atoms: C_2  and  C_3
REMARK    3  A    between atoms: C_3  and  C_4
REMARK    4  A    between atoms: C_4  and  C_5
REMARK    5  A    between atoms: C_5  and  C_6
REMARK    6  A    between atoms: C_6  and  C_7
REMARK    7  A    between atoms: C_10  and  C_12
REMARK    8  A    between atoms: C_12  and  C_13
REMARK    9  A    between atoms: C_13  and  C_14
REMARK   10  A    between atoms: C_14  and  C_15
REMARK   11  A    between atoms: C_15  and  O_17
REMARK                            x       y       z     vdW  Elec       q    Type
REMARK                         _______ _______ _______ _____ _____    ______ ____
ROOT
ATOM      1  C   UNL     1       3.524   6.788  17.718  0.00  0.00    +0.000 A 
ATOM      2  C   UNL     1       2.821   5.637  18.016  0.00  0.00    +0.000 A 
ATOM      3  N   UNL     1       3.686   4.560  18.108  0.00  0.00    +0.000 N 
ATOM      4  C   UNL     1       3.345   3.220  18.408  0.00  0.00    +0.000 C 
ATOM      5  O   UNL     1       4.200   2.455  18.841  0.00  0.00    +0.000 OA
ATOM      6  C   UNL     1       4.978   5.036  17.865  0.00  0.00    +0.000 A 
ATOM      7  C   UNL     1       6.212   4.359  17.791  0.00  0.00    +0.000 A 
ATOM      8  C   UNL     1       7.361   5.086  17.472  0.00  0.00    +0.000 A 
ATOM      9  C   UNL     1       7.298   6.454  17.247  0.00  0.00    +0.000 A 
ATOM     10  C   UNL     1       6.075   7.126  17.323  0.00  0.00    +0.000 A 
ATOM     11  C   UNL     1       4.893   6.412  17.618  0.00  0.00    +0.000 A 
ENDROOT
BRANCH   1  12
ATOM     12  C   UNL     1       2.937   8.152  17.516  0.00  0.00    +0.000 C 
BRANCH  12  13
ATOM     13  C   UNL     1       1.922   8.527  18.598  0.00  0.00    +0.000 C 
BRANCH  13  14
ATOM     14  C   UNL     1       1.280   9.885  18.313  0.00  0.00    +0.000 C 
BRANCH  14  15
ATOM     15  C   UNL     1      -0.075  10.003  19.009  0.00  0.00    +0.000 C 
BRANCH  15  17
ATOM     16  C   UNL     1      -1.934   9.933  17.317  0.00  0.00    +0.000 C 
ATOM     17  C   UNL     1      -1.063  10.827  18.185  0.00  0.00    +0.000 C 
ENDBRANCH  15  17
ENDBRANCH  14  15
ENDBRANCH  13  14
ENDBRANCH  12  13
ENDBRANCH   1  12
BRANCH   4  18
ATOM     18  C   UNL     1       1.930   2.797  18.094  0.00  0.00    +0.000 C 
BRANCH  18  19
ATOM     19  C   UNL     1       1.144   2.414  19.355  0.00  0.00    +0.000 C 
BRANCH  19  20
ATOM     20  C   UNL     1       0.857   3.595  20.287  0.00  0.00    +0.000 C 
BRANCH  20  21
ATOM     21  C   UNL     1       1.916   3.764  21.351  0.00  0.00    +0.000 C 
ATOM     22  O   UNL     1       2.289   2.878  22.104  0.00  0.00    +0.000 OA
BRANCH  21  23
ATOM     23  O   UNL     1       2.422   5.015  21.403  0.00  0.00    +0.000 OA
ATOM     24  H   UNL     1       3.396   5.058  21.445  0.00  0.00    +0.000 HD
ENDBRANCH  21  23
ENDBRANCH  20  21
ENDBRANCH  19  20
ENDBRANCH  18  19
ENDBRANCH   4  18
TORSDOF 10
ENDMDL
MODEL 4
REMARK VINA RESULT:      -7.3      3.933      7.154
REMARK  Name = 
REMARK  11 active torsions:
REMARK  status: ('A' for Active; 'I' for Inactive)
REMARK    1  A    between atoms: C_1  and  C_2
REMARK    2  A    between atoms: C_2  and  C_3
REMARK    3  A    between atoms: C_3  and  C_4
REMARK    4  A    between atoms: C_4  and  C_5
REMARK    5  A    between atoms: C_5  and  C_6
REMARK    6  A    between atoms: C_6  and  C_7
REMARK    7  A    between atoms: C_10  and  C_12
REMARK    8  A    between atoms: C_12  and  C_13
REMARK    9  A    between atoms: C_13  and  C_14
REMARK   10  A    between atoms: C_14  and  C_15
REMARK   11  A    between atoms: C_15  and  O_17
REMARK                            x       y       z     vdW  Elec       q    Type
REMARK                         _______ _______ _______ _____ _____    ______ ____
ROOT
ATOM      1  C   UNL     1       3.842   4.503  17.515  0.00  0.00    +0.000 A 
ATOM      2  C   UNL     1       3.668   5.870  17.608  0.00  0.00    +0.000 A 
ATOM      3  N   UNL     1       2.779   6.170  18.625  0.00  0.00    +0.000 N 
ATOM      4  C   UNL     1       2.356   7.457  19.033  0.00  0.00    +0.000 C 
ATOM      5  O   UNL     1       1.895   7.620  20.158  0.00  0.00    +0.000 OA
ATOM      6  C   UNL     1       2.373   4.961  19.200  0.00  0.00    +0.000 A 
ATOM      7  C   UNL     1       1.450   4.693  20.230  0.00  0.00    +0.000 A 
ATOM      8  C   UNL     1       1.190   3.364  20.574  0.00  0.00    +0.000 A 
ATOM      9  C   UNL     1       1.840   2.322  19.926  0.00  0.00    +0.000 A 
ATOM     10  C   UNL     1       2.757   2.588  18.906  0.00  0.00    +0.000 A 
ATOM     11  C   UNL     1       3.020   3.920  18.520  0.00  0.00    +0.000 A 
ENDROOT
BRANCH   1  12
ATOM     12  C   UNL     1       4.709   3.790  16.522  0.00  0.00    +0.000 C 
BRANCH  12  13
ATOM     13  C   UNL     1       5.383   4.742  15.532  0.00  0.00    +0.000 C 
BRANCH  13  14
ATOM     14  C   UNL     1       6.907   4.675  15.643  0.00  0.00    +0.000 C 
BRANCH  14  15
ATOM     15  C   UNL     1       7.342   4.567  17.104  0.00  0.00    +0.000 C 
BRANCH  15  17
ATOM     16  C   UNL     1       7.799   5.811  19.241  0.00  0.00    +0.000 C 
ATOM     17  C   UNL     1       7.413   5.937  17.775  0.00  0.00    +0.000 C 
ENDBRANCH  15  17
ENDBRANCH  14  15
ENDBRANCH  13  14
ENDBRANCH  12  13
ENDBRANCH   1  12
BRANCH   4  18
ATOM     18  C   UNL     1       2.439   8.554  17.998  0.00  0.00    +0.000 C 
BRANCH  18  19
ATOM     19  C   UNL     1       1.195   9.451  18.000  0.00  0.00    +0.000 C 
BRANCH  19  20
ATOM     20  C   UNL     1       1.445  10.854  18.560  0.00  0.00    +0.000 C 
BRANCH  20  21
ATOM     21  C   UNL     1       0.654  11.126  19.818  0.00  0.00    +0.000 C 
ATOM     22  O   UNL     1      -0.149  12.037  19.948  0.00  0.00    +0.000 OA
BRANCH  21  23
ATOM     23  O   UNL     1       0.927  10.255  20.814  0.00  0.00    +0.000 OA
ATOM     24  H   UNL     1       0.139   9.883  21.255  0.00  0.00    +0.000 HD
ENDBRANCH  21  23
ENDBRANCH  20  21
ENDBRANCH  19  20
ENDBRANCH  18  19
ENDBRANCH   4  18
TORSDOF 10
ENDMDL
MODEL 5
REMARK VINA RESULT:      -7.2      2.613      5.823
REMARK  Name = 
REMARK  11 active torsions:
REMARK  status: ('A' for Active; 'I' for Inactive)
REMARK    1  A    between atoms: C_1  and  C_2
REMARK    2  A    between atoms: C_2  and  C_3
REMARK    3  A    between atoms: C_3  and  C_4
REMARK    4  A    between atoms: C_4  and  C_5
REMARK    5  A    between atoms: C_5  and  C_6
REMARK    6  A    between atoms: C_6  and  C_7
REMARK    7  A    between atoms: C_10  and  C_12
REMARK    8  A    between atoms: C_12  and  C_13
REMARK    9  A    between atoms: C_13  and  C_14
REMARK   10  A    between atoms: C_14  and  C_15
REMARK   11  A    between atoms: C_15  and  O_17
REMARK                            x       y       z     vdW  Elec       q    Type
REMARK                         _______ _______ _______ _____ _____    ______ ____
ROOT
ATOM      1  C   UNL     1       2.782   6.419  18.837  0.00  0.00    +0.000 A 
ATOM      2  C   UNL     1       3.543   6.025  17.755  0.00  0.00    +0.000 A 
ATOM      3  N   UNL     1       3.857   4.681  17.855  0.00  0.00    +0.000 N 
ATOM      4  C   UNL     1       4.611   3.913  16.937  0.00  0.00    +0.000 C 
ATOM      5  O   UNL     1       4.496   2.692  16.922  0.00  0.00    +0.000 OA
ATOM      6  C   UNL     1       3.278   4.201  19.035  0.00  0.00    +0.000 A 
ATOM      7  C   UNL     1       3.329   2.927  19.635  0.00  0.00    +0.000 A 
ATOM      8  C   UNL     1       2.694   2.736  20.864  0.00  0.00    +0.000 A 
ATOM      9  C   UNL     1       2.011   3.774  21.480  0.00  0.00    +0.000 A 
ATOM     10  C   UNL     1       1.959   5.037  20.885  0.00  0.00    +0.000 A 
ATOM     11  C   UNL     1       2.613   5.266  19.655  0.00  0.00    +0.000 A 
ENDROOT
BRANCH   1  12
ATOM     12  C   UNL     1       2.267   7.802  19.096  0.00  0.00    +0.000 C 
BRANCH  12  13
ATOM     13  C   UNL     1       1.898   8.548  17.812  0.00  0.00    +0.000 C 
BRANCH  13  14
ATOM     14  C   UNL     1       1.391   9.959  18.113  0.00  0.00    +0.000 C 
BRANCH  14  15
ATOM     15  C   UNL     1       0.281   9.925  19.164  0.00  0.00    +0.000 C 
BRANCH  15  17
ATOM     16  C   UNL     1      -1.506  10.010  17.398  0.00  0.00    +0.000 C 
ATOM     17  C   UNL     1      -0.979  10.639  18.678  0.00  0.00    +0.000 C 
ENDBRANCH  15  17
ENDBRANCH  14  15
ENDBRANCH  13  14
ENDBRANCH  12  13
ENDBRANCH   1  12
BRANCH   4  18
ATOM     18  C   UNL     1       5.586   4.669  16.066  0.00  0.00    +0.000 C 
BRANCH  18  19
ATOM     19  C   UNL     1       6.984   4.748  16.692  0.00  0.00    +0.000 C 
BRANCH  19  20
ATOM     20  C   UNL     1       7.258   6.061  17.432  0.00  0.00    +0.000 C 
BRANCH  20  21
ATOM     21  C   UNL     1       7.413   5.865  18.922  0.00  0.00    +0.000 C 
ATOM     22  O   UNL     1       6.656   5.203  19.616  0.00  0.00    +0.000 OA
BRANCH  21  23
ATOM     23  O   UNL     1       8.485   6.508  19.433  0.00  0.00    +0.000 OA
ATOM     24  H   UNL     1       8.342   6.896  20.318  0.00  0.00    +0.000 HD
ENDBRANCH  21  23
ENDBRANCH  20  21
ENDBRANCH  19  20
ENDBRANCH  18  19
ENDBRANCH   4  18
TORSDOF 10
ENDMDL
MODEL 6
REMARK VINA RESULT:      -7.2      3.331      6.439
REMARK  Name = 
REMARK  11 active torsions:
REMARK  status: ('A' for Active; 'I' for Inactive)
REMARK    1  A    between atoms: C_1  and  C_2
REMARK    2  A    between atoms: C_2  and  C_3
REMARK    3  A    between atoms: C_3  and  C_4
REMARK    4  A    between atoms: C_4  and  C_5
REMARK    5  A    between atoms: C_5  and  C_6
REMARK    6  A    between atoms: C_6  and  C_7
REMARK    7  A    between atoms: C_10  and  C_12
REMARK    8  A    between atoms: C_12  and  C_13
REMARK    9  A    between atoms: C_13  and  C_14
REMARK   10  A    between atoms: C_14  and  C_15
REMARK   11  A    between atoms: C_15  and  O_17
REMARK                            x       y       z     vdW  Elec       q    Type
REMARK                         _______ _______ _______ _____ _____    ______ ____
ROOT
ATOM      1  C   UNL     1       3.546   6.874  17.783  0.00  0.00    +0.000 A 
ATOM      2  C   UNL     1       2.792   5.749  18.047  0.00  0.00    +0.000 A 
ATOM      3  N   UNL     1       3.588   4.618  17.997  0.00  0.00    +0.000 N 
ATOM      4  C   UNL     1       3.183   3.281  18.223  0.00  0.00    +0.000 C 
ATOM      5  O   UNL     1       4.014   2.435  18.535  0.00  0.00    +0.000 OA
ATOM      6  C   UNL     1       4.889   5.032  17.694  0.00  0.00    +0.000 A 
ATOM      7  C   UNL     1       6.068   4.290  17.479  0.00  0.00    +0.000 A 
ATOM      8  C   UNL     1       7.237   4.969  17.130  0.00  0.00    +0.000 A 
ATOM      9  C   UNL     1       7.248   6.352  17.010  0.00  0.00    +0.000 A 
ATOM     10  C   UNL     1       6.081   7.088  17.225  0.00  0.00    +0.000 A 
ATOM     11  C   UNL     1       4.878   6.426  17.554  0.00  0.00    +0.000 A 
ENDROOT
BRANCH   1  12
ATOM     12  C   UNL     1       3.037   8.283  17.724  0.00  0.00    +0.000 C 
BRANCH  12  13
ATOM     13  C   UNL     1       1.648   8.437  18.345  0.00  0.00    +0.000 C 
BRANCH  13  14
ATOM     14  C   UNL     1       1.721   8.487  19.872  0.00  0.00    +0.000 C 
BRANCH  14  15
ATOM     15  C   UNL     1       0.588   9.337  20.444  0.00  0.00    +0.000 C 
BRANCH  15  17
ATOM     16  C   UNL     1      -0.197   9.504  22.827  0.00  0.00    +0.000 C 
ATOM     17  C   UNL     1      -0.130   8.624  21.589  0.00  0.00    +0.000 C 
ENDBRANCH  15  17
ENDBRANCH  14  15
ENDBRANCH  13  14
ENDBRANCH  12  13
ENDBRANCH   1  12
BRANCH   4  18
ATOM     18  C   UNL     1       1.724   2.970  17.985  0.00  0.00    +0.000 C 
BRANCH  18  19
ATOM     19  C   UNL     1       0.991   2.593  19.279  0.00  0.00    +0.000 C 
BRANCH  19  20
ATOM     20  C   UNL     1       0.814   3.762  20.253  0.00  0.00    +0.000 C 
BRANCH  20  21
ATOM     21  C   UNL     1       1.862   3.773  21.341  0.00  0.00    +0.000 C 
ATOM     22  O   UNL     1       2.086   2.840  22.097  0.00  0.00    +0.000 OA
BRANCH  21  23
ATOM     23  O   UNL     1       2.542   4.938  21.411  0.00  0.00    +0.000 OA
ATOM     24  H   UNL     1       2.686   5.270  22.318  0.00  0.00    +0.000 HD
ENDBRANCH  21  23
ENDBRANCH  20  21
ENDBRANCH  19  20
ENDBRANCH  18  19
ENDBRANCH   4  18
TORSDOF 10
ENDMDL
MODEL 7
REMARK VINA RESULT:      -7.2      3.157      6.727
REMARK  Name = 
REMARK  11 active torsions:
REMARK  status: ('A' for Active; 'I' for Inactive)
REMARK    1  A    between atoms: C_1  and  C_2
REMARK    2  A    between atoms: C_2  and  C_3
REMARK    3  A    between atoms: C_3  and  C_4
REMARK    4  A    between atoms: C_4  and  C_5
REMARK    5  A    between atoms: C_5  and  C_6
REMARK    6  A    between atoms: C_6  and  C_7
REMARK    7  A    between atoms: C_10  and  C_12
REMARK    8  A    between atoms: C_12  and  C_13
REMARK    9  A    between atoms: C_13  and  C_14
REMARK   10  A    between atoms: C_14  and  C_15
REMARK   11  A    between atoms: C_15  and  O_17
REMARK                            x       y       z     vdW  Elec       q    Type
REMARK                         _______ _______ _______ _____ _____    ______ ____
ROOT
ATOM      1  C   UNL     1       5.300   4.484  16.628  0.00  0.00    +0.000 A 
ATOM      2  C   UNL     1       4.458   3.438  16.945  0.00  0.00    +0.000 A 
ATOM      3  N   UNL     1       3.266   3.923  17.457  0.00  0.00    +0.000 N 
ATOM      4  C   UNL     1       2.152   3.162  17.884  0.00  0.00    +0.000 C 
ATOM      5  O   UNL     1       1.044   3.683  17.944  0.00  0.00    +0.000 OA
ATOM      6  C   UNL     1       3.350   5.319  17.465  0.00  0.00    +0.000 A 
ATOM      7  C   UNL     1       2.443   6.294  17.926  0.00  0.00    +0.000 A 
ATOM      8  C   UNL     1       2.811   7.640  17.863  0.00  0.00    +0.000 A 
ATOM      9  C   UNL     1       4.041   8.017  17.343  0.00  0.00    +0.000 A 
ATOM     10  C   UNL     1       4.940   7.051  16.884  0.00  0.00    +0.000 A 
ATOM     11  C   UNL     1       4.604   5.681  16.959  0.00  0.00    +0.000 A 
ENDROOT
BRANCH   1  12
ATOM     12  C   UNL     1       6.686   4.363  16.070  0.00  0.00    +0.000 C 
BRANCH  12  13
ATOM     13  C   UNL     1       6.779   4.808  14.609  0.00  0.00    +0.000 C 
BRANCH  13  14
ATOM     14  C   UNL     1       5.764   4.069  13.736  0.00  0.00    +0.000 C 
BRANCH  14  15
ATOM     15  C   UNL     1       6.424   3.540  12.463  0.00  0.00    +0.000 C 
BRANCH  15  17
ATOM     16  C   UNL     1       4.174   3.271  11.373  0.00  0.00    +0.000 C 
ATOM     17  C   UNL     1       5.498   2.596  11.697  0.00  0.00    +0.000 C 
ENDBRANCH  15  17
ENDBRANCH  14  15
ENDBRANCH  13  14
ENDBRANCH  12  13
ENDBRANCH   1  12
BRANCH   4  18
ATOM     18  C   UNL     1       2.432   1.743  18.319  0.00  0.00    +0.000 C 
BRANCH  18  19
ATOM     19  C   UNL     1       3.106   1.679  19.696  0.00  0.00    +0.000 C 
BRANCH  19  20
ATOM     20  C   UNL     1       2.823   2.897  20.581  0.00  0.00    +0.000 C 
BRANCH  20  21
ATOM     21  C   UNL     1       1.525   2.770  21.343  0.00  0.00    +0.000 C 
ATOM     22  O   UNL     1       1.416   2.252  22.443  0.00  0.00    +0.000 OA
BRANCH  21  23
ATOM     23  O   UNL     1       0.468   3.287  20.680  0.00  0.00    +0.000 OA
ATOM     24  H   UNL     1       0.677   4.061  20.122  0.00  0.00    +0.000 HD
ENDBRANCH  21  23
ENDBRANCH  20  21
ENDBRANCH  19  20
ENDBRANCH  18  19
ENDBRANCH   4  18
TORSDOF 10
ENDMDL
MODEL 8
REMARK VINA RESULT:      -7.2      4.074      7.382
REMARK  Name = 
REMARK  11 active torsions:
REMARK  status: ('A' for Active; 'I' for Inactive)
REMARK    1  A    between atoms: C_1  and  C_2
REMARK    2  A    between atoms: C_2  and  C_3
REMARK    3  A    between atoms: C_3  and  C_4
REMARK    4  A    between atoms: C_4  and  C_5
REMARK    5  A    between atoms: C_5  and  C_6
REMARK    6  A    between atoms: C_6  and  C_7
REMARK    7  A    between atoms: C_10  and  C_12
REMARK    8  A    between atoms: C_12  and  C_13
REMARK    9  A    between atoms: C_13  and  C_14
REMARK   10  A    between atoms: C_14  and  C_15
REMARK   11  A    between atoms: C_15  and  O_17
REMARK                            x       y       z     vdW  Elec       q    Type
REMARK                         _______ _______ _______ _____ _____    ______ ____
ROOT
ATOM      1  C   UNL     1       6.666   6.161  17.801  0.00  0.00    +0.000 A 
ATOM      2  C   UNL     1       5.452   6.029  18.446  0.00  0.00    +0.000 A 
ATOM      3  N   UNL     1       4.572   5.302  17.663  0.00  0.00    +0.000 N 
ATOM      4  C   UNL     1       3.240   4.950  17.985  0.00  0.00    +0.000 C 
ATOM      5  O   UNL     1       2.704   4.004  17.417  0.00  0.00    +0.000 OA
ATOM      6  C   UNL     1       5.243   4.957  16.485  0.00  0.00    +0.000 A 
ATOM      7  C   UNL     1       4.799   4.267  15.340  0.00  0.00    +0.000 A 
ATOM      8  C   UNL     1       5.679   4.107  14.266  0.00  0.00    +0.000 A 
ATOM      9  C   UNL     1       6.973   4.604  14.328  0.00  0.00    +0.000 A 
ATOM     10  C   UNL     1       7.414   5.287  15.465  0.00  0.00    +0.000 A 
ATOM     11  C   UNL     1       6.538   5.485  16.554  0.00  0.00    +0.000 A 
ENDROOT
BRANCH   1  12
ATOM     12  C   UNL     1       7.863   6.899  18.317  0.00  0.00    +0.000 C 
BRANCH  12  13
ATOM     13  C   UNL     1       7.960   8.326  17.774  0.00  0.00    +0.000 C 
BRANCH  13  14
ATOM     14  C   UNL     1       8.730   9.236  18.732  0.00  0.00    +0.000 C 
BRANCH  14  15
ATOM     15  C   UNL     1       9.145  10.532  18.036  0.00  0.00    +0.000 C 
BRANCH  15  17
ATOM     16  C   UNL     1       9.871  11.213  20.345  0.00  0.00    +0.000 C 
ATOM     17  C   UNL     1       9.279  11.687  19.026  0.00  0.00    +0.000 C 
ENDBRANCH  15  17
ENDBRANCH  14  15
ENDBRANCH  13  14
ENDBRANCH  12  13
ENDBRANCH   1  12
BRANCH   4  18
ATOM     18  C   UNL     1       2.529   5.837  18.980  0.00  0.00    +0.000 C 
BRANCH  18  19
ATOM     19  C   UNL     1       2.418   5.185  20.364  0.00  0.00    +0.000 C 
BRANCH  19  20
ATOM     20  C   UNL     1       1.163   4.327  20.545  0.00  0.00    +0.000 C 
BRANCH  20  21
ATOM     21  C   UNL     1       1.486   2.895  20.900  0.00  0.00    +0.000 C 
ATOM     22  O   UNL     1       1.542   2.460  22.040  0.00  0.00    +0.000 OA
BRANCH  21  23
ATOM     23  O   UNL     1       1.721   2.120  19.819  0.00  0.00    +0.000 OA
ATOM     24  H   UNL     1       2.527   2.354  19.320  0.00  0.00    +0.000 HD
ENDBRANCH  21  23
ENDBRANCH  20  21
ENDBRANCH  19  20
ENDBRANCH  18  19
ENDBRANCH   4  18
TORSDOF 10
ENDMDL
MODEL 9
REMARK VINA RESULT:      -7.1      4.220      7.559
REMARK  Name = 
REMARK  11 active torsions:
REMARK  status: ('A' for Active; 'I' for Inactive)
REMARK    1  A    between atoms: C_1  and  C_2
REMARK    2  A    between atoms: C_2  and  C_3
REMARK    3  A    between atoms: C_3  and  C_4
REMARK    4  A    between atoms: C_4  and  C_5
REMARK    5  A    between atoms: C_5  and  C_6
REMARK    6  A    between atoms: C_6  and  C_7
REMARK    7  A    between atoms: C_10  and  C_12
REMARK    8  A    between atoms: C_12  and  C_13
REMARK    9  A    between atoms: C_13  and  C_14
REMARK   10  A    between atoms: C_14  and  C_15
REMARK   11  A    between atoms: C_15  and  O_17
REMARK                            x       y       z     vdW  Elec       q    Type
REMARK                         _______ _______ _______ _____ _____    ______ ____
ROOT
ATOM      1  C   UNL     1       7.040   5.914  18.165  0.00  0.00    +0.000 A 
ATOM      2  C   UNL     1       6.039   5.442  18.990  0.00  0.00    +0.000 A 
ATOM      3  N   UNL     1       5.190   4.609  18.282  0.00  0.00    +0.000 N 
ATOM      4  C   UNL     1       4.056   3.926  18.782  0.00  0.00    +0.000 C 
ATOM      5  O   UNL     1       3.627   2.941  18.191  0.00  0.00    +0.000 OA
ATOM      6  C   UNL     1       5.663   4.546  16.967  0.00  0.00    +0.000 A 
ATOM      7  C   UNL     1       5.150   3.886  15.833  0.00  0.00    +0.000 A 
ATOM      8  C   UNL     1       5.805   4.040  14.609  0.00  0.00    +0.000 A 
ATOM      9  C   UNL     1       6.951   4.817  14.509  0.00  0.00    +0.000 A 
ATOM     10  C   UNL     1       7.462   5.470  15.634  0.00  0.00    +0.000 A 
ATOM     11  C   UNL     1       6.805   5.352  16.878  0.00  0.00    +0.000 A 
ENDROOT
BRANCH   1  12
ATOM     12  C   UNL     1       8.136   6.858  18.559  0.00  0.00    +0.000 C 
BRANCH  12  13
ATOM     13  C   UNL     1       7.993   8.237  17.911  0.00  0.00    +0.000 C 
BRANCH  13  14
ATOM     14  C   UNL     1       8.767   9.302  18.689  0.00  0.00    +0.000 C 
BRANCH  14  15
ATOM     15  C   UNL     1       8.795  10.623  17.922  0.00  0.00    +0.000 C 
BRANCH  15  17
ATOM     16  C   UNL     1       9.972  12.826  17.628  0.00  0.00    +0.000 C 
ATOM     17  C   UNL     1       9.822  11.592  18.505  0.00  0.00    +0.000 C 
ENDBRANCH  15  17
ENDBRANCH  14  15
ENDBRANCH  13  14
ENDBRANCH  12  13
ENDBRANCH   1  12
BRANCH   4  18
ATOM     18  C   UNL     1       3.394   4.522  20.001  0.00  0.00    +0.000 C 
BRANCH  18  19
ATOM     19  C   UNL     1       1.945   4.943  19.729  0.00  0.00    +0.000 C 
BRANCH  19  20
ATOM     20  C   UNL     1       0.915   4.212  20.596  0.00  0.00    +0.000 C 
BRANCH  20  21
ATOM     21  C   UNL     1       1.364   2.822  20.981  0.00  0.00    +0.000 C 
ATOM     22  O   UNL     1       1.658   2.478  22.116  0.00  0.00    +0.000 OA
BRANCH  21  23
ATOM     23  O   UNL     1       1.421   1.973  19.932  0.00  0.00    +0.000 OA
ATOM     24  H   UNL     1       0.610   1.448  19.790  0.00  0.00    +0.000 HD
ENDBRANCH  21  23
ENDBRANCH  20  21
ENDBRANCH  19  20
ENDBRANCH  18  19
ENDBRANCH   4  18
TORSDOF 10
ENDMDL
