MODEL 1
REMARK VINA RESULT:      -9.0      0.000      0.000
REMARK  Name = 
REMARK  5 active torsions:
REMARK  status: ('A' for Active; 'I' for Inactive)
REMARK    1  A    between atoms: C_1  and  O_2
REMARK    2  A    between atoms: O_2  and  C_3
REMARK    3  A    between atoms: C_9  and  C_10
REMARK    4  A    between atoms: C_16  and  C_17
REMARK    5  A    between atoms: C_20  and  N_21
REMARK                            x       y       z     vdW  Elec       q    Type
REMARK                         _______ _______ _______ _____ _____    ______ ____
ROOT
ATOM      1  C   UNL     1       4.211   4.041  18.766  0.00  0.00    +0.000 A 
ATOM      2  C   UNL     1       4.104   2.803  19.429  0.00  0.00    +0.000 A 
ATOM      3  C   UNL     1       3.223   2.641  20.490  0.00  0.00    +0.000 A 
ATOM      4  N   UNL     1       2.438   3.602  21.010  0.00  0.00    +0.000 NA
ATOM      5  C   UNL     1       2.577   4.778  20.374  0.00  0.00    +0.000 A 
ATOM      6  N   UNL     1       1.907   5.909  20.746  0.00  0.00    +0.000 N 
ATOM      7  C   UNL     1       2.265   6.958  19.932  0.00  0.00    +0.000 A 
ATOM      8  C   UNL     1       3.120   6.447  18.974  0.00  0.00    +0.000 A 
ATOM      9  C   UNL     1       3.385   5.077  19.282  0.00  0.00    +0.000 A 
ATOM     10  H   UNL     1       1.270   5.941  21.525  0.00  0.00    +0.000 HD
ENDROOT
BRANCH   1  17
ATOM     11  C   UNL     1       6.497   4.659  17.789  0.00  0.00    +0.000 A 
ATOM     12  C   UNL     1       7.333   4.850  16.673  0.00  0.00    +0.000 A 
ATOM     13  C   UNL     1       6.848   4.654  15.383  0.00  0.00    +0.000 A 
ATOM     14  C   UNL     1       5.526   4.293  15.208  0.00  0.00    +0.000 A 
ATOM     15  F   UNL     1       5.056   4.084  13.971  0.00  0.00    +0.000 F 
ATOM     16  C   UNL     1       4.676   4.135  16.298  0.00  0.00    +0.000 A 
ATOM     17  C   UNL     1       5.140   4.273  17.625  0.00  0.00    +0.000 A 
BRANCH  11  19
ATOM     18  C   UNL     1       7.912   5.806  19.317  0.00  0.00    +0.000 C 
ATOM     19  O   UNL     1       6.983   4.753  19.071  0.00  0.00    +0.000 OA
ENDBRANCH  11  19
ENDBRANCH   1  17
BRANCH   7  20
ATOM     20  C   UNL     1       1.751   8.356  20.123  0.00  0.00    +0.000 C 
ATOM     21  C   UNL     1       0.574   8.385  21.112  0.00  0.00    +0.000 C 
ATOM     22  C   UNL     1      -0.002   9.791  21.268  0.00  0.00    +0.000 C 
ATOM     23  C   UNL     1      -0.391  10.382  19.909  0.00  0.00    +0.000 C 
ATOM     24  C   UNL     1       0.806  10.395  18.953  0.00  0.00    +0.000 C 
ATOM     25  C   UNL     1       1.386   8.994  18.777  0.00  0.00    +0.000 C 
BRANCH  23  26
ATOM     26  N   UNL     1      -0.909  11.739  20.067  0.00  0.00    +0.000 NA
ATOM     27  H   UNL     1      -1.623  11.923  19.363  0.00  0.00    +0.000 HD
ATOM     28  H   UNL     1      -0.163  12.412  19.895  0.00  0.00    +0.000 HD
ENDBRANCH  23  26
ENDBRANCH   7  20
TORSDOF 4
ENDMDL
MODEL 2
REMARK VINA RESULT:      -8.2      0.592      1.173
REMARK  Name = 
REMARK  5 active torsions:
REMARK  status: ('A' for Active; 'I' for Inactive)
REMARK    1  A    between atoms: C_1  and  O_2
REMARK    2  A    between atoms: O_2  and  C_3
REMARK    3  A    between atoms: C_9  and  C_10
REMARK    4  A    between atoms: C_16  and  C_17
REMARK    5  A    between atoms: C_20  and  N_21
REMARK                            x       y       z     vdW  Elec       q    Type
REMARK                         _______ _______ _______ _____ _____    ______ ____
ROOT
ATOM      1  C   UNL     1       4.314   3.984  18.879  0.00  0.00    +0.000 A 
ATOM      2  C   UNL     1       4.394   2.786  19.615  0.00  0.00    +0.000 A 
ATOM      3  C   UNL     1       3.555   2.562  20.699  0.00  0.00    +0.000 A 
ATOM      4  N   UNL     1       2.642   3.429  21.175  0.00  0.00    +0.000 NA
ATOM      5  C   UNL     1       2.603   4.572  20.468  0.00  0.00    +0.000 A 
ATOM      6  N   UNL     1       1.778   5.614  20.784  0.00  0.00    +0.000 N 
ATOM      7  C   UNL     1       1.972   6.652  19.903  0.00  0.00    +0.000 A 
ATOM      8  C   UNL     1       2.885   6.214  18.963  0.00  0.00    +0.000 A 
ATOM      9  C   UNL     1       3.349   4.918  19.347  0.00  0.00    +0.000 A 
ATOM     10  H   UNL     1       1.150   5.601  21.571  0.00  0.00    +0.000 HD
ENDROOT
BRANCH   1  17
ATOM     11  C   UNL     1       6.539   4.702  17.834  0.00  0.00    +0.000 A 
ATOM     12  C   UNL     1       7.324   4.952  16.693  0.00  0.00    +0.000 A 
ATOM     13  C   UNL     1       6.795   4.779  15.417  0.00  0.00    +0.000 A 
ATOM     14  C   UNL     1       5.479   4.380  15.282  0.00  0.00    +0.000 A 
ATOM     15  F   UNL     1       4.967   4.192  14.058  0.00  0.00    +0.000 F 
ATOM     16  C   UNL     1       4.678   4.163  16.399  0.00  0.00    +0.000 A 
ATOM     17  C   UNL     1       5.189   4.278  17.710  0.00  0.00    +0.000 A 
BRANCH  11  19
ATOM     18  C   UNL     1       7.895   5.907  19.372  0.00  0.00    +0.000 C 
ATOM     19  O   UNL     1       7.072   4.775  19.099  0.00  0.00    +0.000 OA
ENDBRANCH  11  19
ENDBRANCH   1  17
BRANCH   7  20
ATOM     20  C   UNL     1       1.261   7.970  20.020  0.00  0.00    +0.000 C 
ATOM     21  C   UNL     1       1.730   8.953  18.934  0.00  0.00    +0.000 C 
ATOM     22  C   UNL     1       1.064  10.319  19.080  0.00  0.00    +0.000 C 
ATOM     23  C   UNL     1       1.276  10.889  20.486  0.00  0.00    +0.000 C 
ATOM     24  C   UNL     1       0.756   9.922  21.554  0.00  0.00    +0.000 C 
ATOM     25  C   UNL     1       1.421   8.554  21.430  0.00  0.00    +0.000 C 
BRANCH  23  26
ATOM     26  N   UNL     1       0.607  12.180  20.624  0.00  0.00    +0.000 NA
ATOM     27  H   UNL     1       0.366  12.345  21.600  0.00  0.00    +0.000 HD
ATOM     28  H   UNL     1      -0.276  12.165  20.115  0.00  0.00    +0.000 HD
ENDBRANCH  23  26
ENDBRANCH   7  20
TORSDOF 4
ENDMDL
MODEL 3
REMARK VINA RESULT:      -7.5      1.628      2.264
REMARK  Name = 
REMARK  5 active torsions:
REMARK  status: ('A' for Active; 'I' for Inactive)
REMARK    1  A    between atoms: C_1  and  O_2
REMARK    2  A    between atoms: O_2  and  C_3
REMARK    3  A    between atoms: C_9  and  C_10
REMARK    4  A    between atoms: C_16  and  C_17
REMARK    5  A    between atoms: C_20  and  N_21
REMARK                            x       y       z     vdW  Elec       q    Type
REMARK                         _______ _______ _______ _____ _____    ______ ____
ROOT
ATOM      1  C   UNL     1       3.765   4.085  19.467  0.00  0.00    +0.000 A 
ATOM      2  C   UNL     1       3.565   2.923  20.237  0.00  0.00    +0.000 A 
ATOM      3  C   UNL     1       2.629   2.905  21.263  0.00  0.00    +0.000 A 
ATOM      4  N   UNL     1       1.871   3.947  21.650  0.00  0.00    +0.000 NA
ATOM      5  C   UNL     1       2.098   5.048  20.913  0.00  0.00    +0.000 A 
ATOM      6  N   UNL     1       1.471   6.240  21.142  0.00  0.00    +0.000 N 
ATOM      7  C   UNL     1       1.918   7.187  20.252  0.00  0.00    +0.000 A 
ATOM      8  C   UNL     1       2.789   6.547  19.391  0.00  0.00    +0.000 A 
ATOM      9  C   UNL     1       2.970   5.203  19.840  0.00  0.00    +0.000 A 
ATOM     10  H   UNL     1       0.801   6.377  21.882  0.00  0.00    +0.000 HD
ENDROOT
BRANCH   1  17
ATOM     11  C   UNL     1       4.444   3.835  17.010  0.00  0.00    +0.000 A 
ATOM     12  C   UNL     1       5.417   3.941  15.998  0.00  0.00    +0.000 A 
ATOM     13  C   UNL     1       6.704   4.379  16.297  0.00  0.00    +0.000 A 
ATOM     14  C   UNL     1       7.025   4.687  17.605  0.00  0.00    +0.000 A 
ATOM     15  F   UNL     1       8.255   5.128  17.899  0.00  0.00    +0.000 F 
ATOM     16  C   UNL     1       6.085   4.554  18.623  0.00  0.00    +0.000 A 
ATOM     17  C   UNL     1       4.755   4.162  18.356  0.00  0.00    +0.000 A 
BRANCH  11  19
ATOM     18  C   UNL     1       2.730   2.189  17.106  0.00  0.00    +0.000 C 
ATOM     19  O   UNL     1       3.144   3.497  16.718  0.00  0.00    +0.000 OA
ENDBRANCH  11  19
ENDBRANCH   1  17
BRANCH   7  20
ATOM     20  C   UNL     1       1.468   8.620  20.284  0.00  0.00    +0.000 C 
ATOM     21  C   UNL     1       0.204   8.786  21.145  0.00  0.00    +0.000 C 
ATOM     22  C   UNL     1      -0.304  10.226  21.135  0.00  0.00    +0.000 C 
ATOM     23  C   UNL     1      -0.526  10.723  19.702  0.00  0.00    +0.000 C 
ATOM     24  C   UNL     1       0.756  10.600  18.874  0.00  0.00    +0.000 C 
ATOM     25  C   UNL     1       1.270   9.163  18.863  0.00  0.00    +0.000 C 
BRANCH  23  26
ATOM     26  N   UNL     1      -0.980  12.111  19.704  0.00  0.00    +0.000 NA
ATOM     27  H   UNL     1      -1.779  12.218  19.081  0.00  0.00    +0.000 HD
ATOM     28  H   UNL     1      -0.247  12.712  19.328  0.00  0.00    +0.000 HD
ENDBRANCH  23  26
ENDBRANCH   7  20
TORSDOF 4
ENDMDL
MODEL 4
REMARK VINA RESULT:      -7.3      1.198      1.854
REMARK  Name = 
REMARK  5 active torsions:
REMARK  status: ('A' for Active; 'I' for Inactive)
REMARK    1  A    between atoms: C_1  and  O_2
REMARK    2  A    between atoms: O_2  and  C_3
REMARK    3  A    between atoms: C_9  and  C_10
REMARK    4  A    between atoms: C_16  and  C_17
REMARK    5  A    between atoms: C_20  and  N_21
REMARK                            x       y       z     vdW  Elec       q    Type
REMARK                         _______ _______ _______ _____ _____    ______ ____
ROOT
ATOM      1  C   UNL     1       3.953   4.975  18.635  0.00  0.00    +0.000 A 
ATOM      2  C   UNL     1       3.745   4.033  19.661  0.00  0.00    +0.000 A 
ATOM      3  C   UNL     1       2.770   4.242  20.628  0.00  0.00    +0.000 A 
ATOM      4  N   UNL     1       1.977   5.325  20.720  0.00  0.00    +0.000 NA
ATOM      5  C   UNL     1       2.213   6.218  19.742  0.00  0.00    +0.000 A 
ATOM      6  N   UNL     1       1.554   7.411  19.649  0.00  0.00    +0.000 N 
ATOM      7  C   UNL     1       2.018   8.123  18.568  0.00  0.00    +0.000 A 
ATOM      8  C   UNL     1       2.935   7.315  17.921  0.00  0.00    +0.000 A 
ATOM      9  C   UNL     1       3.123   6.128  18.694  0.00  0.00    +0.000 A 
ATOM     10  H   UNL     1       0.853   7.706  20.309  0.00  0.00    +0.000 HD
ENDROOT
BRANCH   1  17
ATOM     11  C   UNL     1       6.382   4.850  17.830  0.00  0.00    +0.000 A 
ATOM     12  C   UNL     1       7.312   4.667  16.790  0.00  0.00    +0.000 A 
ATOM     13  C   UNL     1       6.881   4.430  15.488  0.00  0.00    +0.000 A 
ATOM     14  C   UNL     1       5.525   4.398  15.222  0.00  0.00    +0.000 A 
ATOM     15  F   UNL     1       5.101   4.151  13.975  0.00  0.00    +0.000 F 
ATOM     16  C   UNL     1       4.592   4.612  16.232  0.00  0.00    +0.000 A 
ATOM     17  C   UNL     1       4.985   4.805  17.574  0.00  0.00    +0.000 A 
BRANCH  11  19
ATOM     18  C   UNL     1       7.935   5.806  19.356  0.00  0.00    +0.000 C 
ATOM     19  O   UNL     1       6.787   4.989  19.136  0.00  0.00    +0.000 OA
ENDBRANCH  11  19
ENDBRANCH   1  17
BRANCH   7  20
ATOM     20  C   UNL     1       1.540   9.506  18.231  0.00  0.00    +0.000 C 
ATOM     21  C   UNL     1       2.714  10.496  18.156  0.00  0.00    +0.000 C 
ATOM     22  C   UNL     1       2.237  11.920  17.878  0.00  0.00    +0.000 C 
ATOM     23  C   UNL     1       1.190  12.362  18.905  0.00  0.00    +0.000 C 
ATOM     24  C   UNL     1       0.003  11.394  18.930  0.00  0.00    +0.000 C 
ATOM     25  C   UNL     1       0.461   9.967  19.219  0.00  0.00    +0.000 C 
BRANCH  23  26
ATOM     26  N   UNL     1       0.717  13.713  18.610  0.00  0.00    +0.000 NA
ATOM     27  H   UNL     1       0.147  13.705  17.766  0.00  0.00    +0.000 HD
ATOM     28  H   UNL     1       1.513  14.318  18.408  0.00  0.00    +0.000 HD
ENDBRANCH  23  26
ENDBRANCH   7  20
TORSDOF 4
ENDMDL
MODEL 5
REMARK VINA RESULT:      -7.3      1.820      2.638
REMARK  Name = 
REMARK  5 active torsions:
REMARK  status: ('A' for Active; 'I' for Inactive)
REMARK    1  A    between atoms: C_1  and  O_2
REMARK    2  A    between atoms: O_2  and  C_3
REMARK    3  A    between atoms: C_9  and  C_10
REMARK    4  A    between atoms: C_16  and  C_17
REMARK    5  A    between atoms: C_20  and  N_21
REMARK                            x       y       z     vdW  Elec       q    Type
REMARK                         _______ _______ _______ _____ _____    ______ ____
ROOT
ATOM      1  C   UNL     1       4.518   4.517  19.126  0.00  0.00    +0.000 A 
ATOM      2  C   UNL     1       4.499   3.154  19.480  0.00  0.00    +0.000 A 
ATOM      3  C   UNL     1       3.440   2.624  20.206  0.00  0.00    +0.000 A 
ATOM      4  N   UNL     1       2.382   3.317  20.666  0.00  0.00    +0.000 NA
ATOM      5  C   UNL     1       2.437   4.619  20.333  0.00  0.00    +0.000 A 
ATOM      6  N   UNL     1       1.492   5.526  20.718  0.00  0.00    +0.000 N 
ATOM      7  C   UNL     1       1.822   6.778  20.253  0.00  0.00    +0.000 A 
ATOM      8  C   UNL     1       2.963   6.631  19.488  0.00  0.00    +0.000 A 
ATOM      9  C   UNL     1       3.408   5.277  19.585  0.00  0.00    +0.000 A 
ATOM     10  H   UNL     1       0.694   5.284  21.284  0.00  0.00    +0.000 HD
ENDROOT
BRANCH   1  17
ATOM     11  C   UNL     1       5.747   5.036  16.939  0.00  0.00    +0.000 A 
ATOM     12  C   UNL     1       6.810   5.657  16.258  0.00  0.00    +0.000 A 
ATOM     13  C   UNL     1       7.763   6.395  16.954  0.00  0.00    +0.000 A 
ATOM     14  C   UNL     1       7.668   6.492  18.329  0.00  0.00    +0.000 A 
ATOM     15  F   UNL     1       8.569   7.216  19.006  0.00  0.00    +0.000 F 
ATOM     16  C   UNL     1       6.643   5.854  19.022  0.00  0.00    +0.000 A 
ATOM     17  C   UNL     1       5.628   5.139  18.351  0.00  0.00    +0.000 A 
BRANCH  11  19
ATOM     18  C   UNL     1       4.979   4.141  14.875  0.00  0.00    +0.000 C 
ATOM     19  O   UNL     1       4.745   4.385  16.259  0.00  0.00    +0.000 OA
ENDBRANCH  11  19
ENDBRANCH   1  17
BRANCH   7  20
ATOM     20  C   UNL     1       1.016   8.006  20.564  0.00  0.00    +0.000 C 
ATOM     21  C   UNL     1       1.264   9.111  19.523  0.00  0.00    +0.000 C 
ATOM     22  C   UNL     1       0.502  10.390  19.861  0.00  0.00    +0.000 C 
ATOM     23  C   UNL     1       0.826  10.868  21.280  0.00  0.00    +0.000 C 
ATOM     24  C   UNL     1       0.523   9.774  22.310  0.00  0.00    +0.000 C 
ATOM     25  C   UNL     1       1.288   8.492  21.993  0.00  0.00    +0.000 C 
BRANCH  23  26
ATOM     26  N   UNL     1       0.066  12.072  21.604  0.00  0.00    +0.000 NA
ATOM     27  H   UNL     1       0.338  12.833  20.983  0.00  0.00    +0.000 HD
ATOM     28  H   UNL     1       0.300  12.382  22.547  0.00  0.00    +0.000 HD
ENDBRANCH  23  26
ENDBRANCH   7  20
TORSDOF 4
ENDMDL
MODEL 6
REMARK VINA RESULT:      -7.2      1.147      1.548
REMARK  Name = 
REMARK  5 active torsions:
REMARK  status: ('A' for Active; 'I' for Inactive)
REMARK    1  A    between atoms: C_1  and  O_2
REMARK    2  A    between atoms: O_2  and  C_3
REMARK    3  A    between atoms: C_9  and  C_10
REMARK    4  A    between atoms: C_16  and  C_17
REMARK    5  A    between atoms: C_20  and  N_21
REMARK                            x       y       z     vdW  Elec       q    Type
REMARK                         _______ _______ _______ _____ _____    ______ ____
ROOT
ATOM      1  C   UNL     1       4.119   3.550  17.818  0.00  0.00    +0.000 A 
ATOM      2  C   UNL     1       3.988   2.195  18.183  0.00  0.00    +0.000 A 
ATOM      3  C   UNL     1       2.975   1.787  19.041  0.00  0.00    +0.000 A 
ATOM      4  N   UNL     1       2.072   2.595  19.626  0.00  0.00    +0.000 NA
ATOM      5  C   UNL     1       2.234   3.883  19.279  0.00  0.00    +0.000 A 
ATOM      6  N   UNL     1       1.457   4.891  19.774  0.00  0.00    +0.000 N 
ATOM      7  C   UNL     1       1.867   6.099  19.262  0.00  0.00    +0.000 A 
ATOM      8  C   UNL     1       2.877   5.827  18.358  0.00  0.00    +0.000 A 
ATOM      9  C   UNL     1       3.171   4.430  18.409  0.00  0.00    +0.000 A 
ATOM     10  H   UNL     1       0.715   4.740  20.438  0.00  0.00    +0.000 HD
ENDROOT
BRANCH   1  17
ATOM     11  C   UNL     1       6.384   4.654  17.362  0.00  0.00    +0.000 A 
ATOM     12  C   UNL     1       7.365   5.089  16.452  0.00  0.00    +0.000 A 
ATOM     13  C   UNL     1       7.185   4.922  15.082  0.00  0.00    +0.000 A 
ATOM     14  C   UNL     1       6.018   4.343  14.621  0.00  0.00    +0.000 A 
ATOM     15  F   UNL     1       5.844   4.160  13.306  0.00  0.00    +0.000 F 
ATOM     16  C   UNL     1       5.022   3.939  15.505  0.00  0.00    +0.000 A 
ATOM     17  C   UNL     1       5.186   4.044  16.904  0.00  0.00    +0.000 A 
BRANCH  11  19
ATOM     18  C   UNL     1       7.600   5.625  19.160  0.00  0.00    +0.000 C 
ATOM     19  O   UNL     1       6.587   4.724  18.719  0.00  0.00    +0.000 OA
ENDBRANCH  11  19
ENDBRANCH   1  17
BRANCH   7  20
ATOM     20  C   UNL     1       1.255   7.411  19.662  0.00  0.00    +0.000 C 
ATOM     21  C   UNL     1       1.838   8.571  18.838  0.00  0.00    +0.000 C 
ATOM     22  C   UNL     1       1.273   9.919  19.278  0.00  0.00    +0.000 C 
ATOM     23  C   UNL     1       1.473  10.138  20.782  0.00  0.00    +0.000 C 
ATOM     24  C   UNL     1       0.840   9.001  21.590  0.00  0.00    +0.000 C 
ATOM     25  C   UNL     1       1.404   7.646  21.170  0.00  0.00    +0.000 C 
BRANCH  23  26
ATOM     26  N   UNL     1       0.899  11.415  21.197  0.00  0.00    +0.000 NA
ATOM     27  H   UNL     1       0.984  11.523  22.207  0.00  0.00    +0.000 HD
ATOM     28  H   UNL     1      -0.100  11.424  20.995  0.00  0.00    +0.000 HD
ENDBRANCH  23  26
ENDBRANCH   7  20
TORSDOF 4
ENDMDL
MODEL 7
REMARK VINA RESULT:      -7.1      1.198      1.405
REMARK  Name = 
REMARK  5 active torsions:
REMARK  status: ('A' for Active; 'I' for Inactive)
REMARK    1  A    between atoms: C_1  and  O_2
REMARK    2  A    between atoms: O_2  and  C_3
REMARK    3  A    between atoms: C_9  and  C_10
REMARK    4  A    between atoms: C_16  and  C_17
REMARK    5  A    between atoms: C_20  and  N_21
REMARK                            x       y       z     vdW  Elec       q    Type
REMARK                         _______ _______ _______ _____ _____    ______ ____
ROOT
ATOM      1  C   UNL     1       4.133   4.021  18.957  0.00  0.00    +0.000 A 
ATOM      2  C   UNL     1       4.127   2.709  19.469  0.00  0.00    +0.000 A 
ATOM      3  C   UNL     1       3.274   2.357  20.507  0.00  0.00    +0.000 A 
ATOM      4  N   UNL     1       2.426   3.187  21.140  0.00  0.00    +0.000 NA
ATOM      5  C   UNL     1       2.469   4.438  20.647  0.00  0.00    +0.000 A 
ATOM      6  N   UNL     1       1.722   5.463  21.153  0.00  0.00    +0.000 N 
ATOM      7  C   UNL     1       1.990   6.625  20.468  0.00  0.00    +0.000 A 
ATOM      8  C   UNL     1       2.869   6.296  19.453  0.00  0.00    +0.000 A 
ATOM      9  C   UNL     1       3.239   4.924  19.596  0.00  0.00    +0.000 A 
ATOM     10  H   UNL     1       1.094   5.355  21.934  0.00  0.00    +0.000 HD
ENDROOT
BRANCH   1  17
ATOM     11  C   UNL     1       6.274   5.104  18.059  0.00  0.00    +0.000 A 
ATOM     12  C   UNL     1       7.084   5.479  16.971  0.00  0.00    +0.000 A 
ATOM     13  C   UNL     1       6.685   5.213  15.665  0.00  0.00    +0.000 A 
ATOM     14  C   UNL     1       5.468   4.596  15.444  0.00  0.00    +0.000 A 
ATOM     15  F   UNL     1       5.084   4.319  14.191  0.00  0.00    +0.000 F 
ATOM     16  C   UNL     1       4.638   4.251  16.506  0.00  0.00    +0.000 A 
ATOM     17  C   UNL     1       5.027   4.456  17.848  0.00  0.00    +0.000 A 
BRANCH  11  19
ATOM     18  C   UNL     1       8.029   5.742  19.530  0.00  0.00    +0.000 C 
ATOM     19  O   UNL     1       6.695   5.271  19.356  0.00  0.00    +0.000 OA
ENDBRANCH  11  19
ENDBRANCH   1  17
BRANCH   7  20
ATOM     20  C   UNL     1       1.376   7.948  20.825  0.00  0.00    +0.000 C 
ATOM     21  C   UNL     1       2.103   8.593  22.017  0.00  0.00    +0.000 C 
ATOM     22  C   UNL     1       1.450   9.909  22.435  0.00  0.00    +0.000 C 
ATOM     23  C   UNL     1      -0.044   9.718  22.720  0.00  0.00    +0.000 C 
ATOM     24  C   UNL     1      -0.763   9.124  21.505  0.00  0.00    +0.000 C 
ATOM     25  C   UNL     1      -0.129   7.801  21.083  0.00  0.00    +0.000 C 
BRANCH  23  26
ATOM     26  N   UNL     1      -0.664  10.988  23.086  0.00  0.00    +0.000 NA
ATOM     27  H   UNL     1      -0.129  11.763  22.696  0.00  0.00    +0.000 HD
ATOM     28  H   UNL     1      -0.634  11.106  24.099  0.00  0.00    +0.000 HD
ENDBRANCH  23  26
ENDBRANCH   7  20
TORSDOF 4
ENDMDL
MODEL 8
REMARK VINA RESULT:      -7.1      2.066      3.027
REMARK  Name = 
REMARK  5 active torsions:
REMARK  status: ('A' for Active; 'I' for Inactive)
REMARK    1  A    between atoms: C_1  and  O_2
REMARK    2  A    between atoms: O_2  and  C_3
REMARK    3  A    between atoms: C_9  and  C_10
REMARK    4  A    between atoms: C_16  and  C_17
REMARK    5  A    between atoms: C_20  and  N_21
REMARK                            x       y       z     vdW  Elec       q    Type
REMARK                         _______ _______ _______ _____ _____    ______ ____
ROOT
ATOM      1  C   UNL     1       3.425   5.734  18.948  0.00  0.00    +0.000 A 
ATOM      2  C   UNL     1       3.246   4.887  20.060  0.00  0.00    +0.000 A 
ATOM      3  C   UNL     1       2.322   5.201  21.048  0.00  0.00    +0.000 A 
ATOM      4  N   UNL     1       1.556   6.307  21.082  0.00  0.00    +0.000 NA
ATOM      5  C   UNL     1       1.764   7.108  20.022  0.00  0.00    +0.000 A 
ATOM      6  N   UNL     1       1.126   8.304  19.857  0.00  0.00    +0.000 N 
ATOM      7  C   UNL     1       1.554   8.911  18.699  0.00  0.00    +0.000 A 
ATOM      8  C   UNL     1       2.422   8.029  18.084  0.00  0.00    +0.000 A 
ATOM      9  C   UNL     1       2.622   6.908  18.946  0.00  0.00    +0.000 A 
ATOM     10  H   UNL     1       0.464   8.672  20.520  0.00  0.00    +0.000 HD
ENDROOT
BRANCH   1  17
ATOM     11  C   UNL     1       4.215   4.429  16.891  0.00  0.00    +0.000 A 
ATOM     12  C   UNL     1       5.165   4.215  15.876  0.00  0.00    +0.000 A 
ATOM     13  C   UNL     1       6.307   5.008  15.795  0.00  0.00    +0.000 A 
ATOM     14  C   UNL     1       6.509   5.995  16.740  0.00  0.00    +0.000 A 
ATOM     15  F   UNL     1       7.595   6.776  16.660  0.00  0.00    +0.000 F 
ATOM     16  C   UNL     1       5.597   6.197  17.772  0.00  0.00    +0.000 A 
ATOM     17  C   UNL     1       4.402   5.450  17.860  0.00  0.00    +0.000 A 
BRANCH  11  19
ATOM     18  C   UNL     1       3.116   2.395  17.446  0.00  0.00    +0.000 C 
ATOM     19  O   UNL     1       3.037   3.721  16.928  0.00  0.00    +0.000 OA
ENDBRANCH  11  19
ENDBRANCH   1  17
BRANCH   7  20
ATOM     20  C   UNL     1       1.089  10.272  18.267  0.00  0.00    +0.000 C 
ATOM     21  C   UNL     1       1.923  11.380  18.930  0.00  0.00    +0.000 C 
ATOM     22  C   UNL     1       1.421  12.772  18.552  0.00  0.00    +0.000 C 
ATOM     23  C   UNL     1      -0.072  12.924  18.864  0.00  0.00    +0.000 C 
ATOM     24  C   UNL     1      -0.894  11.844  18.153  0.00  0.00    +0.000 C 
ATOM     25  C   UNL     1      -0.412  10.446  18.531  0.00  0.00    +0.000 C 
BRANCH  23  26
ATOM     26  N   UNL     1      -0.548  14.246  18.467  0.00  0.00    +0.000 NA
ATOM     27  H   UNL     1       0.011  14.968  18.919  0.00  0.00    +0.000 HD
ATOM     28  H   UNL     1      -1.503  14.381  18.799  0.00  0.00    +0.000 HD
ENDBRANCH  23  26
ENDBRANCH   7  20
TORSDOF 4
ENDMDL
MODEL 9
REMARK VINA RESULT:      -7.0      3.616      7.834
REMARK  Name = 
REMARK  5 active torsions:
REMARK  status: ('A' for Active; 'I' for Inactive)
REMARK    1  A    between atoms: C_1  and  O_2
REMARK    2  A    between atoms: O_2  and  C_3
REMARK    3  A    between atoms: C_9  and  C_10
REMARK    4  A    between atoms: C_16  and  C_17
REMARK    5  A    between atoms: C_20  and  N_21
REMARK                            x       y       z     vdW  Elec       q    Type
REMARK                         _______ _______ _______ _____ _____    ______ ____
ROOT
ATOM      1  C   UNL     1      -0.082   9.848  20.080  0.00  0.00    +0.000 A 
ATOM      2  C   UNL     1      -0.333  10.147  21.434  0.00  0.00    +0.000 A 
ATOM      3  C   UNL     1       0.388   9.522  22.443  0.00  0.00    +0.000 A 
ATOM      4  N   UNL     1       1.332   8.580  22.263  0.00  0.00    +0.000 NA
ATOM      5  C   UNL     1       1.535   8.299  20.964  0.00  0.00    +0.000 A 
ATOM      6  N   UNL     1       2.421   7.350  20.537  0.00  0.00    +0.000 N 
ATOM      7  C   UNL     1       2.398   7.266  19.165  0.00  0.00    +0.000 A 
ATOM      8  C   UNL     1       1.531   8.246  18.719  0.00  0.00    +0.000 A 
ATOM      9  C   UNL     1       0.920   8.866  19.853  0.00  0.00    +0.000 A 
ATOM     10  H   UNL     1       2.977   6.793  21.166  0.00  0.00    +0.000 HD
ENDROOT
BRANCH   1  17
ATOM     11  C   UNL     1      -0.647  11.841  18.574  0.00  0.00    +0.000 A 
ATOM     12  C   UNL     1      -1.366  12.386  17.494  0.00  0.00    +0.000 A 
ATOM     13  C   UNL     1      -2.262  11.603  16.772  0.00  0.00    +0.000 A 
ATOM     14  C   UNL     1      -2.456  10.286  17.143  0.00  0.00    +0.000 A 
ATOM     15  F   UNL     1      -3.301   9.519  16.441  0.00  0.00    +0.000 F 
ATOM     16  C   UNL     1      -1.779   9.741  18.230  0.00  0.00    +0.000 A 
ATOM     17  C   UNL     1      -0.825  10.485  18.957  0.00  0.00    +0.000 A 
BRANCH  11  19
ATOM     18  C   UNL     1       1.564  12.716  18.573  0.00  0.00    +0.000 C 
ATOM     19  O   UNL     1       0.311  12.572  19.236  0.00  0.00    +0.000 OA
ENDBRANCH  11  19
ENDBRANCH   1  17
BRANCH   7  20
ATOM     20  C   UNL     1       3.213   6.270  18.391  0.00  0.00    +0.000 C 
ATOM     21  C   UNL     1       3.964   5.315  19.333  0.00  0.00    +0.000 C 
ATOM     22  C   UNL     1       4.848   4.337  18.563  0.00  0.00    +0.000 C 
ATOM     23  C   UNL     1       5.809   5.081  17.628  0.00  0.00    +0.000 C 
ATOM     24  C   UNL     1       5.042   5.987  16.661  0.00  0.00    +0.000 C 
ATOM     25  C   UNL     1       4.162   6.979  17.417  0.00  0.00    +0.000 C 
BRANCH  23  26
ATOM     26  N   UNL     1       6.626   4.135  16.873  0.00  0.00    +0.000 NA
ATOM     27  H   UNL     1       7.600   4.435  16.877  0.00  0.00    +0.000 HD
ATOM     28  H   UNL     1       6.335   4.135  15.895  0.00  0.00    +0.000 HD
ENDBRANCH  23  26
ENDBRANCH   7  20
TORSDOF 4
ENDMDL
