MODEL 1
REMARK VINA RESULT:      -9.1      0.000      0.000
REMARK  Name = 
REMARK  11 active torsions:
REMARK  status: ('A' for Active; 'I' for Inactive)
REMARK    1  A    between atoms: C_1  and  C_2
REMARK    2  A    between atoms: C_2  and  C_3
REMARK    3  A    between atoms: C_2  and  C_20
REMARK    4  A    between atoms: C_2  and  S_24
REMARK    5  A    between atoms: C_3  and  C_4
REMARK    6  A    between atoms: C_4  and  N_5
REMARK    7  A    between atoms: C_8  and  C_9
REMARK    8  A    between atoms: C_9  and  C_10
REMARK    9  A    between atoms: C_10  and  C_11
REMARK   10  A    between atoms: N_22  and  O_23
REMARK   11  A    between atoms: S_24  and  C_25
REMARK                            x       y       z     vdW  Elec       q    Type
REMARK                         _______ _______ _______ _____ _____    ______ ____
ROOT
ATOM      1  N   UNL     1       6.033   4.993  17.152  0.00  0.00    +0.000 N 
ATOM      2  C   UNL     1       6.991   4.727  18.116  0.00  0.00    +0.000 A 
ATOM      3  C   UNL     1       7.791   5.691  18.588  0.00  0.00    +0.000 A 
ATOM      4  C   UNL     1       7.678   7.053  18.097  0.00  0.00    +0.000 A 
ATOM      5  C   UNL     1       6.785   7.312  17.127  0.00  0.00    +0.000 A 
ATOM      6  C   UNL     1       5.863   6.268  16.621  0.00  0.00    +0.000 A 
ATOM      7  O   UNL     1       4.992   6.580  15.813  0.00  0.00    +0.000 OA
ENDROOT
BRANCH   1   8
ATOM      8  C   UNL     1       5.040   3.979  16.816  0.00  0.00    +0.000 C 
BRANCH   8   9
ATOM      9  C   UNL     1       3.624   4.311  17.311  0.00  0.00    +0.000 C 
BRANCH   9  11
ATOM     10  C   UNL     1       3.827   5.028  19.750  0.00  0.00    +0.000 C 
ATOM     11  C   UNL     1       3.378   3.910  18.791  0.00  0.00    +0.000 C 
BRANCH  11  12
ATOM     12  C   UNL     1       4.110   2.611  19.110  0.00  0.00    +0.000 C 
ATOM     13  O   UNL     1       4.961   2.524  19.997  0.00  0.00    +0.000 OA
ATOM     14  N   UNL     1       3.830   1.529  18.304  0.00  0.00    +0.000 N 
ATOM     15  H   UNL     1       2.906   1.406  17.877  0.00  0.00    +0.000 HD
BRANCH  14  16
ATOM     16  O   UNL     1       4.520   0.338  18.632  0.00  0.00    +0.000 OA
ATOM     17  H   UNL     1       4.718   0.453  19.588  0.00  0.00    +0.000 HD
ENDBRANCH  14  16
ENDBRANCH  11  12
BRANCH  11  18
ATOM     18  S   UNL     1       1.604   3.598  19.018  0.00  0.00    +0.000 S 
ATOM     19  C   UNL     1       1.024   4.767  20.231  0.00  0.00    +0.000 C 
ATOM     20  O   UNL     1       0.923   3.907  17.776  0.00  0.00    +0.000 OA
ATOM     21  O   UNL     1       1.472   2.274  19.606  0.00  0.00    +0.000 OA
ENDBRANCH  11  18
ENDBRANCH   9  11
ENDBRANCH   8   9
ENDBRANCH   1   8
BRANCH   4  22
ATOM     22  C   UNL     1       8.541   8.113  18.750  0.00  0.00    +0.000 C 
BRANCH  22  23
ATOM     23  C   UNL     1       8.398   9.505  18.116  0.00  0.00    +0.000 C 
BRANCH  23  24
ATOM     24  C   UNL     1       9.349  10.517  18.695  0.00  0.00    +0.000 A 
ATOM     25  C   UNL     1      10.193  11.256  17.855  0.00  0.00    +0.000 A 
ATOM     26  C   UNL     1      11.072  12.196  18.391  0.00  0.00    +0.000 A 
ATOM     27  C   UNL     1      11.113  12.405  19.768  0.00  0.00    +0.000 A 
ATOM     28  C   UNL     1      10.272  11.680  20.610  0.00  0.00    +0.000 A 
ATOM     29  C   UNL     1       9.394  10.737  20.077  0.00  0.00    +0.000 A 
ENDBRANCH  23  24
ENDBRANCH  22  23
ENDBRANCH   4  22
TORSDOF 9
ENDMDL
MODEL 2
REMARK VINA RESULT:      -8.9      1.009      1.402
REMARK  Name = 
REMARK  11 active torsions:
REMARK  status: ('A' for Active; 'I' for Inactive)
REMARK    1  A    between atoms: C_1  and  C_2
REMARK    2  A    between atoms: C_2  and  C_3
REMARK    3  A    between atoms: C_2  and  C_20
REMARK    4  A    between atoms: C_2  and  S_24
REMARK    5  A    between atoms: C_3  and  C_4
REMARK    6  A    between atoms: C_4  and  N_5
REMARK    7  A    between atoms: C_8  and  C_9
REMARK    8  A    between atoms: C_9  and  C_10
REMARK    9  A    between atoms: C_10  and  C_11
REMARK   10  A    between atoms: N_22  and  O_23
REMARK   11  A    between atoms: S_24  and  C_25
REMARK                            x       y       z     vdW  Elec       q    Type
REMARK                         _______ _______ _______ _____ _____    ______ ____
ROOT
ATOM      1  N   UNL     1       5.988   5.494  17.394  0.00  0.00    +0.000 N 
ATOM      2  C   UNL     1       5.535   6.685  16.853  0.00  0.00    +0.000 A 
ATOM      3  C   UNL     1       6.227   7.822  16.995  0.00  0.00    +0.000 A 
ATOM      4  C   UNL     1       7.480   7.840  17.727  0.00  0.00    +0.000 A 
ATOM      5  C   UNL     1       7.905   6.700  18.298  0.00  0.00    +0.000 A 
ATOM      6  C   UNL     1       7.175   5.423  18.119  0.00  0.00    +0.000 A 
ATOM      7  O   UNL     1       7.661   4.388  18.568  0.00  0.00    +0.000 OA
ENDROOT
BRANCH   1   8
ATOM      8  C   UNL     1       5.330   4.240  17.044  0.00  0.00    +0.000 C 
BRANCH   8   9
ATOM      9  C   UNL     1       3.814   4.247  17.291  0.00  0.00    +0.000 C 
BRANCH   9  11
ATOM     10  C   UNL     1       3.779   5.014  19.722  0.00  0.00    +0.000 C 
ATOM     11  C   UNL     1       3.424   3.877  18.747  0.00  0.00    +0.000 C 
BRANCH  11  12
ATOM     12  C   UNL     1       4.120   2.584  19.163  0.00  0.00    +0.000 C 
ATOM     13  O   UNL     1       4.847   2.507  20.155  0.00  0.00    +0.000 OA
ATOM     14  N   UNL     1       3.959   1.500  18.330  0.00  0.00    +0.000 N 
ATOM     15  H   UNL     1       3.100   1.367  17.785  0.00  0.00    +0.000 HD
BRANCH  14  16
ATOM     16  O   UNL     1       4.610   0.315  18.750  0.00  0.00    +0.000 OA
ATOM     17  H   UNL     1       4.268  -0.360  18.123  0.00  0.00    +0.000 HD
ENDBRANCH  14  16
ENDBRANCH  11  12
BRANCH  11  18
ATOM     18  S   UNL     1       1.636   3.568  18.807  0.00  0.00    +0.000 S 
ATOM     19  C   UNL     1       0.990   4.530  20.160  0.00  0.00    +0.000 C 
ATOM     20  O   UNL     1       1.041   4.094  17.594  0.00  0.00    +0.000 OA
ATOM     21  O   UNL     1       1.452   2.167  19.154  0.00  0.00    +0.000 OA
ENDBRANCH  11  18
ENDBRANCH   9  11
ENDBRANCH   8   9
ENDBRANCH   1   8
BRANCH   4  22
ATOM     22  C   UNL     1       8.263   9.137  17.757  0.00  0.00    +0.000 C 
BRANCH  22  23
ATOM     23  C   UNL     1       8.898   9.446  19.122  0.00  0.00    +0.000 C 
BRANCH  23  24
ATOM     24  C   UNL     1       9.722  10.704  19.119  0.00  0.00    +0.000 A 
ATOM     25  C   UNL     1      10.089  11.306  17.907  0.00  0.00    +0.000 A 
ATOM     26  C   UNL     1      10.851  12.473  17.903  0.00  0.00    +0.000 A 
ATOM     27  C   UNL     1      11.251  13.048  19.109  0.00  0.00    +0.000 A 
ATOM     28  C   UNL     1      10.885  12.459  20.318  0.00  0.00    +0.000 A 
ATOM     29  C   UNL     1      10.126  11.290  20.324  0.00  0.00    +0.000 A 
ENDBRANCH  23  24
ENDBRANCH  22  23
ENDBRANCH   4  22
TORSDOF 9
ENDMDL
MODEL 3
REMARK VINA RESULT:      -8.8      0.883      1.385
REMARK  Name = 
REMARK  11 active torsions:
REMARK  status: ('A' for Active; 'I' for Inactive)
REMARK    1  A    between atoms: C_1  and  C_2
REMARK    2  A    between atoms: C_2  and  C_3
REMARK    3  A    between atoms: C_2  and  C_20
REMARK    4  A    between atoms: C_2  and  S_24
REMARK    5  A    between atoms: C_3  and  C_4
REMARK    6  A    between atoms: C_4  and  N_5
REMARK    7  A    between atoms: C_8  and  C_9
REMARK    8  A    between atoms: C_9  and  C_10
REMARK    9  A    between atoms: C_10  and  C_11
REMARK   10  A    between atoms: N_22  and  O_23
REMARK   11  A    between atoms: S_24  and  C_25
REMARK                            x       y       z     vdW  Elec       q    Type
REMARK                         _______ _______ _______ _____ _____    ______ ____
ROOT
ATOM      1  N   UNL     1       5.915   5.024  17.066  0.00  0.00    +0.000 N 
ATOM      2  C   UNL     1       6.936   4.712  17.947  0.00  0.00    +0.000 A 
ATOM      3  C   UNL     1       7.755   5.656  18.427  0.00  0.00    +0.000 A 
ATOM      4  C   UNL     1       7.595   7.044  18.034  0.00  0.00    +0.000 A 
ATOM      5  C   UNL     1       6.639   7.352  17.142  0.00  0.00    +0.000 A 
ATOM      6  C   UNL     1       5.697   6.328  16.630  0.00  0.00    +0.000 A 
ATOM      7  O   UNL     1       4.772   6.678  15.901  0.00  0.00    +0.000 OA
ENDROOT
BRANCH   1   8
ATOM      8  C   UNL     1       4.913   4.019  16.730  0.00  0.00    +0.000 C 
BRANCH   8   9
ATOM      9  C   UNL     1       3.525   4.306  17.322  0.00  0.00    +0.000 C 
BRANCH   9  11
ATOM     10  C   UNL     1       4.080   4.874  19.745  0.00  0.00    +0.000 C 
ATOM     11  C   UNL     1       3.386   3.871  18.806  0.00  0.00    +0.000 C 
BRANCH  11  12
ATOM     12  C   UNL     1       3.967   2.474  18.998  0.00  0.00    +0.000 C 
ATOM     13  O   UNL     1       3.580   1.496  18.356  0.00  0.00    +0.000 OA
ATOM     14  N   UNL     1       4.912   2.328  19.989  0.00  0.00    +0.000 N 
ATOM     15  H   UNL     1       5.547   3.093  20.239  0.00  0.00    +0.000 HD
BRANCH  14  16
ATOM     16  O   UNL     1       5.436   1.021  20.136  0.00  0.00    +0.000 OA
ATOM     17  H   UNL     1       4.820   0.607  20.780  0.00  0.00    +0.000 HD
ENDBRANCH  14  16
ENDBRANCH  11  12
BRANCH  11  18
ATOM     18  S   UNL     1       1.620   3.782  19.219  0.00  0.00    +0.000 S 
ATOM     19  C   UNL     1       1.455   2.581  20.525  0.00  0.00    +0.000 C 
ATOM     20  O   UNL     1       1.214   5.060  19.768  0.00  0.00    +0.000 OA
ATOM     21  O   UNL     1       0.933   3.242  18.056  0.00  0.00    +0.000 OA
ENDBRANCH  11  18
ENDBRANCH   9  11
ENDBRANCH   8   9
ENDBRANCH   1   8
BRANCH   4  22
ATOM     22  C   UNL     1       8.488   8.073  18.697  0.00  0.00    +0.000 C 
BRANCH  22  23
ATOM     23  C   UNL     1       8.388   9.474  18.073  0.00  0.00    +0.000 C 
BRANCH  23  24
ATOM     24  C   UNL     1       9.373  10.451  18.656  0.00  0.00    +0.000 A 
ATOM     25  C   UNL     1       9.359  10.737  20.027  0.00  0.00    +0.000 A 
ATOM     26  C   UNL     1      10.273  11.639  20.568  0.00  0.00    +0.000 A 
ATOM     27  C   UNL     1      11.208  12.263  19.743  0.00  0.00    +0.000 A 
ATOM     28  C   UNL     1      11.233  11.979  18.378  0.00  0.00    +0.000 A 
ATOM     29  C   UNL     1      10.318  11.079  17.835  0.00  0.00    +0.000 A 
ENDBRANCH  23  24
ENDBRANCH  22  23
ENDBRANCH   4  22
TORSDOF 9
ENDMDL
MODEL 4
REMARK VINA RESULT:      -8.6      1.063      1.138
REMARK  Name = 
REMARK  11 active torsions:
REMARK  status: ('A' for Active; 'I' for Inactive)
REMARK    1  A    between atoms: C_1  and  C_2
REMARK    2  A    between atoms: C_2  and  C_3
REMARK    3  A    between atoms: C_2  and  C_20
REMARK    4  A    between atoms: C_2  and  S_24
REMARK    5  A    between atoms: C_3  and  C_4
REMARK    6  A    between atoms: C_4  and  N_5
REMARK    7  A    between atoms: C_8  and  C_9
REMARK    8  A    between atoms: C_9  and  C_10
REMARK    9  A    between atoms: C_10  and  C_11
REMARK   10  A    between atoms: N_22  and  O_23
REMARK   11  A    between atoms: S_24  and  C_25
REMARK                            x       y       z     vdW  Elec       q    Type
REMARK                         _______ _______ _______ _____ _____    ______ ____
ROOT
ATOM      1  N   UNL     1       5.631   5.543  17.484  0.00  0.00    +0.000 N 
ATOM      2  C   UNL     1       6.496   5.264  18.529  0.00  0.00    +0.000 A 
ATOM      3  C   UNL     1       7.491   6.099  18.852  0.00  0.00    +0.000 A 
ATOM      4  C   UNL     1       7.694   7.330  18.110  0.00  0.00    +0.000 A 
ATOM      5  C   UNL     1       6.892   7.588  17.063  0.00  0.00    +0.000 A 
ATOM      6  C   UNL     1       5.760   6.696  16.715  0.00  0.00    +0.000 A 
ATOM      7  O   UNL     1       4.989   7.030  15.819  0.00  0.00    +0.000 OA
ENDROOT
BRANCH   1   8
ATOM      8  C   UNL     1       4.436   4.729  17.294  0.00  0.00    +0.000 C 
BRANCH   8   9
ATOM      9  C   UNL     1       4.415   3.450  18.143  0.00  0.00    +0.000 C 
BRANCH   9  11
ATOM     10  C   UNL     1       3.178   4.949  19.794  0.00  0.00    +0.000 C 
ATOM     11  C   UNL     1       3.395   3.503  19.313  0.00  0.00    +0.000 C 
BRANCH  11  12
ATOM     12  C   UNL     1       3.874   2.625  20.465  0.00  0.00    +0.000 C 
ATOM     13  O   UNL     1       3.236   2.489  21.510  0.00  0.00    +0.000 OA
ATOM     14  N   UNL     1       5.108   2.032  20.319  0.00  0.00    +0.000 N 
ATOM     15  H   UNL     1       5.465   1.760  19.397  0.00  0.00    +0.000 HD
BRANCH  14  16
ATOM     16  O   UNL     1       5.518   1.219  21.402  0.00  0.00    +0.000 OA
ATOM     17  H   UNL     1       4.683   1.076  21.900  0.00  0.00    +0.000 HD
ENDBRANCH  14  16
ENDBRANCH  11  12
BRANCH  11  18
ATOM     18  S   UNL     1       1.816   2.817  18.734  0.00  0.00    +0.000 S 
ATOM     19  C   UNL     1       0.559   3.397  19.855  0.00  0.00    +0.000 C 
ATOM     20  O   UNL     1       1.519   3.388  17.435  0.00  0.00    +0.000 OA
ATOM     21  O   UNL     1       1.892   1.373  18.889  0.00  0.00    +0.000 OA
ENDBRANCH  11  18
ENDBRANCH   9  11
ENDBRANCH   8   9
ENDBRANCH   1   8
BRANCH   4  22
ATOM     22  C   UNL     1       8.771   8.278  18.596  0.00  0.00    +0.000 C 
BRANCH  22  23
ATOM     23  C   UNL     1       8.495   9.753  18.263  0.00  0.00    +0.000 C 
BRANCH  23  24
ATOM     24  C   UNL     1       9.551  10.685  18.792  0.00  0.00    +0.000 A 
ATOM     25  C   UNL     1      10.487  11.260  17.922  0.00  0.00    +0.000 A 
ATOM     26  C   UNL     1      11.464  12.126  18.411  0.00  0.00    +0.000 A 
ATOM     27  C   UNL     1      11.512  12.424  19.772  0.00  0.00    +0.000 A 
ATOM     28  C   UNL     1      10.580  11.861  20.643  0.00  0.00    +0.000 A 
ATOM     29  C   UNL     1       9.605  10.993  20.156  0.00  0.00    +0.000 A 
ENDBRANCH  23  24
ENDBRANCH  22  23
ENDBRANCH   4  22
TORSDOF 9
ENDMDL
MODEL 5
REMARK VINA RESULT:      -8.6      1.721      2.642
REMARK  Name = 
REMARK  11 active torsions:
REMARK  status: ('A' for Active; 'I' for Inactive)
REMARK    1  A    between atoms: C_1  and  C_2
REMARK    2  A    between atoms: C_2  and  C_3
REMARK    3  A    between atoms: C_2  and  C_20
REMARK    4  A    between atoms: C_2  and  S_24
REMARK    5  A    between atoms: C_3  and  C_4
REMARK    6  A    between atoms: C_4  and  N_5
REMARK    7  A    between atoms: C_8  and  C_9
REMARK    8  A    between atoms: C_9  and  C_10
REMARK    9  A    between atoms: C_10  and  C_11
REMARK   10  A    between atoms: N_22  and  O_23
REMARK   11  A    between atoms: S_24  and  C_25
REMARK                            x       y       z     vdW  Elec       q    Type
REMARK                         _______ _______ _______ _____ _____    ______ ____
ROOT
ATOM      1  N   UNL     1       6.195   5.055  17.908  0.00  0.00    +0.000 N 
ATOM      2  C   UNL     1       7.178   5.388  18.825  0.00  0.00    +0.000 A 
ATOM      3  C   UNL     1       7.814   6.564  18.768  0.00  0.00    +0.000 A 
ATOM      4  C   UNL     1       7.490   7.531  17.734  0.00  0.00    +0.000 A 
ATOM      5  C   UNL     1       6.573   7.199  16.810  0.00  0.00    +0.000 A 
ATOM      6  C   UNL     1       5.830   5.919  16.880  0.00  0.00    +0.000 A 
ATOM      7  O   UNL     1       4.925   5.709  16.076  0.00  0.00    +0.000 OA
ENDROOT
BRANCH   1   8
ATOM      8  C   UNL     1       5.376   3.867  18.121  0.00  0.00    +0.000 C 
BRANCH   8   9
ATOM      9  C   UNL     1       4.399   3.992  19.300  0.00  0.00    +0.000 C 
BRANCH   9  11
ATOM     10  C   UNL     1       2.716   3.742  17.400  0.00  0.00    +0.000 C 
ATOM     11  C   UNL     1       2.923   4.185  18.860  0.00  0.00    +0.000 C 
BRANCH  11  12
ATOM     12  C   UNL     1       2.511   5.644  19.035  0.00  0.00    +0.000 C 
ATOM     13  O   UNL     1       2.174   6.361  18.092  0.00  0.00    +0.000 OA
ATOM     14  N   UNL     1       2.599   6.162  20.308  0.00  0.00    +0.000 N 
ATOM     15  H   UNL     1       2.454   5.574  21.136  0.00  0.00    +0.000 HD
BRANCH  14  16
ATOM     16  O   UNL     1       2.201   7.514  20.438  0.00  0.00    +0.000 OA
ATOM     17  H   UNL     1       2.882   7.996  19.918  0.00  0.00    +0.000 HD
ENDBRANCH  14  16
ENDBRANCH  11  12
BRANCH  11  18
ATOM     18  S   UNL     1       1.861   3.192  19.947  0.00  0.00    +0.000 S 
ATOM     19  C   UNL     1       2.836   2.767  21.375  0.00  0.00    +0.000 C 
ATOM     20  O   UNL     1       0.773   4.029  20.413  0.00  0.00    +0.000 OA
ATOM     21  O   UNL     1       1.568   1.951  19.246  0.00  0.00    +0.000 OA
ENDBRANCH  11  18
ENDBRANCH   9  11
ENDBRANCH   8   9
ENDBRANCH   1   8
BRANCH   4  22
ATOM     22  C   UNL     1       8.173   8.883  17.793  0.00  0.00    +0.000 C 
BRANCH  22  23
ATOM     23  C   UNL     1       8.904   9.151  19.118  0.00  0.00    +0.000 C 
BRANCH  23  24
ATOM     24  C   UNL     1       9.552  10.507  19.170  0.00  0.00    +0.000 A 
ATOM     25  C   UNL     1       9.836  11.109  20.403  0.00  0.00    +0.000 A 
ATOM     26  C   UNL     1      10.439  12.365  20.452  0.00  0.00    +0.000 A 
ATOM     27  C   UNL     1      10.763  13.028  19.270  0.00  0.00    +0.000 A 
ATOM     28  C   UNL     1      10.490  12.434  18.038  0.00  0.00    +0.000 A 
ATOM     29  C   UNL     1       9.885  11.179  17.987  0.00  0.00    +0.000 A 
ENDBRANCH  23  24
ENDBRANCH  22  23
ENDBRANCH   4  22
TORSDOF 9
ENDMDL
MODEL 6
REMARK VINA RESULT:      -8.6      1.619      2.376
REMARK  Name = 
REMARK  11 active torsions:
REMARK  status: ('A' for Active; 'I' for Inactive)
REMARK    1  A    between atoms: C_1  and  C_2
REMARK    2  A    between atoms: C_2  and  C_3
REMARK    3  A    between atoms: C_2  and  C_20
REMARK    4  A    between atoms: C_2  and  S_24
REMARK    5  A    between atoms: C_3  and  C_4
REMARK    6  A    between atoms: C_4  and  N_5
REMARK    7  A    between atoms: C_8  and  C_9
REMARK    8  A    between atoms: C_9  and  C_10
REMARK    9  A    between atoms: C_10  and  C_11
REMARK   10  A    between atoms: N_22  and  O_23
REMARK   11  A    between atoms: S_24  and  C_25
REMARK                            x       y       z     vdW  Elec       q    Type
REMARK                         _______ _______ _______ _____ _____    ______ ____
ROOT
ATOM      1  N   UNL     1       5.980   5.163  17.558  0.00  0.00    +0.000 N 
ATOM      2  C   UNL     1       6.831   4.972  18.634  0.00  0.00    +0.000 A 
ATOM      3  C   UNL     1       7.709   5.912  19.004  0.00  0.00    +0.000 A 
ATOM      4  C   UNL     1       7.798   7.167  18.281  0.00  0.00    +0.000 A 
ATOM      5  C   UNL     1       7.012   7.345  17.205  0.00  0.00    +0.000 A 
ATOM      6  C   UNL     1       6.005   6.334  16.805  0.00  0.00    +0.000 A 
ATOM      7  O   UNL     1       5.236   6.589  15.882  0.00  0.00    +0.000 OA
ENDROOT
BRANCH   1   8
ATOM      8  C   UNL     1       4.895   4.220  17.313  0.00  0.00    +0.000 C 
BRANCH   8   9
ATOM      9  C   UNL     1       4.146   3.794  18.584  0.00  0.00    +0.000 C 
BRANCH   9  11
ATOM     10  C   UNL     1       2.029   3.867  17.165  0.00  0.00    +0.000 C 
ATOM     11  C   UNL     1       2.633   4.141  18.554  0.00  0.00    +0.000 C 
BRANCH  11  12
ATOM     12  C   UNL     1       2.423   5.600  18.946  0.00  0.00    +0.000 C 
ATOM     13  O   UNL     1       2.107   6.471  18.134  0.00  0.00    +0.000 OA
ATOM     14  N   UNL     1       2.673   5.929  20.260  0.00  0.00    +0.000 N 
ATOM     15  H   UNL     1       2.521   5.256  21.018  0.00  0.00    +0.000 HD
BRANCH  14  16
ATOM     16  O   UNL     1       2.460   7.289  20.592  0.00  0.00    +0.000 OA
ATOM     17  H   UNL     1       2.333   7.262  21.566  0.00  0.00    +0.000 HD
ENDBRANCH  14  16
ENDBRANCH  11  12
BRANCH  11  18
ATOM     18  S   UNL     1       1.781   3.123  19.792  0.00  0.00    +0.000 S 
ATOM     19  C   UNL     1       2.967   2.765  21.072  0.00  0.00    +0.000 C 
ATOM     20  O   UNL     1       0.735   3.921  20.399  0.00  0.00    +0.000 OA
ATOM     21  O   UNL     1       1.448   1.858  19.154  0.00  0.00    +0.000 OA
ENDBRANCH  11  18
ENDBRANCH   9  11
ENDBRANCH   8   9
ENDBRANCH   1   8
BRANCH   4  22
ATOM     22  C   UNL     1       8.739   8.227  18.818  0.00  0.00    +0.000 C 
BRANCH  22  23
ATOM     23  C   UNL     1       8.490   9.628  18.238  0.00  0.00    +0.000 C 
BRANCH  23  24
ATOM     24  C   UNL     1       9.468  10.656  18.738  0.00  0.00    +0.000 A 
ATOM     25  C   UNL     1      10.263  11.374  17.835  0.00  0.00    +0.000 A 
ATOM     26  C   UNL     1      11.168  12.328  18.297  0.00  0.00    +0.000 A 
ATOM     27  C   UNL     1      11.284  12.573  19.664  0.00  0.00    +0.000 A 
ATOM     28  C   UNL     1      10.492  11.868  20.570  0.00  0.00    +0.000 A 
ATOM     29  C   UNL     1       9.589  10.911  20.109  0.00  0.00    +0.000 A 
ENDBRANCH  23  24
ENDBRANCH  22  23
ENDBRANCH   4  22
TORSDOF 9
ENDMDL
MODEL 7
REMARK VINA RESULT:      -8.6      1.913      2.995
REMARK  Name = 
REMARK  11 active torsions:
REMARK  status: ('A' for Active; 'I' for Inactive)
REMARK    1  A    between atoms: C_1  and  C_2
REMARK    2  A    between atoms: C_2  and  C_3
REMARK    3  A    between atoms: C_2  and  C_20
REMARK    4  A    between atoms: C_2  and  S_24
REMARK    5  A    between atoms: C_3  and  C_4
REMARK    6  A    between atoms: C_4  and  N_5
REMARK    7  A    between atoms: C_8  and  C_9
REMARK    8  A    between atoms: C_9  and  C_10
REMARK    9  A    between atoms: C_10  and  C_11
REMARK   10  A    between atoms: N_22  and  O_23
REMARK   11  A    between atoms: S_24  and  C_25
REMARK                            x       y       z     vdW  Elec       q    Type
REMARK                         _______ _______ _______ _____ _____    ______ ____
ROOT
ATOM      1  N   UNL     1       6.679   5.868  18.138  0.00  0.00    +0.000 N 
ATOM      2  C   UNL     1       6.236   6.881  17.304  0.00  0.00    +0.000 A 
ATOM      3  C   UNL     1       6.844   8.072  17.270  0.00  0.00    +0.000 A 
ATOM      4  C   UNL     1       7.995   8.339  18.113  0.00  0.00    +0.000 A 
ATOM      5  C   UNL     1       8.405   7.381  18.962  0.00  0.00    +0.000 A 
ATOM      6  C   UNL     1       7.770   6.043  18.985  0.00  0.00    +0.000 A 
ATOM      7  O   UNL     1       8.249   5.166  19.700  0.00  0.00    +0.000 OA
ENDROOT
BRANCH   1   8
ATOM      8  C   UNL     1       6.136   4.522  17.999  0.00  0.00    +0.000 C 
BRANCH   8   9
ATOM      9  C   UNL     1       5.136   4.141  19.101  0.00  0.00    +0.000 C 
BRANCH   9  11
ATOM     10  C   UNL     1       3.517   4.313  17.138  0.00  0.00    +0.000 C 
ATOM     11  C   UNL     1       3.653   4.305  18.671  0.00  0.00    +0.000 C 
BRANCH  11  12
ATOM     12  C   UNL     1       3.075   5.587  19.263  0.00  0.00    +0.000 C 
ATOM     13  O   UNL     1       3.110   6.669  18.674  0.00  0.00    +0.000 OA
ATOM     14  N   UNL     1       2.563   5.503  20.539  0.00  0.00    +0.000 N 
ATOM     15  H   UNL     1       2.133   4.640  20.887  0.00  0.00    +0.000 HD
BRANCH  14  16
ATOM     16  O   UNL     1       2.028   6.708  21.054  0.00  0.00    +0.000 OA
ATOM     17  H   UNL     1       2.613   7.395  20.665  0.00  0.00    +0.000 HD
ENDBRANCH  14  16
ENDBRANCH  11  12
BRANCH  11  18
ATOM     18  S   UNL     1       2.697   2.919  19.353  0.00  0.00    +0.000 S 
ATOM     19  C   UNL     1       3.064   1.495  18.349  0.00  0.00    +0.000 C 
ATOM     20  O   UNL     1       3.192   2.635  20.686  0.00  0.00    +0.000 OA
ATOM     21  O   UNL     1       1.289   3.229  19.156  0.00  0.00    +0.000 OA
ENDBRANCH  11  18
ENDBRANCH   9  11
ENDBRANCH   8   9
ENDBRANCH   1   8
BRANCH   4  22
ATOM     22  C   UNL     1       8.699   9.671  17.947  0.00  0.00    +0.000 C 
BRANCH  22  23
ATOM     23  C   UNL     1       9.301  10.222  19.250  0.00  0.00    +0.000 C 
BRANCH  23  24
ATOM     24  C   UNL     1      10.335  11.288  19.017  0.00  0.00    +0.000 A 
ATOM     25  C   UNL     1      10.787  11.565  17.720  0.00  0.00    +0.000 A 
ATOM     26  C   UNL     1      11.744  12.555  17.504  0.00  0.00    +0.000 A 
ATOM     27  C   UNL     1      12.257  13.276  18.582  0.00  0.00    +0.000 A 
ATOM     28  C   UNL     1      11.808  13.011  19.875  0.00  0.00    +0.000 A 
ATOM     29  C   UNL     1      10.853  12.019  20.093  0.00  0.00    +0.000 A 
ENDBRANCH  23  24
ENDBRANCH  22  23
ENDBRANCH   4  22
TORSDOF 9
ENDMDL
MODEL 8
REMARK VINA RESULT:      -8.5      1.499      1.885
REMARK  Name = 
REMARK  11 active torsions:
REMARK  status: ('A' for Active; 'I' for Inactive)
REMARK    1  A    between atoms: C_1  and  C_2
REMARK    2  A    between atoms: C_2  and  C_3
REMARK    3  A    between atoms: C_2  and  C_20
REMARK    4  A    between atoms: C_2  and  S_24
REMARK    5  A    between atoms: C_3  and  C_4
REMARK    6  A    between atoms: C_4  and  N_5
REMARK    7  A    between atoms: C_8  and  C_9
REMARK    8  A    between atoms: C_9  and  C_10
REMARK    9  A    between atoms: C_10  and  C_11
REMARK   10  A    between atoms: N_22  and  O_23
REMARK   11  A    between atoms: S_24  and  C_25
REMARK                            x       y       z     vdW  Elec       q    Type
REMARK                         _______ _______ _______ _____ _____    ______ ____
ROOT
ATOM      1  N   UNL     1       6.195   5.398  17.709  0.00  0.00    +0.000 N 
ATOM      2  C   UNL     1       7.179   5.237  18.670  0.00  0.00    +0.000 A 
ATOM      3  C   UNL     1       8.036   6.224  18.961  0.00  0.00    +0.000 A 
ATOM      4  C   UNL     1       7.958   7.499  18.272  0.00  0.00    +0.000 A 
ATOM      5  C   UNL     1       7.039   7.649  17.303  0.00  0.00    +0.000 A 
ATOM      6  C   UNL     1       6.056   6.584  16.995  0.00  0.00    +0.000 A 
ATOM      7  O   UNL     1       5.166   6.810  16.178  0.00  0.00    +0.000 OA
ENDROOT
BRANCH   1   8
ATOM      8  C   UNL     1       5.148   4.392  17.566  0.00  0.00    +0.000 C 
BRANCH   8   9
ATOM      9  C   UNL     1       4.490   3.989  18.894  0.00  0.00    +0.000 C 
BRANCH   9  11
ATOM     10  C   UNL     1       2.479   5.365  18.143  0.00  0.00    +0.000 C 
ATOM     11  C   UNL     1       2.941   4.089  18.870  0.00  0.00    +0.000 C 
BRANCH  11  12
ATOM     12  C   UNL     1       2.393   4.060  20.293  0.00  0.00    +0.000 C 
ATOM     13  O   UNL     1       1.642   4.931  20.737  0.00  0.00    +0.000 OA
ATOM     14  N   UNL     1       2.834   3.039  21.105  0.00  0.00    +0.000 N 
ATOM     15  H   UNL     1       3.079   2.120  20.723  0.00  0.00    +0.000 HD
BRANCH  14  16
ATOM     16  O   UNL     1       2.299   3.037  22.416  0.00  0.00    +0.000 OA
ATOM     17  H   UNL     1       1.389   3.384  22.284  0.00  0.00    +0.000 HD
ENDBRANCH  14  16
ENDBRANCH  11  12
BRANCH  11  18
ATOM     18  S   UNL     1       2.281   2.633  18.009  0.00  0.00    +0.000 S 
ATOM     19  C   UNL     1       0.646   2.348  18.656  0.00  0.00    +0.000 C 
ATOM     20  O   UNL     1       2.127   2.963  16.606  0.00  0.00    +0.000 OA
ATOM     21  O   UNL     1       3.098   1.495  18.400  0.00  0.00    +0.000 OA
ENDBRANCH  11  18
ENDBRANCH   9  11
ENDBRANCH   8   9
ENDBRANCH   1   8
BRANCH   4  22
ATOM     22  C   UNL     1       8.889   8.605  18.725  0.00  0.00    +0.000 C 
BRANCH  22  23
ATOM     23  C   UNL     1       8.529   9.988  18.162  0.00  0.00    +0.000 C 
BRANCH  23  24
ATOM     24  C   UNL     1       9.405  11.089  18.695  0.00  0.00    +0.000 A 
ATOM     25  C   UNL     1       9.926  12.060  17.829  0.00  0.00    +0.000 A 
ATOM     26  C   UNL     1      10.736  13.082  18.323  0.00  0.00    +0.000 A 
ATOM     27  C   UNL     1      11.031  13.141  19.684  0.00  0.00    +0.000 A 
ATOM     28  C   UNL     1      10.511  12.182  20.553  0.00  0.00    +0.000 A 
ATOM     29  C   UNL     1       9.703  11.158  20.061  0.00  0.00    +0.000 A 
ENDBRANCH  23  24
ENDBRANCH  22  23
ENDBRANCH   4  22
TORSDOF 9
ENDMDL
MODEL 9
REMARK VINA RESULT:      -8.3      1.694      2.498
REMARK  Name = 
REMARK  11 active torsions:
REMARK  status: ('A' for Active; 'I' for Inactive)
REMARK    1  A    between atoms: C_1  and  C_2
REMARK    2  A    between atoms: C_2  and  C_3
REMARK    3  A    between atoms: C_2  and  C_20
REMARK    4  A    between atoms: C_2  and  S_24
REMARK    5  A    between atoms: C_3  and  C_4
REMARK    6  A    between atoms: C_4  and  N_5
REMARK    7  A    between atoms: C_8  and  C_9
REMARK    8  A    between atoms: C_9  and  C_10
REMARK    9  A    between atoms: C_10  and  C_11
REMARK   10  A    between atoms: N_22  and  O_23
REMARK   11  A    between atoms: S_24  and  C_25
REMARK                            x       y       z     vdW  Elec       q    Type
REMARK                         _______ _______ _______ _____ _____    ______ ____
ROOT
ATOM      1  N   UNL     1       6.085   5.789  17.844  0.00  0.00    +0.000 N 
ATOM      2  C   UNL     1       5.615   6.972  17.300  0.00  0.00    +0.000 A 
ATOM      3  C   UNL     1       6.348   8.092  17.327  0.00  0.00    +0.000 A 
ATOM      4  C   UNL     1       7.667   8.097  17.933  0.00  0.00    +0.000 A 
ATOM      5  C   UNL     1       8.114   6.968  18.508  0.00  0.00    +0.000 A 
ATOM      6  C   UNL     1       7.334   5.709  18.453  0.00  0.00    +0.000 A 
ATOM      7  O   UNL     1       7.832   4.677  18.896  0.00  0.00    +0.000 OA
ENDROOT
BRANCH   1   8
ATOM      8  C   UNL     1       5.361   4.545  17.612  0.00  0.00    +0.000 C 
BRANCH   8   9
ATOM      9  C   UNL     1       4.700   3.968  18.872  0.00  0.00    +0.000 C 
BRANCH   9  11
ATOM     10  C   UNL     1       2.695   5.384  18.182  0.00  0.00    +0.000 C 
ATOM     11  C   UNL     1       3.151   4.082  18.864  0.00  0.00    +0.000 C 
BRANCH  11  12
ATOM     12  C   UNL     1       2.614   4.013  20.290  0.00  0.00    +0.000 C 
ATOM     13  O   UNL     1       1.969   4.928  20.806  0.00  0.00    +0.000 OA
ATOM     14  N   UNL     1       2.944   2.894  21.021  0.00  0.00    +0.000 N 
ATOM     15  H   UNL     1       3.081   1.982  20.572  0.00  0.00    +0.000 HD
BRANCH  14  16
ATOM     16  O   UNL     1       2.422   2.858  22.337  0.00  0.00    +0.000 OA
ATOM     17  H   UNL     1       2.460   1.903  22.564  0.00  0.00    +0.000 HD
ENDBRANCH  14  16
ENDBRANCH  11  12
BRANCH  11  18
ATOM     18  S   UNL     1       2.471   2.660  17.963  0.00  0.00    +0.000 S 
ATOM     19  C   UNL     1       0.864   2.330  18.656  0.00  0.00    +0.000 C 
ATOM     20  O   UNL     1       2.263   3.050  16.583  0.00  0.00    +0.000 OA
ATOM     21  O   UNL     1       3.311   1.513  18.272  0.00  0.00    +0.000 OA
ENDBRANCH  11  18
ENDBRANCH   9  11
ENDBRANCH   8   9
ENDBRANCH   1   8
BRANCH   4  22
ATOM     22  C   UNL     1       8.485   9.369  17.835  0.00  0.00    +0.000 C 
BRANCH  22  23
ATOM     23  C   UNL     1       9.136   9.792  19.161  0.00  0.00    +0.000 C 
BRANCH  23  24
ATOM     24  C   UNL     1      10.046  10.981  19.019  0.00  0.00    +0.000 A 
ATOM     25  C   UNL     1      10.476  11.683  20.154  0.00  0.00    +0.000 A 
ATOM     26  C   UNL     1      11.321  12.783  20.023  0.00  0.00    +0.000 A 
ATOM     27  C   UNL     1      11.743  13.191  18.758  0.00  0.00    +0.000 A 
ATOM     28  C   UNL     1      11.325  12.495  17.625  0.00  0.00    +0.000 A 
ATOM     29  C   UNL     1      10.478  11.396  17.753  0.00  0.00    +0.000 A 
ENDBRANCH  23  24
ENDBRANCH  22  23
ENDBRANCH   4  22
TORSDOF 9
ENDMDL
