MODEL 1
REMARK VINA RESULT:      -8.3      0.000      0.000
REMARK  Name = 
REMARK  5 active torsions:
REMARK  status: ('A' for Active; 'I' for Inactive)
REMARK    1  A    between atoms: N_1  and  C_2
REMARK    2  A    between atoms: C_4  and  C_5
REMARK    3  A    between atoms: C_15  and  O_16
REMARK    4  A    between atoms: N_17  and  C_18
REMARK    5  A    between atoms: C_18  and  C_19
REMARK                            x       y       z     vdW  Elec       q    Type
REMARK                         _______ _______ _______ _____ _____    ______ ____
ROOT
ATOM      1  C   UNL     1       2.190   3.962  20.951  0.00  0.00    +0.000 A 
ATOM      2  N   UNL     1       1.869   5.278  20.950  0.00  0.00    +0.000 NA
ATOM      3  C   UNL     1       2.118   6.024  19.844  0.00  0.00    +0.000 A 
ATOM      4  N   UNL     1       2.680   5.587  18.695  0.00  0.00    +0.000 NA
ATOM      5  C   UNL     1       2.968   4.281  18.739  0.00  0.00    +0.000 A 
ATOM      6  C   UNL     1       2.750   3.406  19.789  0.00  0.00    +0.000 A 
ATOM      7  N   UNL     1       3.181   2.133  19.464  0.00  0.00    +0.000 NA
ATOM      8  C   UNL     1       3.693   2.268  18.267  0.00  0.00    +0.000 A 
ATOM      9  N   UNL     1       3.600   3.541  17.777  0.00  0.00    +0.000 N 
ENDROOT
BRANCH   3  10
ATOM     10  C   UNL     1       1.755   7.457  19.890  0.00  0.00    +0.000 A 
ATOM     11  C   UNL     1       1.881   8.293  18.768  0.00  0.00    +0.000 A 
ATOM     12  C   UNL     1       1.521   9.644  18.822  0.00  0.00    +0.000 A 
ATOM     13  C   UNL     1       1.032  10.192  20.004  0.00  0.00    +0.000 A 
ATOM     14  C   UNL     1       0.901   9.388  21.134  0.00  0.00    +0.000 A 
ATOM     15  C   UNL     1       1.257   8.041  21.074  0.00  0.00    +0.000 A 
ENDBRANCH   3  10
BRANCH   1  16
ATOM     16  N   UNL     1       1.960   3.239  22.115  0.00  0.00    +0.000 N 
ATOM     17  H   UNL     1       2.564   3.531  22.873  0.00  0.00    +0.000 HD
ATOM     18  H   UNL     1       0.979   3.088  22.322  0.00  0.00    +0.000 HD
ENDBRANCH   1  16
BRANCH   8  19
ATOM     19  O   UNL     1       4.288   1.274  17.638  0.00  0.00    +0.000 OA
ATOM     20  H   UNL     1       4.473   0.655  18.368  0.00  0.00    +0.000 HD
ENDBRANCH   8  19
BRANCH   9  21
ATOM     21  C   UNL     1       4.303   4.083  16.635  0.00  0.00    +0.000 C 
BRANCH  21  22
ATOM     22  C   UNL     1       5.473   4.965  16.991  0.00  0.00    +0.000 A 
ATOM     23  C   UNL     1       5.447   6.339  16.712  0.00  0.00    +0.000 A 
ATOM     24  C   UNL     1       6.465   7.175  17.179  0.00  0.00    +0.000 A 
ATOM     25  C   UNL     1       7.523   6.644  17.915  0.00  0.00    +0.000 A 
ATOM     26  C   UNL     1       7.581   5.274  18.160  0.00  0.00    +0.000 A 
ATOM     27  C   UNL     1       6.565   4.437  17.693  0.00  0.00    +0.000 A 
ENDBRANCH  21  22
ENDBRANCH   9  21
TORSDOF 5
ENDMDL
MODEL 2
REMARK VINA RESULT:      -8.1      0.266      1.017
REMARK  Name = 
REMARK  5 active torsions:
REMARK  status: ('A' for Active; 'I' for Inactive)
REMARK    1  A    between atoms: N_1  and  C_2
REMARK    2  A    between atoms: C_4  and  C_5
REMARK    3  A    between atoms: C_15  and  O_16
REMARK    4  A    between atoms: N_17  and  C_18
REMARK    5  A    between atoms: C_18  and  C_19
REMARK                            x       y       z     vdW  Elec       q    Type
REMARK                         _______ _______ _______ _____ _____    ______ ____
ROOT
ATOM      1  C   UNL     1       1.983   3.938  20.950  0.00  0.00    +0.000 A 
ATOM      2  N   UNL     1       1.677   5.256  21.009  0.00  0.00    +0.000 NA
ATOM      3  C   UNL     1       2.015   6.066  19.973  0.00  0.00    +0.000 A 
ATOM      4  N   UNL     1       2.655   5.693  18.844  0.00  0.00    +0.000 NA
ATOM      5  C   UNL     1       2.926   4.383  18.826  0.00  0.00    +0.000 A 
ATOM      6  C   UNL     1       2.622   3.447  19.800  0.00  0.00    +0.000 A 
ATOM      7  N   UNL     1       3.062   2.190  19.427  0.00  0.00    +0.000 NA
ATOM      8  C   UNL     1       3.663   2.392  18.282  0.00  0.00    +0.000 A 
ATOM      9  N   UNL     1       3.620   3.695  17.868  0.00  0.00    +0.000 N 
ENDROOT
BRANCH   3  10
ATOM     10  C   UNL     1       1.664   7.499  20.083  0.00  0.00    +0.000 A 
ATOM     11  C   UNL     1       1.751   8.372  18.987  0.00  0.00    +0.000 A 
ATOM     12  C   UNL     1       1.404   9.723  19.102  0.00  0.00    +0.000 A 
ATOM     13  C   UNL     1       0.965  10.232  20.321  0.00  0.00    +0.000 A 
ATOM     14  C   UNL     1       0.873   9.390  21.427  0.00  0.00    +0.000 A 
ATOM     15  C   UNL     1       1.216   8.044  21.306  0.00  0.00    +0.000 A 
ENDBRANCH   3  10
BRANCH   1  16
ATOM     16  N   UNL     1       1.659   3.148  22.046  0.00  0.00    +0.000 N 
ATOM     17  H   UNL     1       0.902   3.539  22.590  0.00  0.00    +0.000 HD
ATOM     18  H   UNL     1       1.637   2.154  21.849  0.00  0.00    +0.000 HD
ENDBRANCH   1  16
BRANCH   8  19
ATOM     19  O   UNL     1       4.293   1.431  17.637  0.00  0.00    +0.000 OA
ATOM     20  H   UNL     1       4.688   1.915  16.889  0.00  0.00    +0.000 HD
ENDBRANCH   8  19
BRANCH   9  21
ATOM     21  C   UNL     1       4.412   4.296  16.817  0.00  0.00    +0.000 C 
BRANCH  21  22
ATOM     22  C   UNL     1       5.518   5.191  17.312  0.00  0.00    +0.000 A 
ATOM     23  C   UNL     1       6.545   4.684  18.123  0.00  0.00    +0.000 A 
ATOM     24  C   UNL     1       7.646   5.479  18.452  0.00  0.00    +0.000 A 
ATOM     25  C   UNL     1       7.724   6.791  17.987  0.00  0.00    +0.000 A 
ATOM     26  C   UNL     1       6.688   7.319  17.219  0.00  0.00    +0.000 A 
ATOM     27  C   UNL     1       5.587   6.526  16.890  0.00  0.00    +0.000 A 
ENDBRANCH  21  22
ENDBRANCH   9  21
TORSDOF 5
ENDMDL
MODEL 3
REMARK VINA RESULT:      -7.9      0.741      1.254
REMARK  Name = 
REMARK  5 active torsions:
REMARK  status: ('A' for Active; 'I' for Inactive)
REMARK    1  A    between atoms: N_1  and  C_2
REMARK    2  A    between atoms: C_4  and  C_5
REMARK    3  A    between atoms: C_15  and  O_16
REMARK    4  A    between atoms: N_17  and  C_18
REMARK    5  A    between atoms: C_18  and  C_19
REMARK                            x       y       z     vdW  Elec       q    Type
REMARK                         _______ _______ _______ _____ _____    ______ ____
ROOT
ATOM      1  C   UNL     1       2.046   4.318  20.642  0.00  0.00    +0.000 A 
ATOM      2  N   UNL     1       1.670   5.610  20.796  0.00  0.00    +0.000 NA
ATOM      3  C   UNL     1       2.015   6.523  19.852  0.00  0.00    +0.000 A 
ATOM      4  N   UNL     1       2.728   6.280  18.730  0.00  0.00    +0.000 NA
ATOM      5  C   UNL     1       3.066   4.991  18.615  0.00  0.00    +0.000 A 
ATOM      6  C   UNL     1       2.764   3.961  19.489  0.00  0.00    +0.000 A 
ATOM      7  N   UNL     1       3.286   2.763  19.034  0.00  0.00    +0.000 NA
ATOM      8  C   UNL     1       3.930   3.093  17.944  0.00  0.00    +0.000 A 
ATOM      9  N   UNL     1       3.840   4.423  17.640  0.00  0.00    +0.000 N 
ENDROOT
BRANCH   3  10
ATOM     10  C   UNL     1       1.587   7.922  20.065  0.00  0.00    +0.000 A 
ATOM     11  C   UNL     1       1.181   8.393  21.325  0.00  0.00    +0.000 A 
ATOM     12  C   UNL     1       0.791   9.724  21.514  0.00  0.00    +0.000 A 
ATOM     13  C   UNL     1       0.793  10.613  20.444  0.00  0.00    +0.000 A 
ATOM     14  C   UNL     1       1.186  10.174  19.182  0.00  0.00    +0.000 A 
ATOM     15  C   UNL     1       1.578   8.848  18.999  0.00  0.00    +0.000 A 
ENDBRANCH   3  10
BRANCH   1  16
ATOM     16  N   UNL     1       1.710   3.421  21.648  0.00  0.00    +0.000 N 
ATOM     17  H   UNL     1       0.722   3.204  21.653  0.00  0.00    +0.000 HD
ATOM     18  H   UNL     1       2.364   2.655  21.755  0.00  0.00    +0.000 HD
ENDBRANCH   1  16
BRANCH   8  19
ATOM     19  O   UNL     1       4.639   2.222  17.254  0.00  0.00    +0.000 OA
ATOM     20  H   UNL     1       5.209   2.804  16.718  0.00  0.00    +0.000 HD
ENDBRANCH   8  19
BRANCH   9  21
ATOM     21  C   UNL     1       4.650   5.150  16.688  0.00  0.00    +0.000 C 
BRANCH  21  22
ATOM     22  C   UNL     1       5.918   5.725  17.266  0.00  0.00    +0.000 A 
ATOM     23  C   UNL     1       6.342   7.018  16.924  0.00  0.00    +0.000 A 
ATOM     24  C   UNL     1       7.431   7.601  17.577  0.00  0.00    +0.000 A 
ATOM     25  C   UNL     1       8.114   6.894  18.565  0.00  0.00    +0.000 A 
ATOM     26  C   UNL     1       7.729   5.593  18.881  0.00  0.00    +0.000 A 
ATOM     27  C   UNL     1       6.642   5.008  18.229  0.00  0.00    +0.000 A 
ENDBRANCH  21  22
ENDBRANCH   9  21
TORSDOF 5
ENDMDL
MODEL 4
REMARK VINA RESULT:      -7.8      0.973      1.129
REMARK  Name = 
REMARK  5 active torsions:
REMARK  status: ('A' for Active; 'I' for Inactive)
REMARK    1  A    between atoms: N_1  and  C_2
REMARK    2  A    between atoms: C_4  and  C_5
REMARK    3  A    between atoms: C_15  and  O_16
REMARK    4  A    between atoms: N_17  and  C_18
REMARK    5  A    between atoms: C_18  and  C_19
REMARK                            x       y       z     vdW  Elec       q    Type
REMARK                         _______ _______ _______ _____ _____    ______ ____
ROOT
ATOM      1  C   UNL     1       1.906   4.554  20.511  0.00  0.00    +0.000 A 
ATOM      2  N   UNL     1       1.543   5.837  20.749  0.00  0.00    +0.000 NA
ATOM      3  C   UNL     1       1.937   6.812  19.891  0.00  0.00    +0.000 A 
ATOM      4  N   UNL     1       2.688   6.643  18.780  0.00  0.00    +0.000 NA
ATOM      5  C   UNL     1       3.011   5.361  18.579  0.00  0.00    +0.000 A 
ATOM      6  C   UNL     1       2.661   4.272  19.361  0.00  0.00    +0.000 A 
ATOM      7  N   UNL     1       3.182   3.104  18.835  0.00  0.00    +0.000 NA
ATOM      8  C   UNL     1       3.871   3.504  17.796  0.00  0.00    +0.000 A 
ATOM      9  N   UNL     1       3.812   4.854  17.592  0.00  0.00    +0.000 N 
ENDROOT
BRANCH   3  10
ATOM     10  C   UNL     1       1.521   8.199  20.195  0.00  0.00    +0.000 A 
ATOM     11  C   UNL     1       1.374   9.168  19.189  0.00  0.00    +0.000 A 
ATOM     12  C   UNL     1       0.967  10.473  19.489  0.00  0.00    +0.000 A 
ATOM     13  C   UNL     1       0.703  10.839  20.805  0.00  0.00    +0.000 A 
ATOM     14  C   UNL     1       0.844   9.900  21.824  0.00  0.00    +0.000 A 
ATOM     15  C   UNL     1       1.246   8.600  21.520  0.00  0.00    +0.000 A 
ENDBRANCH   3  10
BRANCH   1  16
ATOM     16  N   UNL     1       1.520   3.589  21.433  0.00  0.00    +0.000 N 
ATOM     17  H   UNL     1       2.175   2.819  21.478  0.00  0.00    +0.000 HD
ATOM     18  H   UNL     1       1.170   3.966  22.306  0.00  0.00    +0.000 HD
ENDBRANCH   1  16
BRANCH   8  19
ATOM     19  O   UNL     1       4.592   2.676  17.068  0.00  0.00    +0.000 OA
ATOM     20  H   UNL     1       4.082   2.639  16.238  0.00  0.00    +0.000 HD
ENDBRANCH   8  19
BRANCH   9  21
ATOM     21  C   UNL     1       4.667   5.638  16.728  0.00  0.00    +0.000 C 
BRANCH  21  22
ATOM     22  C   UNL     1       5.971   6.053  17.360  0.00  0.00    +0.000 A 
ATOM     23  C   UNL     1       6.537   7.306  17.081  0.00  0.00    +0.000 A 
ATOM     24  C   UNL     1       7.662   7.746  17.784  0.00  0.00    +0.000 A 
ATOM     25  C   UNL     1       8.239   6.935  18.759  0.00  0.00    +0.000 A 
ATOM     26  C   UNL     1       7.711   5.670  19.013  0.00  0.00    +0.000 A 
ATOM     27  C   UNL     1       6.588   5.229  18.311  0.00  0.00    +0.000 A 
ENDBRANCH  21  22
ENDBRANCH   9  21
TORSDOF 5
ENDMDL
MODEL 5
REMARK VINA RESULT:      -7.7      3.288      7.037
REMARK  Name = 
REMARK  5 active torsions:
REMARK  status: ('A' for Active; 'I' for Inactive)
REMARK    1  A    between atoms: N_1  and  C_2
REMARK    2  A    between atoms: C_4  and  C_5
REMARK    3  A    between atoms: C_15  and  O_16
REMARK    4  A    between atoms: N_17  and  C_18
REMARK    5  A    between atoms: C_18  and  C_19
REMARK                            x       y       z     vdW  Elec       q    Type
REMARK                         _______ _______ _______ _____ _____    ______ ____
ROOT
ATOM      1  C   UNL     1       7.555   4.632  17.630  0.00  0.00    +0.000 A 
ATOM      2  N   UNL     1       7.614   4.442  16.290  0.00  0.00    +0.000 NA
ATOM      3  C   UNL     1       6.498   4.626  15.541  0.00  0.00    +0.000 A 
ATOM      4  N   UNL     1       5.279   4.987  15.999  0.00  0.00    +0.000 NA
ATOM      5  C   UNL     1       5.272   5.174  17.323  0.00  0.00    +0.000 A 
ATOM      6  C   UNL     1       6.337   5.040  18.198  0.00  0.00    +0.000 A 
ATOM      7  N   UNL     1       5.944   5.316  19.495  0.00  0.00    +0.000 NA
ATOM      8  C   UNL     1       4.661   5.552  19.393  0.00  0.00    +0.000 A 
ATOM      9  N   UNL     1       4.194   5.477  18.111  0.00  0.00    +0.000 N 
ENDROOT
BRANCH   3  10
ATOM     10  C   UNL     1       6.609   4.403  14.083  0.00  0.00    +0.000 A 
ATOM     11  C   UNL     1       7.556   5.081  13.297  0.00  0.00    +0.000 A 
ATOM     12  C   UNL     1       7.658   4.850  11.920  0.00  0.00    +0.000 A 
ATOM     13  C   UNL     1       6.810   3.938  11.297  0.00  0.00    +0.000 A 
ATOM     14  C   UNL     1       5.859   3.256  12.051  0.00  0.00    +0.000 A 
ATOM     15  C   UNL     1       5.763   3.486  13.423  0.00  0.00    +0.000 A 
ENDBRANCH   3  10
BRANCH   1  16
ATOM     16  N   UNL     1       8.707   4.394  18.370  0.00  0.00    +0.000 N 
ATOM     17  H   UNL     1       9.488   4.952  18.052  0.00  0.00    +0.000 HD
ATOM     18  H   UNL     1       8.550   4.322  19.369  0.00  0.00    +0.000 HD
ENDBRANCH   1  16
BRANCH   8  19
ATOM     19  O   UNL     1       3.901   5.779  20.445  0.00  0.00    +0.000 OA
ATOM     20  H   UNL     1       4.195   5.084  21.062  0.00  0.00    +0.000 HD
ENDBRANCH   8  19
BRANCH   9  21
ATOM     21  C   UNL     1       2.811   5.403  17.695  0.00  0.00    +0.000 C 
BRANCH  21  22
ATOM     22  C   UNL     1       2.076   4.189  18.204  0.00  0.00    +0.000 A 
ATOM     23  C   UNL     1       2.320   2.920  17.658  0.00  0.00    +0.000 A 
ATOM     24  C   UNL     1       1.752   1.781  18.234  0.00  0.00    +0.000 A 
ATOM     25  C   UNL     1       0.925   1.900  19.350  0.00  0.00    +0.000 A 
ATOM     26  C   UNL     1       0.641   3.160  19.873  0.00  0.00    +0.000 A 
ATOM     27  C   UNL     1       1.207   4.299  19.299  0.00  0.00    +0.000 A 
ENDBRANCH  21  22
ENDBRANCH   9  21
TORSDOF 5
ENDMDL
MODEL 6
REMARK VINA RESULT:      -7.5      1.214      1.954
REMARK  Name = 
REMARK  5 active torsions:
REMARK  status: ('A' for Active; 'I' for Inactive)
REMARK    1  A    between atoms: N_1  and  C_2
REMARK    2  A    between atoms: C_4  and  C_5
REMARK    3  A    between atoms: C_15  and  O_16
REMARK    4  A    between atoms: N_17  and  C_18
REMARK    5  A    between atoms: C_18  and  C_19
REMARK                            x       y       z     vdW  Elec       q    Type
REMARK                         _______ _______ _______ _____ _____    ______ ____
ROOT
ATOM      1  C   UNL     1       2.508   4.143  19.274  0.00  0.00    +0.000 A 
ATOM      2  N   UNL     1       2.013   5.343  19.658  0.00  0.00    +0.000 NA
ATOM      3  C   UNL     1       2.432   6.470  19.028  0.00  0.00    +0.000 A 
ATOM      4  N   UNL     1       3.331   6.535  18.021  0.00  0.00    +0.000 NA
ATOM      5  C   UNL     1       3.782   5.326  17.668  0.00  0.00    +0.000 A 
ATOM      6  C   UNL     1       3.425   4.103  18.211  0.00  0.00    +0.000 A 
ATOM      7  N   UNL     1       4.104   3.073  17.586  0.00  0.00    +0.000 NA
ATOM      8  C   UNL     1       4.886   3.682  16.731  0.00  0.00    +0.000 A 
ATOM      9  N   UNL     1       4.743   5.041  16.736  0.00  0.00    +0.000 N 
ENDROOT
BRANCH   3  10
ATOM     10  C   UNL     1       1.868   7.759  19.485  0.00  0.00    +0.000 A 
ATOM     11  C   UNL     1       1.489   7.974  20.820  0.00  0.00    +0.000 A 
ATOM     12  C   UNL     1       0.969   9.203  21.241  0.00  0.00    +0.000 A 
ATOM     13  C   UNL     1       0.811  10.245  20.332  0.00  0.00    +0.000 A 
ATOM     14  C   UNL     1       1.173  10.059  19.000  0.00  0.00    +0.000 A 
ATOM     15  C   UNL     1       1.695   8.834  18.586  0.00  0.00    +0.000 A 
ENDBRANCH   3  10
BRANCH   1  16
ATOM     16  N   UNL     1       2.088   3.015  19.969  0.00  0.00    +0.000 N 
ATOM     17  H   UNL     1       1.247   3.188  20.505  0.00  0.00    +0.000 HD
ATOM     18  H   UNL     1       2.142   2.155  19.436  0.00  0.00    +0.000 HD
ENDBRANCH   1  16
BRANCH   8  19
ATOM     19  O   UNL     1       5.761   3.032  15.990  0.00  0.00    +0.000 OA
ATOM     20  H   UNL     1       6.438   2.785  16.646  0.00  0.00    +0.000 HD
ENDBRANCH   8  19
BRANCH   9  21
ATOM     21  C   UNL     1       5.634   6.008  16.135  0.00  0.00    +0.000 C 
BRANCH  21  22
ATOM     22  C   UNL     1       6.711   6.515  17.060  0.00  0.00    +0.000 A 
ATOM     23  C   UNL     1       7.151   7.846  16.989  0.00  0.00    +0.000 A 
ATOM     24  C   UNL     1       8.036   8.350  17.946  0.00  0.00    +0.000 A 
ATOM     25  C   UNL     1       8.500   7.528  18.971  0.00  0.00    +0.000 A 
ATOM     26  C   UNL     1       8.105   6.192  19.024  0.00  0.00    +0.000 A 
ATOM     27  C   UNL     1       7.221   5.687  18.069  0.00  0.00    +0.000 A 
ENDBRANCH  21  22
ENDBRANCH   9  21
TORSDOF 5
ENDMDL
MODEL 7
REMARK VINA RESULT:      -7.5      1.256      1.768
REMARK  Name = 
REMARK  5 active torsions:
REMARK  status: ('A' for Active; 'I' for Inactive)
REMARK    1  A    between atoms: N_1  and  C_2
REMARK    2  A    between atoms: C_4  and  C_5
REMARK    3  A    between atoms: C_15  and  O_16
REMARK    4  A    between atoms: N_17  and  C_18
REMARK    5  A    between atoms: C_18  and  C_19
REMARK                            x       y       z     vdW  Elec       q    Type
REMARK                         _______ _______ _______ _____ _____    ______ ____
ROOT
ATOM      1  C   UNL     1       2.607   3.928  19.124  0.00  0.00    +0.000 A 
ATOM      2  N   UNL     1       2.101   5.102  19.570  0.00  0.00    +0.000 NA
ATOM      3  C   UNL     1       2.505   6.263  18.996  0.00  0.00    +0.000 A 
ATOM      4  N   UNL     1       3.399   6.389  17.990  0.00  0.00    +0.000 NA
ATOM      5  C   UNL     1       3.861   5.204  17.575  0.00  0.00    +0.000 A 
ATOM      6  C   UNL     1       3.520   3.952  18.058  0.00  0.00    +0.000 A 
ATOM      7  N   UNL     1       4.207   2.961  17.379  0.00  0.00    +0.000 NA
ATOM      8  C   UNL     1       4.979   3.621  16.553  0.00  0.00    +0.000 A 
ATOM      9  N   UNL     1       4.821   4.977  16.627  0.00  0.00    +0.000 N 
ENDROOT
BRANCH   3  10
ATOM     10  C   UNL     1       1.929   7.522  19.519  0.00  0.00    +0.000 A 
ATOM     11  C   UNL     1       1.749   8.652  18.705  0.00  0.00    +0.000 A 
ATOM     12  C   UNL     1       1.190   9.832  19.210  0.00  0.00    +0.000 A 
ATOM     13  C   UNL     1       0.803   9.908  20.545  0.00  0.00    +0.000 A 
ATOM     14  C   UNL     1       0.974   8.804  21.377  0.00  0.00    +0.000 A 
ATOM     15  C   UNL     1       1.527   7.629  20.868  0.00  0.00    +0.000 A 
ENDBRANCH   3  10
BRANCH   1  16
ATOM     16  N   UNL     1       2.202   2.762  19.763  0.00  0.00    +0.000 N 
ATOM     17  H   UNL     1       1.509   2.939  20.479  0.00  0.00    +0.000 HD
ATOM     18  H   UNL     1       2.048   1.979  19.139  0.00  0.00    +0.000 HD
ENDBRANCH   1  16
BRANCH   8  19
ATOM     19  O   UNL     1       5.858   3.019  15.777  0.00  0.00    +0.000 OA
ATOM     20  H   UNL     1       6.667   3.534  15.950  0.00  0.00    +0.000 HD
ENDBRANCH   8  19
BRANCH   9  21
ATOM     21  C   UNL     1       5.700   5.983  16.072  0.00  0.00    +0.000 C 
BRANCH  21  22
ATOM     22  C   UNL     1       6.751   6.483  17.029  0.00  0.00    +0.000 A 
ATOM     23  C   UNL     1       7.185   7.816  16.988  0.00  0.00    +0.000 A 
ATOM     24  C   UNL     1       8.044   8.311  17.972  0.00  0.00    +0.000 A 
ATOM     25  C   UNL     1       8.487   7.478  18.998  0.00  0.00    +0.000 A 
ATOM     26  C   UNL     1       8.097   6.140  19.023  0.00  0.00    +0.000 A 
ATOM     27  C   UNL     1       7.240   5.643  18.040  0.00  0.00    +0.000 A 
ENDBRANCH  21  22
ENDBRANCH   9  21
TORSDOF 5
ENDMDL
MODEL 8
REMARK VINA RESULT:      -7.4      1.204      1.933
REMARK  Name = 
REMARK  5 active torsions:
REMARK  status: ('A' for Active; 'I' for Inactive)
REMARK    1  A    between atoms: N_1  and  C_2
REMARK    2  A    between atoms: C_4  and  C_5
REMARK    3  A    between atoms: C_15  and  O_16
REMARK    4  A    between atoms: N_17  and  C_18
REMARK    5  A    between atoms: C_18  and  C_19
REMARK                            x       y       z     vdW  Elec       q    Type
REMARK                         _______ _______ _______ _____ _____    ______ ____
ROOT
ATOM      1  C   UNL     1       2.498   4.022  19.299  0.00  0.00    +0.000 A 
ATOM      2  N   UNL     1       2.002   5.212  19.715  0.00  0.00    +0.000 NA
ATOM      3  C   UNL     1       2.417   6.355  19.112  0.00  0.00    +0.000 A 
ATOM      4  N   UNL     1       3.311   6.447  18.104  0.00  0.00    +0.000 NA
ATOM      5  C   UNL     1       3.763   5.249  17.718  0.00  0.00    +0.000 A 
ATOM      6  C   UNL     1       3.411   4.012  18.232  0.00  0.00    +0.000 A 
ATOM      7  N   UNL     1       4.089   2.999  17.578  0.00  0.00    +0.000 NA
ATOM      8  C   UNL     1       4.866   3.631  16.735  0.00  0.00    +0.000 A 
ATOM      9  N   UNL     1       4.720   4.990  16.775  0.00  0.00    +0.000 N 
ENDROOT
BRANCH   3  10
ATOM     10  C   UNL     1       1.852   7.631  19.604  0.00  0.00    +0.000 A 
ATOM     11  C   UNL     1       1.691   8.746  18.764  0.00  0.00    +0.000 A 
ATOM     12  C   UNL     1       1.142   9.942  19.240  0.00  0.00    +0.000 A 
ATOM     13  C   UNL     1       0.747  10.052  20.570  0.00  0.00    +0.000 A 
ATOM     14  C   UNL     1       0.899   8.965  21.426  0.00  0.00    +0.000 A 
ATOM     15  C   UNL     1       1.442   7.773  20.947  0.00  0.00    +0.000 A 
ENDBRANCH   3  10
BRANCH   1  16
ATOM     16  N   UNL     1       2.083   2.877  19.967  0.00  0.00    +0.000 N 
ATOM     17  H   UNL     1       1.100   2.907  20.203  0.00  0.00    +0.000 HD
ATOM     18  H   UNL     1       2.452   2.016  19.581  0.00  0.00    +0.000 HD
ENDBRANCH   1  16
BRANCH   8  19
ATOM     19  O   UNL     1       5.739   3.003  15.974  0.00  0.00    +0.000 OA
ATOM     20  H   UNL     1       5.401   3.192  15.080  0.00  0.00    +0.000 HD
ENDBRANCH   8  19
BRANCH   9  21
ATOM     21  C   UNL     1       5.608   5.974  16.195  0.00  0.00    +0.000 C 
BRANCH  21  22
ATOM     22  C   UNL     1       6.559   6.604  17.179  0.00  0.00    +0.000 A 
ATOM     23  C   UNL     1       7.140   5.844  18.205  0.00  0.00    +0.000 A 
ATOM     24  C   UNL     1       8.135   6.395  19.017  0.00  0.00    +0.000 A 
ATOM     25  C   UNL     1       8.548   7.712  18.821  0.00  0.00    +0.000 A 
ATOM     26  C   UNL     1       7.946   8.490  17.834  0.00  0.00    +0.000 A 
ATOM     27  C   UNL     1       6.951   7.941  17.022  0.00  0.00    +0.000 A 
ENDBRANCH  21  22
ENDBRANCH   9  21
TORSDOF 5
ENDMDL
MODEL 9
REMARK VINA RESULT:      -7.4      1.323      2.037
REMARK  Name = 
REMARK  5 active torsions:
REMARK  status: ('A' for Active; 'I' for Inactive)
REMARK    1  A    between atoms: N_1  and  C_2
REMARK    2  A    between atoms: C_4  and  C_5
REMARK    3  A    between atoms: C_15  and  O_16
REMARK    4  A    between atoms: N_17  and  C_18
REMARK    5  A    between atoms: C_18  and  C_19
REMARK                            x       y       z     vdW  Elec       q    Type
REMARK                         _______ _______ _______ _____ _____    ______ ____
ROOT
ATOM      1  C   UNL     1       1.604   4.180  20.768  0.00  0.00    +0.000 A 
ATOM      2  N   UNL     1       1.324   5.475  20.488  0.00  0.00    +0.000 NA
ATOM      3  C   UNL     1       2.209   6.207  19.764  0.00  0.00    +0.000 A 
ATOM      4  N   UNL     1       3.392   5.775  19.275  0.00  0.00    +0.000 NA
ATOM      5  C   UNL     1       3.619   4.489  19.566  0.00  0.00    +0.000 A 
ATOM      6  C   UNL     1       2.797   3.629  20.275  0.00  0.00    +0.000 A 
ATOM      7  N   UNL     1       3.371   2.374  20.374  0.00  0.00    +0.000 NA
ATOM      8  C   UNL     1       4.532   2.509  19.785  0.00  0.00    +0.000 A 
ATOM      9  N   UNL     1       4.743   3.762  19.282  0.00  0.00    +0.000 N 
ENDROOT
BRANCH   3  10
ATOM     10  C   UNL     1       1.864   7.618  19.486  0.00  0.00    +0.000 A 
ATOM     11  C   UNL     1       1.265   8.442  20.454  0.00  0.00    +0.000 A 
ATOM     12  C   UNL     1       0.956   9.780  20.182  0.00  0.00    +0.000 A 
ATOM     13  C   UNL     1       1.234  10.322  18.931  0.00  0.00    +0.000 A 
ATOM     14  C   UNL     1       1.824   9.528  17.950  0.00  0.00    +0.000 A 
ATOM     15  C   UNL     1       2.134   8.197  18.227  0.00  0.00    +0.000 A 
ENDBRANCH   3  10
BRANCH   1  16
ATOM     16  N   UNL     1       0.694   3.474  21.546  0.00  0.00    +0.000 N 
ATOM     17  H   UNL     1       1.068   3.245  22.458  0.00  0.00    +0.000 HD
ATOM     18  H   UNL     1      -0.254   3.826  21.497  0.00  0.00    +0.000 HD
ENDBRANCH   1  16
BRANCH   8  19
ATOM     19  O   UNL     1       5.419   1.535  19.745  0.00  0.00    +0.000 OA
ATOM     20  H   UNL     1       6.241   2.019  19.542  0.00  0.00    +0.000 HD
ENDBRANCH   8  19
BRANCH   9  21
ATOM     21  C   UNL     1       6.003   4.315  18.836  0.00  0.00    +0.000 C 
BRANCH  21  22
ATOM     22  C   UNL     1       6.161   4.363  17.338  0.00  0.00    +0.000 A 
ATOM     23  C   UNL     1       5.085   4.057  16.492  0.00  0.00    +0.000 A 
ATOM     24  C   UNL     1       5.193   4.251  15.112  0.00  0.00    +0.000 A 
ATOM     25  C   UNL     1       6.379   4.737  14.564  0.00  0.00    +0.000 A 
ATOM     26  C   UNL     1       7.469   5.002  15.391  0.00  0.00    +0.000 A 
ATOM     27  C   UNL     1       7.363   4.808  16.770  0.00  0.00    +0.000 A 
ENDBRANCH  21  22
ENDBRANCH   9  21
TORSDOF 5
ENDMDL
