MODEL 1
REMARK VINA RESULT:      -8.0      0.000      0.000
REMARK  Name = 
REMARK  12 active torsions:
REMARK  status: ('A' for Active; 'I' for Inactive)
REMARK    1  A    between atoms: C_1  and  O_2
REMARK    2  A    between atoms: O_2  and  C_3
REMARK    3  A    between atoms: C_6  and  N_7
REMARK    4  A    between atoms: C_8  and  C_10
REMARK    5  A    between atoms: C_12  and  C_13
REMARK    6  A    between atoms: C_19  and  C_21
REMARK    7  A    between atoms: C_23  and  C_24
REMARK    8  A    between atoms: C_24  and  C_25
REMARK    9  A    between atoms: C_24  and  C_26
REMARK   10  A    between atoms: C_24  and  C_27
REMARK   11  A    between atoms: N_29  and  C_30
REMARK   12  A    between atoms: C_33  and  C_34
REMARK                            x       y       z     vdW  Elec       q    Type
REMARK                         _______ _______ _______ _____ _____    ______ ____
ROOT
ATOM      1  C   UNL     1       2.129   8.420  18.710  0.00  0.00    +0.000 A 
ATOM      2  C   UNL     1       1.966   9.577  17.919  0.00  0.00    +0.000 A 
ATOM      3  C   UNL     1       1.316  10.466  18.733  0.00  0.00    +0.000 A 
ATOM      4  O   UNL     1       1.045   9.876  19.924  0.00  0.00    +0.000 OA
ATOM      5  N   UNL     1       1.536   8.580  19.908  0.00  0.00    +0.000 NA
ENDROOT
BRANCH   3   6
ATOM      6  C   UNL     1       0.912  11.878  18.538  0.00  0.00    +0.000 C 
ATOM      7  C   UNL     1       1.578  12.670  19.696  0.00  0.00    +0.000 C 
ATOM      8  C   UNL     1       1.126  14.114  19.799  0.00  0.00    +0.000 C 
ATOM      9  C   UNL     1      -0.386  14.171  19.852  0.00  0.00    +0.000 C 
ATOM     10  C   UNL     1      -1.001  13.453  18.664  0.00  0.00    +0.000 C 
ATOM     11  N   UNL     1      -0.568  12.056  18.539  0.00  0.00    +0.000 N 
ATOM     12  C   UNL     1      -1.428  11.043  18.038  0.00  0.00    +0.000 C 
ATOM     13  O   UNL     1      -1.054   9.903  17.780  0.00  0.00    +0.000 OA
BRANCH  12  14
ATOM     14  C   UNL     1      -2.835  11.339  17.921  0.00  0.00    +0.000 A 
ATOM     15  C   UNL     1      -3.744  11.791  18.855  0.00  0.00    +0.000 A 
ATOM     16  C   UNL     1      -5.003  11.707  18.238  0.00  0.00    +0.000 A 
ATOM     17  N   UNL     1      -4.882  11.423  16.933  0.00  0.00    +0.000 NA
ATOM     18  N   UNL     1      -3.553  11.284  16.750  0.00  0.00    +0.000 N 
ATOM     19  C   UNL     1      -3.051  11.009  15.423  0.00  0.00    +0.000 C 
BRANCH  16  20
ATOM     20  C   UNL     1      -6.358  11.888  18.892  0.00  0.00    +0.000 C 
ATOM     21  C   UNL     1      -6.994  10.507  19.114  0.00  0.00    +0.000 C 
ATOM     22  C   UNL     1      -6.246  12.630  20.238  0.00  0.00    +0.000 C 
ATOM     23  C   UNL     1      -7.286  12.726  17.982  0.00  0.00    +0.000 C 
ENDBRANCH  16  20
ENDBRANCH  12  14
ENDBRANCH   3   6
BRANCH   1  25
ATOM     24  N   UNL     1       2.076   6.032  18.729  0.00  0.00    +0.000 N 
ATOM     25  C   UNL     1       2.776   7.170  18.319  0.00  0.00    +0.000 C 
ATOM     26  O   UNL     1       3.855   7.172  17.731  0.00  0.00    +0.000 OA
ATOM     27  H   UNL     1       1.166   6.178  19.137  0.00  0.00    +0.000 HD
BRANCH  24  31
ATOM     28  C   UNL     1       3.538   2.066  18.623  0.00  0.00    +0.000 A 
ATOM     29  C   UNL     1       3.460   2.817  17.460  0.00  0.00    +0.000 A 
ATOM     30  C   UNL     1       2.958   4.115  17.501  0.00  0.00    +0.000 A 
ATOM     31  C   UNL     1       2.537   4.699  18.699  0.00  0.00    +0.000 A 
ATOM     32  C   UNL     1       2.601   3.940  19.888  0.00  0.00    +0.000 A 
ATOM     33  C   UNL     1       2.203   4.442  21.251  0.00  0.00    +0.000 C 
ATOM     34  C   UNL     1       3.079   2.615  19.820  0.00  0.00    +0.000 A 
BRANCH  28  36
ATOM     35  C   UNL     1       4.916   0.554  19.784  0.00  0.00    +0.000 C 
ATOM     36  O   UNL     1       4.026   0.791  18.697  0.00  0.00    +0.000 OA
ENDBRANCH  28  36
ENDBRANCH  24  31
ENDBRANCH   1  25
TORSDOF 6
ENDMDL
MODEL 2
REMARK VINA RESULT:      -8.0      0.944      1.183
REMARK  Name = 
REMARK  12 active torsions:
REMARK  status: ('A' for Active; 'I' for Inactive)
REMARK    1  A    between atoms: C_1  and  O_2
REMARK    2  A    between atoms: O_2  and  C_3
REMARK    3  A    between atoms: C_6  and  N_7
REMARK    4  A    between atoms: C_8  and  C_10
REMARK    5  A    between atoms: C_12  and  C_13
REMARK    6  A    between atoms: C_19  and  C_21
REMARK    7  A    between atoms: C_23  and  C_24
REMARK    8  A    between atoms: C_24  and  C_25
REMARK    9  A    between atoms: C_24  and  C_26
REMARK   10  A    between atoms: C_24  and  C_27
REMARK   11  A    between atoms: N_29  and  C_30
REMARK   12  A    between atoms: C_33  and  C_34
REMARK                            x       y       z     vdW  Elec       q    Type
REMARK                         _______ _______ _______ _____ _____    ______ ____
ROOT
ATOM      1  C   UNL     1       2.015   8.556  18.846  0.00  0.00    +0.000 A 
ATOM      2  C   UNL     1       1.854   9.666  17.990  0.00  0.00    +0.000 A 
ATOM      3  C   UNL     1       1.264  10.625  18.769  0.00  0.00    +0.000 A 
ATOM      4  O   UNL     1       1.023  10.119  20.005  0.00  0.00    +0.000 OA
ATOM      5  N   UNL     1       1.474   8.810  20.053  0.00  0.00    +0.000 NA
ENDROOT
BRANCH   3   6
ATOM      6  C   UNL     1       0.894  12.033  18.500  0.00  0.00    +0.000 C 
ATOM      7  C   UNL     1       1.703  12.883  19.517  0.00  0.00    +0.000 C 
ATOM      8  C   UNL     1       1.317  14.349  19.545  0.00  0.00    +0.000 C 
ATOM      9  C   UNL     1      -0.179  14.478  19.742  0.00  0.00    +0.000 C 
ATOM     10  C   UNL     1      -0.937  13.698  18.683  0.00  0.00    +0.000 C 
ATOM     11  N   UNL     1      -0.570  12.277  18.631  0.00  0.00    +0.000 N 
ATOM     12  C   UNL     1      -1.513  11.268  18.301  0.00  0.00    +0.000 C 
ATOM     13  O   UNL     1      -1.210  10.096  18.102  0.00  0.00    +0.000 OA
BRANCH  12  14
ATOM     14  C   UNL     1      -2.913  11.616  18.299  0.00  0.00    +0.000 A 
ATOM     15  C   UNL     1      -3.719  12.126  19.297  0.00  0.00    +0.000 A 
ATOM     16  C   UNL     1      -5.030  12.078  18.793  0.00  0.00    +0.000 A 
ATOM     17  N   UNL     1      -5.034  11.759  17.491  0.00  0.00    +0.000 NA
ATOM     18  N   UNL     1      -3.732  11.564  17.197  0.00  0.00    +0.000 N 
ATOM     19  C   UNL     1      -3.360  11.238  15.839  0.00  0.00    +0.000 C 
BRANCH  16  20
ATOM     20  C   UNL     1      -6.315  12.327  19.557  0.00  0.00    +0.000 C 
ATOM     21  C   UNL     1      -5.972  12.655  21.018  0.00  0.00    +0.000 C 
ATOM     22  C   UNL     1      -7.127  13.483  18.942  0.00  0.00    +0.000 C 
ATOM     23  C   UNL     1      -7.212  11.067  19.523  0.00  0.00    +0.000 C 
ENDBRANCH  16  20
ENDBRANCH  12  14
ENDBRANCH   3   6
BRANCH   1  25
ATOM     24  N   UNL     1       2.468   6.311  19.524  0.00  0.00    +0.000 N 
ATOM     25  C   UNL     1       2.608   7.264  18.511  0.00  0.00    +0.000 C 
ATOM     26  O   UNL     1       3.205   7.097  17.450  0.00  0.00    +0.000 OA
ATOM     27  H   UNL     1       1.891   6.562  20.310  0.00  0.00    +0.000 HD
BRANCH  24  31
ATOM     28  C   UNL     1       4.434   2.579  19.819  0.00  0.00    +0.000 A 
ATOM     29  C   UNL     1       5.135   3.714  19.442  0.00  0.00    +0.000 A 
ATOM     30  C   UNL     1       4.475   4.935  19.327  0.00  0.00    +0.000 A 
ATOM     31  C   UNL     1       3.110   5.057  19.599  0.00  0.00    +0.000 A 
ATOM     32  C   UNL     1       2.382   3.905  19.972  0.00  0.00    +0.000 A 
ATOM     33  C   UNL     1       0.915   3.888  20.313  0.00  0.00    +0.000 C 
ATOM     34  C   UNL     1       3.061   2.671  20.048  0.00  0.00    +0.000 A 
BRANCH  28  36
ATOM     35  C   UNL     1       5.405   1.032  21.301  0.00  0.00    +0.000 C 
ATOM     36  O   UNL     1       4.985   1.337  19.974  0.00  0.00    +0.000 OA
ENDBRANCH  28  36
ENDBRANCH  24  31
ENDBRANCH   1  25
TORSDOF 6
ENDMDL
MODEL 3
REMARK VINA RESULT:      -8.0      2.042      2.518
REMARK  Name = 
REMARK  12 active torsions:
REMARK  status: ('A' for Active; 'I' for Inactive)
REMARK    1  A    between atoms: C_1  and  O_2
REMARK    2  A    between atoms: O_2  and  C_3
REMARK    3  A    between atoms: C_6  and  N_7
REMARK    4  A    between atoms: C_8  and  C_10
REMARK    5  A    between atoms: C_12  and  C_13
REMARK    6  A    between atoms: C_19  and  C_21
REMARK    7  A    between atoms: C_23  and  C_24
REMARK    8  A    between atoms: C_24  and  C_25
REMARK    9  A    between atoms: C_24  and  C_26
REMARK   10  A    between atoms: C_24  and  C_27
REMARK   11  A    between atoms: N_29  and  C_30
REMARK   12  A    between atoms: C_33  and  C_34
REMARK                            x       y       z     vdW  Elec       q    Type
REMARK                         _______ _______ _______ _____ _____    ______ ____
ROOT
ATOM      1  C   UNL     1       1.996   8.407  18.830  0.00  0.00    +0.000 A 
ATOM      2  C   UNL     1       1.772   9.630  18.164  0.00  0.00    +0.000 A 
ATOM      3  C   UNL     1       1.211  10.445  19.111  0.00  0.00    +0.000 A 
ATOM      4  O   UNL     1       1.046   9.750  20.265  0.00  0.00    +0.000 OA
ATOM      5  N   UNL     1       1.519   8.460  20.087  0.00  0.00    +0.000 NA
ENDROOT
BRANCH   3   6
ATOM      6  C   UNL     1       0.805  11.869  19.082  0.00  0.00    +0.000 C 
ATOM      7  C   UNL     1       1.366  12.493  20.388  0.00  0.00    +0.000 C 
ATOM      8  C   UNL     1       0.889  13.908  20.653  0.00  0.00    +0.000 C 
ATOM      9  C   UNL     1      -0.623  13.955  20.592  0.00  0.00    +0.000 C 
ATOM     10  C   UNL     1      -1.132  13.408  19.270  0.00  0.00    +0.000 C 
ATOM     11  N   UNL     1      -0.672  12.042  18.988  0.00  0.00    +0.000 N 
ATOM     12  C   UNL     1      -1.476  11.108  18.283  0.00  0.00    +0.000 C 
ATOM     13  O   UNL     1      -1.069  10.016  17.901  0.00  0.00    +0.000 OA
BRANCH  12  14
ATOM     14  C   UNL     1      -2.873  11.415  18.095  0.00  0.00    +0.000 A 
ATOM     15  C   UNL     1      -3.822  11.887  18.979  0.00  0.00    +0.000 A 
ATOM     16  C   UNL     1      -5.051  11.806  18.303  0.00  0.00    +0.000 A 
ATOM     17  N   UNL     1      -4.869  11.506  17.009  0.00  0.00    +0.000 NA
ATOM     18  N   UNL     1      -3.535  11.353  16.892  0.00  0.00    +0.000 N 
ATOM     19  C   UNL     1      -2.972  11.057  15.593  0.00  0.00    +0.000 C 
BRANCH  16  20
ATOM     20  C   UNL     1      -6.434  12.006  18.888  0.00  0.00    +0.000 C 
ATOM     21  C   UNL     1      -7.046  10.634  19.207  0.00  0.00    +0.000 C 
ATOM     22  C   UNL     1      -6.392  12.865  20.168  0.00  0.00    +0.000 C 
ATOM     23  C   UNL     1      -7.345  12.738  17.875  0.00  0.00    +0.000 C 
ENDBRANCH  16  20
ENDBRANCH  12  14
ENDBRANCH   3   6
BRANCH   1  25
ATOM     24  N   UNL     1       3.884   7.389  17.778  0.00  0.00    +0.000 N 
ATOM     25  C   UNL     1       2.590   7.196  18.269  0.00  0.00    +0.000 C 
ATOM     26  O   UNL     1       1.954   6.146  18.213  0.00  0.00    +0.000 OA
ATOM     27  H   UNL     1       4.312   8.283  17.958  0.00  0.00    +0.000 HD
BRANCH  24  31
ATOM     28  C   UNL     1       6.189   4.753  15.409  0.00  0.00    +0.000 A 
ATOM     29  C   UNL     1       5.526   5.822  14.827  0.00  0.00    +0.000 A 
ATOM     30  C   UNL     1       4.752   6.673  15.612  0.00  0.00    +0.000 A 
ATOM     31  C   UNL     1       4.633   6.488  16.992  0.00  0.00    +0.000 A 
ATOM     32  C   UNL     1       5.294   5.396  17.594  0.00  0.00    +0.000 A 
ATOM     33  C   UNL     1       5.272   5.083  19.068  0.00  0.00    +0.000 C 
ATOM     34  C   UNL     1       6.044   4.524  16.777  0.00  0.00    +0.000 A 
BRANCH  28  36
ATOM     35  C   UNL     1       6.626   3.664  13.370  0.00  0.00    +0.000 C 
ATOM     36  O   UNL     1       6.983   3.866  14.735  0.00  0.00    +0.000 OA
ENDBRANCH  28  36
ENDBRANCH  24  31
ENDBRANCH   1  25
TORSDOF 6
ENDMDL
MODEL 4
REMARK VINA RESULT:      -7.8      1.273      1.375
REMARK  Name = 
REMARK  12 active torsions:
REMARK  status: ('A' for Active; 'I' for Inactive)
REMARK    1  A    between atoms: C_1  and  O_2
REMARK    2  A    between atoms: O_2  and  C_3
REMARK    3  A    between atoms: C_6  and  N_7
REMARK    4  A    between atoms: C_8  and  C_10
REMARK    5  A    between atoms: C_12  and  C_13
REMARK    6  A    between atoms: C_19  and  C_21
REMARK    7  A    between atoms: C_23  and  C_24
REMARK    8  A    between atoms: C_24  and  C_25
REMARK    9  A    between atoms: C_24  and  C_26
REMARK   10  A    between atoms: C_24  and  C_27
REMARK   11  A    between atoms: N_29  and  C_30
REMARK   12  A    between atoms: C_33  and  C_34
REMARK                            x       y       z     vdW  Elec       q    Type
REMARK                         _______ _______ _______ _____ _____    ______ ____
ROOT
ATOM      1  C   UNL     1       1.911   8.848  18.860  0.00  0.00    +0.000 A 
ATOM      2  C   UNL     1       1.261   9.842  19.621  0.00  0.00    +0.000 A 
ATOM      3  C   UNL     1       1.260  10.951  18.819  0.00  0.00    +0.000 A 
ATOM      4  O   UNL     1       1.918  10.676  17.664  0.00  0.00    +0.000 OA
ATOM      5  N   UNL     1       2.349   9.360  17.694  0.00  0.00    +0.000 NA
ENDROOT
BRANCH   3   6
ATOM      6  C   UNL     1       0.676  12.301  18.992  0.00  0.00    +0.000 C 
ATOM      7  C   UNL     1       1.219  12.824  20.348  0.00  0.00    +0.000 C 
ATOM      8  C   UNL     1       0.581  14.119  20.814  0.00  0.00    +0.000 C 
ATOM      9  C   UNL     1      -0.926  13.973  20.811  0.00  0.00    +0.000 C 
ATOM     10  C   UNL     1      -1.429  13.535  19.446  0.00  0.00    +0.000 C 
ATOM     11  N   UNL     1      -0.814  12.289  18.972  0.00  0.00    +0.000 N 
ATOM     12  C   UNL     1      -1.528  11.353  18.177  0.00  0.00    +0.000 C 
ATOM     13  O   UNL     1      -1.006  10.381  17.641  0.00  0.00    +0.000 OA
BRANCH  12  14
ATOM     14  C   UNL     1      -2.961  11.493  18.079  0.00  0.00    +0.000 A 
ATOM     15  C   UNL     1      -3.901  11.849  19.025  0.00  0.00    +0.000 A 
ATOM     16  C   UNL     1      -5.152  11.626  18.425  0.00  0.00    +0.000 A 
ATOM     17  N   UNL     1      -5.018  11.351  17.119  0.00  0.00    +0.000 NA
ATOM     18  N   UNL     1      -3.684  11.357  16.918  0.00  0.00    +0.000 N 
ATOM     19  C   UNL     1      -3.173  11.132  15.585  0.00  0.00    +0.000 C 
BRANCH  16  20
ATOM     20  C   UNL     1      -6.510  11.661  19.097  0.00  0.00    +0.000 C 
ATOM     21  C   UNL     1      -7.055  10.228  19.197  0.00  0.00    +0.000 C 
ATOM     22  C   UNL     1      -6.432  12.286  20.503  0.00  0.00    +0.000 C 
ATOM     23  C   UNL     1      -7.497  12.516  18.268  0.00  0.00    +0.000 C 
ENDBRANCH  16  20
ENDBRANCH  12  14
ENDBRANCH   3   6
BRANCH   1  25
ATOM     24  N   UNL     1       2.767   6.705  18.244  0.00  0.00    +0.000 N 
ATOM     25  C   UNL     1       2.168   7.465  19.252  0.00  0.00    +0.000 C 
ATOM     26  O   UNL     1       1.826   7.046  20.356  0.00  0.00    +0.000 OA
ATOM     27  H   UNL     1       3.061   7.196  17.415  0.00  0.00    +0.000 HD
BRANCH  24  31
ATOM     28  C   UNL     1       3.290   2.511  18.119  0.00  0.00    +0.000 A 
ATOM     29  C   UNL     1       2.086   3.080  17.734  0.00  0.00    +0.000 A 
ATOM     30  C   UNL     1       1.915   4.461  17.798  0.00  0.00    +0.000 A 
ATOM     31  C   UNL     1       2.941   5.305  18.231  0.00  0.00    +0.000 A 
ATOM     32  C   UNL     1       4.168   4.736  18.637  0.00  0.00    +0.000 A 
ATOM     33  C   UNL     1       5.366   5.519  19.107  0.00  0.00    +0.000 C 
ATOM     34  C   UNL     1       4.309   3.333  18.599  0.00  0.00    +0.000 A 
BRANCH  28  36
ATOM     35  C   UNL     1       4.332   0.691  19.184  0.00  0.00    +0.000 C 
ATOM     36  O   UNL     1       3.566   1.172  18.083  0.00  0.00    +0.000 OA
ENDBRANCH  28  36
ENDBRANCH  24  31
ENDBRANCH   1  25
TORSDOF 6
ENDMDL
MODEL 5
REMARK VINA RESULT:      -7.8      1.264      1.541
REMARK  Name = 
REMARK  12 active torsions:
REMARK  status: ('A' for Active; 'I' for Inactive)
REMARK    1  A    between atoms: C_1  and  O_2
REMARK    2  A    between atoms: O_2  and  C_3
REMARK    3  A    between atoms: C_6  and  N_7
REMARK    4  A    between atoms: C_8  and  C_10
REMARK    5  A    between atoms: C_12  and  C_13
REMARK    6  A    between atoms: C_19  and  C_21
REMARK    7  A    between atoms: C_23  and  C_24
REMARK    8  A    between atoms: C_24  and  C_25
REMARK    9  A    between atoms: C_24  and  C_26
REMARK   10  A    between atoms: C_24  and  C_27
REMARK   11  A    between atoms: N_29  and  C_30
REMARK   12  A    between atoms: C_33  and  C_34
REMARK                            x       y       z     vdW  Elec       q    Type
REMARK                         _______ _______ _______ _____ _____    ______ ____
ROOT
ATOM      1  C   UNL     1       1.510   8.478  20.201  0.00  0.00    +0.000 A 
ATOM      2  C   UNL     1       1.390   9.268  19.038  0.00  0.00    +0.000 A 
ATOM      3  C   UNL     1       1.019  10.505  19.493  0.00  0.00    +0.000 A 
ATOM      4  O   UNL     1       0.863  10.463  20.841  0.00  0.00    +0.000 OA
ATOM      5  N   UNL     1       1.150   9.184  21.289  0.00  0.00    +0.000 NA
ENDROOT
BRANCH   3   6
ATOM      6  C   UNL     1       0.798  11.794  18.798  0.00  0.00    +0.000 C 
ATOM      7  C   UNL     1       1.580  12.854  19.619  0.00  0.00    +0.000 C 
ATOM      8  C   UNL     1       1.321  14.285  19.189  0.00  0.00    +0.000 C 
ATOM      9  C   UNL     1      -0.170  14.549  19.171  0.00  0.00    +0.000 C 
ATOM     10  C   UNL     1      -0.892  13.540  18.296  0.00  0.00    +0.000 C 
ATOM     11  N   UNL     1      -0.646  12.147  18.689  0.00  0.00    +0.000 N 
ATOM     12  C   UNL     1      -1.638  11.140  18.553  0.00  0.00    +0.000 C 
ATOM     13  O   UNL     1      -1.420   9.946  18.728  0.00  0.00    +0.000 OA
BRANCH  12  14
ATOM     14  C   UNL     1      -2.996  11.551  18.294  0.00  0.00    +0.000 A 
ATOM     15  C   UNL     1      -3.935  12.139  19.118  0.00  0.00    +0.000 A 
ATOM     16  C   UNL     1      -5.140  12.128  18.395  0.00  0.00    +0.000 A 
ATOM     17  N   UNL     1      -4.935  11.756  17.124  0.00  0.00    +0.000 NA
ATOM     18  N   UNL     1      -3.614  11.489  17.068  0.00  0.00    +0.000 N 
ATOM     19  C   UNL     1      -3.030  11.089  15.808  0.00  0.00    +0.000 C 
BRANCH  16  20
ATOM     20  C   UNL     1      -6.523  12.467  18.914  0.00  0.00    +0.000 C 
ATOM     21  C   UNL     1      -7.397  12.932  17.739  0.00  0.00    +0.000 C 
ATOM     22  C   UNL     1      -7.183  11.258  19.605  0.00  0.00    +0.000 C 
ATOM     23  C   UNL     1      -6.440  13.605  19.959  0.00  0.00    +0.000 C 
ENDBRANCH  16  20
ENDBRANCH  12  14
ENDBRANCH   3   6
BRANCH   1  25
ATOM     24  N   UNL     1       2.480   6.595  19.098  0.00  0.00    +0.000 N 
ATOM     25  C   UNL     1       1.894   7.071  20.274  0.00  0.00    +0.000 C 
ATOM     26  O   UNL     1       1.658   6.401  21.276  0.00  0.00    +0.000 OA
ATOM     27  H   UNL     1       2.680   7.273  18.380  0.00  0.00    +0.000 HD
BRANCH  24  31
ATOM     28  C   UNL     1       3.294   2.581  18.047  0.00  0.00    +0.000 A 
ATOM     29  C   UNL     1       2.004   3.080  17.963  0.00  0.00    +0.000 A 
ATOM     30  C   UNL     1       1.741   4.398  18.331  0.00  0.00    +0.000 A 
ATOM     31  C   UNL     1       2.756   5.249  18.775  0.00  0.00    +0.000 A 
ATOM     32  C   UNL     1       4.072   4.748  18.876  0.00  0.00    +0.000 A 
ATOM     33  C   UNL     1       5.267   5.552  19.319  0.00  0.00    +0.000 C 
ATOM     34  C   UNL     1       4.311   3.401  18.533  0.00  0.00    +0.000 A 
BRANCH  28  36
ATOM     35  C   UNL     1       4.288   0.565  18.740  0.00  0.00    +0.000 C 
ATOM     36  O   UNL     1       3.662   1.311  17.700  0.00  0.00    +0.000 OA
ENDBRANCH  28  36
ENDBRANCH  24  31
ENDBRANCH   1  25
TORSDOF 6
ENDMDL
MODEL 6
REMARK VINA RESULT:      -7.6      2.403      3.286
REMARK  Name = 
REMARK  12 active torsions:
REMARK  status: ('A' for Active; 'I' for Inactive)
REMARK    1  A    between atoms: C_1  and  O_2
REMARK    2  A    between atoms: O_2  and  C_3
REMARK    3  A    between atoms: C_6  and  N_7
REMARK    4  A    between atoms: C_8  and  C_10
REMARK    5  A    between atoms: C_12  and  C_13
REMARK    6  A    between atoms: C_19  and  C_21
REMARK    7  A    between atoms: C_23  and  C_24
REMARK    8  A    between atoms: C_24  and  C_25
REMARK    9  A    between atoms: C_24  and  C_26
REMARK   10  A    between atoms: C_24  and  C_27
REMARK   11  A    between atoms: N_29  and  C_30
REMARK   12  A    between atoms: C_33  and  C_34
REMARK                            x       y       z     vdW  Elec       q    Type
REMARK                         _______ _______ _______ _____ _____    ______ ____
ROOT
ATOM      1  C   UNL     1       1.068   9.801  19.817  0.00  0.00    +0.000 A 
ATOM      2  C   UNL     1       0.904  11.005  20.534  0.00  0.00    +0.000 A 
ATOM      3  C   UNL     1       0.470  11.910  19.603  0.00  0.00    +0.000 A 
ATOM      4  O   UNL     1       0.427  11.318  18.382  0.00  0.00    +0.000 OA
ATOM      5  N   UNL     1       0.823   9.997  18.507  0.00  0.00    +0.000 NA
ENDROOT
BRANCH   3   6
ATOM      6  C   UNL     1       0.049  13.325  19.714  0.00  0.00    +0.000 C 
ATOM      7  C   UNL     1       1.182  14.040  20.500  0.00  0.00    +0.000 C 
ATOM      8  C   UNL     1       0.854  15.466  20.900  0.00  0.00    +0.000 C 
ATOM      9  C   UNL     1      -0.471  15.496  21.634  0.00  0.00    +0.000 C 
ATOM     10  C   UNL     1      -1.570  14.859  20.803  0.00  0.00    +0.000 C 
ATOM     11  N   UNL     1      -1.267  13.481  20.396  0.00  0.00    +0.000 N 
ATOM     12  C   UNL     1      -2.281  12.495  20.264  0.00  0.00    +0.000 C 
ATOM     13  O   UNL     1      -2.086  11.383  19.784  0.00  0.00    +0.000 OA
BRANCH  12  14
ATOM     14  C   UNL     1      -3.583  12.778  20.817  0.00  0.00    +0.000 A 
ATOM     15  C   UNL     1      -4.774  13.102  20.201  0.00  0.00    +0.000 A 
ATOM     16  C   UNL     1      -5.654  13.465  21.235  0.00  0.00    +0.000 A 
ATOM     17  N   UNL     1      -5.127  13.186  22.436  0.00  0.00    +0.000 NA
ATOM     18  N   UNL     1      -3.903  12.695  22.151  0.00  0.00    +0.000 N 
ATOM     19  C   UNL     1      -3.056  12.246  23.233  0.00  0.00    +0.000 C 
BRANCH  16  20
ATOM     20  C   UNL     1      -7.023  14.099  21.094  0.00  0.00    +0.000 C 
ATOM     21  C   UNL     1      -7.697  13.557  19.825  0.00  0.00    +0.000 C 
ATOM     22  C   UNL     1      -7.914  13.809  22.319  0.00  0.00    +0.000 C 
ATOM     23  C   UNL     1      -6.893  15.636  20.975  0.00  0.00    +0.000 C 
ENDBRANCH  16  20
ENDBRANCH  12  14
ENDBRANCH   3   6
BRANCH   1  25
ATOM     24  N   UNL     1       2.115   7.698  19.388  0.00  0.00    +0.000 N 
ATOM     25  C   UNL     1       1.508   8.514  20.346  0.00  0.00    +0.000 C 
ATOM     26  O   UNL     1       1.296   8.204  21.517  0.00  0.00    +0.000 OA
ATOM     27  H   UNL     1       2.290   8.108  18.484  0.00  0.00    +0.000 HD
BRANCH  24  31
ATOM     28  C   UNL     1       3.025   3.587  19.771  0.00  0.00    +0.000 A 
ATOM     29  C   UNL     1       2.132   4.192  20.641  0.00  0.00    +0.000 A 
ATOM     30  C   UNL     1       1.854   5.551  20.521  0.00  0.00    +0.000 A 
ATOM     31  C   UNL     1       2.445   6.333  19.525  0.00  0.00    +0.000 A 
ATOM     32  C   UNL     1       3.366   5.730  18.640  0.00  0.00    +0.000 A 
ATOM     33  C   UNL     1       4.065   6.441  17.511  0.00  0.00    +0.000 C 
ATOM     34  C   UNL     1       3.662   4.360  18.802  0.00  0.00    +0.000 A 
BRANCH  28  36
ATOM     35  C   UNL     1       3.501   1.659  18.510  0.00  0.00    +0.000 C 
ATOM     36  O   UNL     1       3.359   2.261  19.794  0.00  0.00    +0.000 OA
ENDBRANCH  28  36
ENDBRANCH  24  31
ENDBRANCH   1  25
TORSDOF 6
ENDMDL
MODEL 7
REMARK VINA RESULT:      -7.5      2.252      3.200
REMARK  Name = 
REMARK  12 active torsions:
REMARK  status: ('A' for Active; 'I' for Inactive)
REMARK    1  A    between atoms: C_1  and  O_2
REMARK    2  A    between atoms: O_2  and  C_3
REMARK    3  A    between atoms: C_6  and  N_7
REMARK    4  A    between atoms: C_8  and  C_10
REMARK    5  A    between atoms: C_12  and  C_13
REMARK    6  A    between atoms: C_19  and  C_21
REMARK    7  A    between atoms: C_23  and  C_24
REMARK    8  A    between atoms: C_24  and  C_25
REMARK    9  A    between atoms: C_24  and  C_26
REMARK   10  A    between atoms: C_24  and  C_27
REMARK   11  A    between atoms: N_29  and  C_30
REMARK   12  A    between atoms: C_33  and  C_34
REMARK                            x       y       z     vdW  Elec       q    Type
REMARK                         _______ _______ _______ _____ _____    ______ ____
ROOT
ATOM      1  C   UNL     1       1.076   9.672  19.341  0.00  0.00    +0.000 A 
ATOM      2  C   UNL     1       0.985  10.932  19.970  0.00  0.00    +0.000 A 
ATOM      3  C   UNL     1       0.370  11.737  19.049  0.00  0.00    +0.000 A 
ATOM      4  O   UNL     1       0.151  11.036  17.908  0.00  0.00    +0.000 OA
ATOM      5  N   UNL     1       0.613   9.741  18.078  0.00  0.00    +0.000 NA
ENDROOT
BRANCH   3   6
ATOM      6  C   UNL     1      -0.081  13.147  19.107  0.00  0.00    +0.000 C 
ATOM      7  C   UNL     1       1.127  13.953  19.656  0.00  0.00    +0.000 C 
ATOM      8  C   UNL     1       0.809  15.399  19.984  0.00  0.00    +0.000 C 
ATOM      9  C   UNL     1      -0.395  15.460  20.901  0.00  0.00    +0.000 C 
ATOM     10  C   UNL     1      -1.579  14.728  20.297  0.00  0.00    +0.000 C 
ATOM     11  N   UNL     1      -1.289  13.328  19.962  0.00  0.00    +0.000 N 
ATOM     12  C   UNL     1      -2.274  12.310  20.062  0.00  0.00    +0.000 C 
ATOM     13  O   UNL     1      -2.112  11.166  19.650  0.00  0.00    +0.000 OA
BRANCH  12  14
ATOM     14  C   UNL     1      -3.492  12.607  20.777  0.00  0.00    +0.000 A 
ATOM     15  C   UNL     1      -3.698  13.020  22.077  0.00  0.00    +0.000 A 
ATOM     16  C   UNL     1      -5.087  12.958  22.284  0.00  0.00    +0.000 A 
ATOM     17  N   UNL     1      -5.735  12.727  21.133  0.00  0.00    +0.000 NA
ATOM     18  N   UNL     1      -4.749  12.599  20.222  0.00  0.00    +0.000 N 
ATOM     19  C   UNL     1      -5.097  12.378  18.836  0.00  0.00    +0.000 C 
BRANCH  16  20
ATOM     20  C   UNL     1      -5.826  13.109  23.598  0.00  0.00    +0.000 C 
ATOM     21  C   UNL     1      -4.973  12.504  24.724  0.00  0.00    +0.000 C 
ATOM     22  C   UNL     1      -6.128  14.587  23.914  0.00  0.00    +0.000 C 
ATOM     23  C   UNL     1      -7.181  12.365  23.541  0.00  0.00    +0.000 C 
ENDBRANCH  16  20
ENDBRANCH  12  14
ENDBRANCH   3   6
BRANCH   1  25
ATOM     24  N   UNL     1       2.304   7.661  18.950  0.00  0.00    +0.000 N 
ATOM     25  C   UNL     1       1.646   8.449  19.898  0.00  0.00    +0.000 C 
ATOM     26  O   UNL     1       1.491   8.160  21.083  0.00  0.00    +0.000 OA
ATOM     27  H   UNL     1       2.419   8.055  18.030  0.00  0.00    +0.000 HD
BRANCH  24  31
ATOM     28  C   UNL     1       3.610   3.667  19.420  0.00  0.00    +0.000 A 
ATOM     29  C   UNL     1       2.510   4.133  20.123  0.00  0.00    +0.000 A 
ATOM     30  C   UNL     1       2.099   5.456  19.978  0.00  0.00    +0.000 A 
ATOM     31  C   UNL     1       2.763   6.338  19.121  0.00  0.00    +0.000 A 
ATOM     32  C   UNL     1       3.892   5.878  18.408  0.00  0.00    +0.000 A 
ATOM     33  C   UNL     1       4.693   6.706  17.437  0.00  0.00    +0.000 C 
ATOM     34  C   UNL     1       4.314   4.545  18.597  0.00  0.00    +0.000 A 
BRANCH  28  36
ATOM     35  C   UNL     1       3.511   1.490  18.535  0.00  0.00    +0.000 C 
ATOM     36  O   UNL     1       4.088   2.387  19.479  0.00  0.00    +0.000 OA
ENDBRANCH  28  36
ENDBRANCH  24  31
ENDBRANCH   1  25
TORSDOF 6
ENDMDL
MODEL 8
REMARK VINA RESULT:      -7.5      1.611      1.936
REMARK  Name = 
REMARK  12 active torsions:
REMARK  status: ('A' for Active; 'I' for Inactive)
REMARK    1  A    between atoms: C_1  and  O_2
REMARK    2  A    between atoms: O_2  and  C_3
REMARK    3  A    between atoms: C_6  and  N_7
REMARK    4  A    between atoms: C_8  and  C_10
REMARK    5  A    between atoms: C_12  and  C_13
REMARK    6  A    between atoms: C_19  and  C_21
REMARK    7  A    between atoms: C_23  and  C_24
REMARK    8  A    between atoms: C_24  and  C_25
REMARK    9  A    between atoms: C_24  and  C_26
REMARK   10  A    between atoms: C_24  and  C_27
REMARK   11  A    between atoms: N_29  and  C_30
REMARK   12  A    between atoms: C_33  and  C_34
REMARK                            x       y       z     vdW  Elec       q    Type
REMARK                         _______ _______ _______ _____ _____    ______ ____
ROOT
ATOM      1  C   UNL     1       1.877   8.797  18.948  0.00  0.00    +0.000 A 
ATOM      2  C   UNL     1       1.654   9.910  18.110  0.00  0.00    +0.000 A 
ATOM      3  C   UNL     1       1.125  10.867  18.935  0.00  0.00    +0.000 A 
ATOM      4  O   UNL     1       0.977  10.357  20.184  0.00  0.00    +0.000 OA
ATOM      5  N   UNL     1       1.429   9.048  20.193  0.00  0.00    +0.000 NA
ENDROOT
BRANCH   3   6
ATOM      6  C   UNL     1       0.738  12.277  18.699  0.00  0.00    +0.000 C 
ATOM      7  C   UNL     1       1.789  13.134  19.454  0.00  0.00    +0.000 C 
ATOM      8  C   UNL     1       1.459  14.613  19.508  0.00  0.00    +0.000 C 
ATOM      9  C   UNL     1       0.058  14.803  20.052  0.00  0.00    +0.000 C 
ATOM     10  C   UNL     1      -0.952  14.012  19.241  0.00  0.00    +0.000 C 
ATOM     11  N   UNL     1      -0.645  12.578  19.167  0.00  0.00    +0.000 N 
ATOM     12  C   UNL     1      -1.666  11.591  19.118  0.00  0.00    +0.000 C 
ATOM     13  O   UNL     1      -1.450  10.403  18.905  0.00  0.00    +0.000 OA
BRANCH  12  14
ATOM     14  C   UNL     1      -3.015  11.989  19.436  0.00  0.00    +0.000 A 
ATOM     15  C   UNL     1      -4.170  11.953  18.680  0.00  0.00    +0.000 A 
ATOM     16  C   UNL     1      -5.137  12.649  19.425  0.00  0.00    +0.000 A 
ATOM     17  N   UNL     1      -4.690  12.924  20.658  0.00  0.00    +0.000 NA
ATOM     18  N   UNL     1      -3.430  12.441  20.665  0.00  0.00    +0.000 N 
ATOM     19  C   UNL     1      -2.649  12.534  21.878  0.00  0.00    +0.000 C 
BRANCH  16  20
ATOM     20  C   UNL     1      -6.515  13.078  18.963  0.00  0.00    +0.000 C 
ATOM     21  C   UNL     1      -6.846  12.363  17.644  0.00  0.00    +0.000 C 
ATOM     22  C   UNL     1      -7.595  12.752  20.014  0.00  0.00    +0.000 C 
ATOM     23  C   UNL     1      -6.551  14.606  18.727  0.00  0.00    +0.000 C 
ENDBRANCH  16  20
ENDBRANCH  12  14
ENDBRANCH   3   6
BRANCH   1  25
ATOM     24  N   UNL     1       2.395   6.556  19.588  0.00  0.00    +0.000 N 
ATOM     25  C   UNL     1       2.441   7.506  18.565  0.00  0.00    +0.000 C 
ATOM     26  O   UNL     1       2.942   7.338  17.455  0.00  0.00    +0.000 OA
ATOM     27  H   UNL     1       1.889   6.806  20.422  0.00  0.00    +0.000 HD
BRANCH  24  31
ATOM     28  C   UNL     1       4.387   2.828  19.718  0.00  0.00    +0.000 A 
ATOM     29  C   UNL     1       5.062   3.971  19.320  0.00  0.00    +0.000 A 
ATOM     30  C   UNL     1       4.393   5.191  19.260  0.00  0.00    +0.000 A 
ATOM     31  C   UNL     1       3.044   5.303  19.608  0.00  0.00    +0.000 A 
ATOM     32  C   UNL     1       2.343   4.143  20.005  0.00  0.00    +0.000 A 
ATOM     33  C   UNL     1       0.897   4.114  20.426  0.00  0.00    +0.000 C 
ATOM     34  C   UNL     1       3.029   2.911  20.024  0.00  0.00    +0.000 A 
BRANCH  28  36
ATOM     35  C   UNL     1       5.269   1.187  21.154  0.00  0.00    +0.000 C 
ATOM     36  O   UNL     1       4.950   1.587  19.824  0.00  0.00    +0.000 OA
ENDBRANCH  28  36
ENDBRANCH  24  31
ENDBRANCH   1  25
TORSDOF 6
ENDMDL
MODEL 9
REMARK VINA RESULT:      -7.4      2.838      4.239
REMARK  Name = 
REMARK  12 active torsions:
REMARK  status: ('A' for Active; 'I' for Inactive)
REMARK    1  A    between atoms: C_1  and  O_2
REMARK    2  A    between atoms: O_2  and  C_3
REMARK    3  A    between atoms: C_6  and  N_7
REMARK    4  A    between atoms: C_8  and  C_10
REMARK    5  A    between atoms: C_12  and  C_13
REMARK    6  A    between atoms: C_19  and  C_21
REMARK    7  A    between atoms: C_23  and  C_24
REMARK    8  A    between atoms: C_24  and  C_25
REMARK    9  A    between atoms: C_24  and  C_26
REMARK   10  A    between atoms: C_24  and  C_27
REMARK   11  A    between atoms: N_29  and  C_30
REMARK   12  A    between atoms: C_33  and  C_34
REMARK                            x       y       z     vdW  Elec       q    Type
REMARK                         _______ _______ _______ _____ _____    ______ ____
ROOT
ATOM      1  C   UNL     1       0.600  10.084  19.543  0.00  0.00    +0.000 A 
ATOM      2  C   UNL     1       0.819  11.442  19.855  0.00  0.00    +0.000 A 
ATOM      3  C   UNL     1      -0.034  12.131  19.034  0.00  0.00    +0.000 A 
ATOM      4  O   UNL     1      -0.692  11.258  18.230  0.00  0.00    +0.000 OA
ATOM      5  N   UNL     1      -0.281   9.970  18.531  0.00  0.00    +0.000 NA
ENDROOT
BRANCH   3   6
ATOM      6  C   UNL     1      -0.345  13.573  18.911  0.00  0.00    +0.000 C 
ATOM      7  C   UNL     1       1.026  14.291  18.788  0.00  0.00    +0.000 C 
ATOM      8  C   UNL     1       0.942  15.804  18.853  0.00  0.00    +0.000 C 
ATOM      9  C   UNL     1       0.180  16.218  20.094  0.00  0.00    +0.000 C 
ATOM     10  C   UNL     1      -1.186  15.558  20.141  0.00  0.00    +0.000 C 
ATOM     11  N   UNL     1      -1.128  14.092  20.069  0.00  0.00    +0.000 N 
ATOM     12  C   UNL     1      -2.061  13.267  20.751  0.00  0.00    +0.000 C 
ATOM     13  O   UNL     1      -2.134  12.053  20.593  0.00  0.00    +0.000 OA
BRANCH  12  14
ATOM     14  C   UNL     1      -2.898  13.872  21.758  0.00  0.00    +0.000 A 
ATOM     15  C   UNL     1      -4.249  14.155  21.760  0.00  0.00    +0.000 A 
ATOM     16  C   UNL     1      -4.478  14.922  22.915  0.00  0.00    +0.000 A 
ATOM     17  N   UNL     1      -3.393  14.946  23.701  0.00  0.00    +0.000 NA
ATOM     18  N   UNL     1      -2.475  14.235  23.015  0.00  0.00    +0.000 N 
ATOM     19  C   UNL     1      -1.171  14.020  23.600  0.00  0.00    +0.000 C 
BRANCH  16  20
ATOM     20  C   UNL     1      -5.748  15.662  23.286  0.00  0.00    +0.000 C 
ATOM     21  C   UNL     1      -6.248  16.442  22.060  0.00  0.00    +0.000 C 
ATOM     22  C   UNL     1      -6.848  14.697  23.771  0.00  0.00    +0.000 C 
ATOM     23  C   UNL     1      -5.472  16.659  24.436  0.00  0.00    +0.000 C 
ENDBRANCH  16  20
ENDBRANCH  12  14
ENDBRANCH   3   6
BRANCH   1  25
ATOM     24  N   UNL     1       1.853   8.079  19.209  0.00  0.00    +0.000 N 
ATOM     25  C   UNL     1       1.254   8.926  20.145  0.00  0.00    +0.000 C 
ATOM     26  O   UNL     1       1.212   8.733  21.358  0.00  0.00    +0.000 OA
ATOM     27  H   UNL     1       1.876   8.398  18.253  0.00  0.00    +0.000 HD
BRANCH  24  31
ATOM     28  C   UNL     1       3.321   4.172  19.886  0.00  0.00    +0.000 A 
ATOM     29  C   UNL     1       2.316   4.693  20.686  0.00  0.00    +0.000 A 
ATOM     30  C   UNL     1       1.853   5.988  20.469  0.00  0.00    +0.000 A 
ATOM     31  C   UNL     1       2.368   6.786  19.444  0.00  0.00    +0.000 A 
ATOM     32  C   UNL     1       3.400   6.271  18.630  0.00  0.00    +0.000 A 
ATOM     33  C   UNL     1       4.036   7.006  17.480  0.00  0.00    +0.000 C 
ATOM     34  C   UNL     1       3.880   4.970  18.889  0.00  0.00    +0.000 A 
BRANCH  28  36
ATOM     35  C   UNL     1       3.633   2.073  18.870  0.00  0.00    +0.000 C 
ATOM     36  O   UNL     1       3.838   2.911  20.004  0.00  0.00    +0.000 OA
ENDBRANCH  28  36
ENDBRANCH  24  31
ENDBRANCH   1  25
TORSDOF 6
ENDMDL
