MODEL 1
REMARK VINA RESULT:      -6.4      0.000      0.000
REMARK  Name = 
REMARK  11 active torsions:
REMARK  status: ('A' for Active; 'I' for Inactive)
REMARK    1  A    between atoms: N_1  and  C_2
REMARK    2  A    between atoms: C_2  and  C_3
REMARK    3  A    between atoms: C_2  and  C_17
REMARK    4  A    between atoms: C_3  and  C_4
REMARK    5  A    between atoms: C_4  and  S_5
REMARK    6  A    between atoms: S_5  and  C_6
REMARK    7  A    between atoms: C_6  and  C_7
REMARK    8  A    between atoms: C_10  and  C_11
REMARK    9  A    between atoms: C_11  and  C_12
REMARK   10  A    between atoms: C_12  and  O_14
REMARK   11  A    between atoms: C_17  and  O_19
REMARK                            x       y       z     vdW  Elec       q    Type
REMARK                         _______ _______ _______ _____ _____    ______ ____
ROOT
ATOM      1  C   UNK     1       4.964   5.401  15.903  0.00  0.00    +0.000 C 
ENDROOT
BRANCH   1   2
ATOM      2  C   UNK     1       4.054   5.306  17.103  0.00  0.00    +0.000 A 
ATOM      3  C   UNK     1       3.715   6.445  17.846  0.00  0.00    +0.000 A 
ATOM      4  C   UNK     1       2.927   6.339  18.994  0.00  0.00    +0.000 A 
ATOM      5  C   UNK     1       2.444   5.093  19.413  0.00  0.00    +0.000 A 
ATOM      6  C   UNK     1       2.749   3.958  18.651  0.00  0.00    +0.000 A 
ATOM      7  C   UNK     1       3.542   4.065  17.505  0.00  0.00    +0.000 A 
BRANCH   5   8
ATOM      8  C   UNK     1       1.637   4.968  20.686  0.00  0.00    +0.000 C 
BRANCH   8   9
ATOM      9  C   UNK     1       1.548   3.580  21.282  0.00  0.00    +0.000 C 
ATOM     10  O   UNK     1       2.368   3.147  22.082  0.00  0.00    +0.000 OA
BRANCH   9  11
ATOM     11  O   UNK     1       0.549   2.801  20.807  0.00  0.00    +0.000 OA
ATOM     12  H   UNK     1       0.854   1.954  20.428  0.00  0.00    +0.000 HD
ENDBRANCH   9  11
ENDBRANCH   8   9
ENDBRANCH   5   8
ENDBRANCH   1   2
BRANCH   1  13
ATOM     13  S   UNK     1       6.146   4.020  15.751  0.00  0.00    +0.000 S 
BRANCH  13  14
ATOM     14  C   UNK     1       7.455   4.579  16.895  0.00  0.00    +0.000 C 
BRANCH  14  15
ATOM     15  C   UNK     1       7.413   6.106  16.991  0.00  0.00    +0.000 C 
BRANCH  15  16
ATOM     16  C   UNK     1       7.359   6.662  18.418  0.00  0.00    +0.000 C 
BRANCH  16  17
ATOM     17  N   UNK     1       8.497   7.564  18.753  0.00  0.00    +0.000 NA
ATOM     18  H   UNK     1       8.107   8.445  19.101  0.00  0.00    +0.000 HD
ATOM     19  H   UNK     1       8.986   7.823  17.892  0.00  0.00    +0.000 HD
ENDBRANCH  16  17
BRANCH  16  20
ATOM     20  C   UNK     1       7.267   5.562  19.490  0.00  0.00    +0.000 C 
ATOM     21  O   UNK     1       6.255   4.961  19.815  0.00  0.00    +0.000 OA
BRANCH  20  22
ATOM     22  O   UNK     1       8.480   5.346  20.068  0.00  0.00    +0.000 OA
ATOM     23  H   UNK     1       8.412   5.677  20.997  0.00  0.00    +0.000 HD
ENDBRANCH  20  22
ENDBRANCH  16  20
ENDBRANCH  15  16
ENDBRANCH  14  15
ENDBRANCH  13  14
ENDBRANCH   1  13
TORSDOF 11
ENDMDL
MODEL 2
REMARK VINA RESULT:      -6.2      4.386      7.050
REMARK  Name = 
REMARK  11 active torsions:
REMARK  status: ('A' for Active; 'I' for Inactive)
REMARK    1  A    between atoms: N_1  and  C_2
REMARK    2  A    between atoms: C_2  and  C_3
REMARK    3  A    between atoms: C_2  and  C_17
REMARK    4  A    between atoms: C_3  and  C_4
REMARK    5  A    between atoms: C_4  and  S_5
REMARK    6  A    between atoms: S_5  and  C_6
REMARK    7  A    between atoms: C_6  and  C_7
REMARK    8  A    between atoms: C_10  and  C_11
REMARK    9  A    between atoms: C_11  and  C_12
REMARK   10  A    between atoms: C_12  and  O_14
REMARK   11  A    between atoms: C_17  and  O_19
REMARK                            x       y       z     vdW  Elec       q    Type
REMARK                         _______ _______ _______ _____ _____    ______ ____
ROOT
ATOM      1  C   UNK     1       2.165   7.633  18.895  0.00  0.00    +0.000 C 
ENDROOT
BRANCH   1   2
ATOM      2  C   UNK     1       3.042   6.729  18.065  0.00  0.00    +0.000 A 
ATOM      3  C   UNK     1       2.852   5.341  18.061  0.00  0.00    +0.000 A 
ATOM      4  C   UNK     1       3.711   4.506  17.343  0.00  0.00    +0.000 A 
ATOM      5  C   UNK     1       4.766   5.044  16.596  0.00  0.00    +0.000 A 
ATOM      6  C   UNK     1       4.935   6.435  16.567  0.00  0.00    +0.000 A 
ATOM      7  C   UNK     1       4.078   7.268  17.291  0.00  0.00    +0.000 A 
BRANCH   5   8
ATOM      8  C   UNK     1       5.731   4.139  15.862  0.00  0.00    +0.000 C 
BRANCH   8   9
ATOM      9  C   UNK     1       7.180   4.575  15.860  0.00  0.00    +0.000 C 
ATOM     10  O   UNK     1       7.925   4.407  16.818  0.00  0.00    +0.000 OA
BRANCH   9  11
ATOM     11  O   UNK     1       7.588   5.250  14.762  0.00  0.00    +0.000 OA
ATOM     12  H   UNK     1       6.900   5.824  14.372  0.00  0.00    +0.000 HD
ENDBRANCH   9  11
ENDBRANCH   8   9
ENDBRANCH   5   8
ENDBRANCH   1   2
BRANCH   1  13
ATOM     13  S   UNK     1       1.661   9.168  18.049  0.00  0.00    +0.000 S 
BRANCH  13  14
ATOM     14  C   UNK     1       0.784  10.020  19.406  0.00  0.00    +0.000 C 
BRANCH  14  15
ATOM     15  C   UNK     1       0.751   9.102  20.630  0.00  0.00    +0.000 C 
BRANCH  15  16
ATOM     16  C   UNK     1       0.928   9.814  21.976  0.00  0.00    +0.000 C 
BRANCH  16  17
ATOM     17  N   UNK     1       2.029   9.253  22.810  0.00  0.00    +0.000 NA
ATOM     18  H   UNK     1       1.834   8.259  22.960  0.00  0.00    +0.000 HD
ATOM     19  H   UNK     1       1.986   9.665  23.746  0.00  0.00    +0.000 HD
ENDBRANCH  16  17
BRANCH  16  20
ATOM     20  C   UNK     1      -0.361   9.844  22.815  0.00  0.00    +0.000 C 
ATOM     21  O   UNK     1      -0.846  10.829  23.350  0.00  0.00    +0.000 OA
BRANCH  20  22
ATOM     22  O   UNK     1      -0.904   8.600  22.915  0.00  0.00    +0.000 OA
ATOM     23  H   UNK     1      -1.089   8.449  23.874  0.00  0.00    +0.000 HD
ENDBRANCH  20  22
ENDBRANCH  16  20
ENDBRANCH  15  16
ENDBRANCH  14  15
ENDBRANCH  13  14
ENDBRANCH   1  13
TORSDOF 11
ENDMDL
MODEL 3
REMARK VINA RESULT:      -6.1      0.457      1.196
REMARK  Name = 
REMARK  11 active torsions:
REMARK  status: ('A' for Active; 'I' for Inactive)
REMARK    1  A    between atoms: N_1  and  C_2
REMARK    2  A    between atoms: C_2  and  C_3
REMARK    3  A    between atoms: C_2  and  C_17
REMARK    4  A    between atoms: C_3  and  C_4
REMARK    5  A    between atoms: C_4  and  S_5
REMARK    6  A    between atoms: S_5  and  C_6
REMARK    7  A    between atoms: C_6  and  C_7
REMARK    8  A    between atoms: C_10  and  C_11
REMARK    9  A    between atoms: C_11  and  C_12
REMARK   10  A    between atoms: C_12  and  O_14
REMARK   11  A    between atoms: C_17  and  O_19
REMARK                            x       y       z     vdW  Elec       q    Type
REMARK                         _______ _______ _______ _____ _____    ______ ____
ROOT
ATOM      1  C   UNK     1       4.991   5.264  15.702  0.00  0.00    +0.000 C 
ENDROOT
BRANCH   1   2
ATOM      2  C   UNK     1       4.137   5.095  16.933  0.00  0.00    +0.000 A 
ATOM      3  C   UNK     1       3.720   3.825  17.356  0.00  0.00    +0.000 A 
ATOM      4  C   UNK     1       2.874   3.683  18.459  0.00  0.00    +0.000 A 
ATOM      5  C   UNK     1       2.444   4.807  19.175  0.00  0.00    +0.000 A 
ATOM      6  C   UNK     1       2.890   6.074  18.778  0.00  0.00    +0.000 A 
ATOM      7  C   UNK     1       3.732   6.215  17.671  0.00  0.00    +0.000 A 
BRANCH   5   8
ATOM      8  C   UNK     1       1.484   4.661  20.335  0.00  0.00    +0.000 C 
BRANCH   8   9
ATOM      9  C   UNK     1       1.066   3.247  20.676  0.00  0.00    +0.000 C 
ATOM     10  O   UNK     1       1.642   2.569  21.518  0.00  0.00    +0.000 OA
BRANCH   9  11
ATOM     11  O   UNK     1       0.064   2.735  19.927  0.00  0.00    +0.000 OA
ATOM     12  H   UNK     1      -0.829   2.934  20.270  0.00  0.00    +0.000 HD
ENDBRANCH   9  11
ENDBRANCH   8   9
ENDBRANCH   5   8
ENDBRANCH   1   2
BRANCH   1  13
ATOM     13  S   UNK     1       6.325   4.030  15.542  0.00  0.00    +0.000 S 
BRANCH  13  14
ATOM     14  C   UNK     1       7.393   4.517  16.942  0.00  0.00    +0.000 C 
BRANCH  14  15
ATOM     15  C   UNK     1       7.480   6.044  16.993  0.00  0.00    +0.000 C 
BRANCH  15  16
ATOM     16  C   UNK     1       7.370   6.650  18.397  0.00  0.00    +0.000 C 
BRANCH  16  17
ATOM     17  N   UNK     1       8.475   7.593  18.730  0.00  0.00    +0.000 NA
ATOM     18  H   UNK     1       8.663   8.162  17.899  0.00  0.00    +0.000 HD
ATOM     19  H   UNK     1       9.339   7.063  18.877  0.00  0.00    +0.000 HD
ENDBRANCH  16  17
BRANCH  16  20
ATOM     20  C   UNK     1       7.276   5.588  19.505  0.00  0.00    +0.000 C 
ATOM     21  O   UNK     1       6.255   5.030  19.879  0.00  0.00    +0.000 OA
BRANCH  20  22
ATOM     22  O   UNK     1       8.498   5.351  20.056  0.00  0.00    +0.000 OA
ATOM     23  H   UNK     1       8.883   6.233  20.278  0.00  0.00    +0.000 HD
ENDBRANCH  20  22
ENDBRANCH  16  20
ENDBRANCH  15  16
ENDBRANCH  14  15
ENDBRANCH  13  14
ENDBRANCH   1  13
TORSDOF 11
ENDMDL
MODEL 4
REMARK VINA RESULT:      -6.0      4.211      6.612
REMARK  Name = 
REMARK  11 active torsions:
REMARK  status: ('A' for Active; 'I' for Inactive)
REMARK    1  A    between atoms: N_1  and  C_2
REMARK    2  A    between atoms: C_2  and  C_3
REMARK    3  A    between atoms: C_2  and  C_17
REMARK    4  A    between atoms: C_3  and  C_4
REMARK    5  A    between atoms: C_4  and  S_5
REMARK    6  A    between atoms: S_5  and  C_6
REMARK    7  A    between atoms: C_6  and  C_7
REMARK    8  A    between atoms: C_10  and  C_11
REMARK    9  A    between atoms: C_11  and  C_12
REMARK   10  A    between atoms: C_12  and  O_14
REMARK   11  A    between atoms: C_17  and  O_19
REMARK                            x       y       z     vdW  Elec       q    Type
REMARK                         _______ _______ _______ _____ _____    ______ ____
ROOT
ATOM      1  C   UNK     1       4.645   5.776  18.368  0.00  0.00    +0.000 C 
ENDROOT
BRANCH   1   2
ATOM      2  C   UNK     1       5.131   5.322  17.015  0.00  0.00    +0.000 A 
ATOM      3  C   UNK     1       5.694   4.051  16.836  0.00  0.00    +0.000 A 
ATOM      4  C   UNK     1       6.202   3.664  15.594  0.00  0.00    +0.000 A 
ATOM      5  C   UNK     1       6.140   4.533  14.498  0.00  0.00    +0.000 A 
ATOM      6  C   UNK     1       5.544   5.790  14.664  0.00  0.00    +0.000 A 
ATOM      7  C   UNK     1       5.041   6.177  15.909  0.00  0.00    +0.000 A 
BRANCH   5   8
ATOM      8  C   UNK     1       6.740   4.138  13.166  0.00  0.00    +0.000 C 
BRANCH   8   9
ATOM      9  C   UNK     1       5.873   3.272  12.279  0.00  0.00    +0.000 C 
ATOM     10  O   UNK     1       4.690   3.509  12.071  0.00  0.00    +0.000 OA
BRANCH   9  11
ATOM     11  O   UNK     1       6.462   2.155  11.794  0.00  0.00    +0.000 OA
ATOM     12  H   UNK     1       5.955   1.716  11.084  0.00  0.00    +0.000 HD
ENDBRANCH   9  11
ENDBRANCH   8   9
ENDBRANCH   5   8
ENDBRANCH   1   2
BRANCH   1  13
ATOM     13  S   UNK     1       2.909   6.335  18.390  0.00  0.00    +0.000 S 
BRANCH  13  14
ATOM     14  C   UNK     1       2.060   4.760  18.755  0.00  0.00    +0.000 C 
BRANCH  14  15
ATOM     15  C   UNK     1       2.275   3.797  17.585  0.00  0.00    +0.000 C 
BRANCH  15  16
ATOM     16  C   UNK     1       2.277   2.311  17.963  0.00  0.00    +0.000 C 
BRANCH  16  17
ATOM     17  N   UNK     1       1.072   1.886  18.729  0.00  0.00    +0.000 NA
ATOM     18  H   UNK     1       1.391   1.389  19.566  0.00  0.00    +0.000 HD
ATOM     19  H   UNK     1       0.562   1.179  18.191  0.00  0.00    +0.000 HD
ENDBRANCH  16  17
BRANCH  16  20
ATOM     20  C   UNK     1       3.533   1.891  18.745  0.00  0.00    +0.000 C 
ATOM     21  O   UNK     1       4.048   2.511  19.663  0.00  0.00    +0.000 OA
BRANCH  20  22
ATOM     22  O   UNK     1       4.035   0.721  18.265  0.00  0.00    +0.000 OA
ATOM     23  H   UNK     1       4.052   0.805  17.280  0.00  0.00    +0.000 HD
ENDBRANCH  20  22
ENDBRANCH  16  20
ENDBRANCH  15  16
ENDBRANCH  14  15
ENDBRANCH  13  14
ENDBRANCH   1  13
TORSDOF 11
ENDMDL
MODEL 5
REMARK VINA RESULT:      -6.0      2.372      2.866
REMARK  Name = 
REMARK  11 active torsions:
REMARK  status: ('A' for Active; 'I' for Inactive)
REMARK    1  A    between atoms: N_1  and  C_2
REMARK    2  A    between atoms: C_2  and  C_3
REMARK    3  A    between atoms: C_2  and  C_17
REMARK    4  A    between atoms: C_3  and  C_4
REMARK    5  A    between atoms: C_4  and  S_5
REMARK    6  A    between atoms: S_5  and  C_6
REMARK    7  A    between atoms: C_6  and  C_7
REMARK    8  A    between atoms: C_10  and  C_11
REMARK    9  A    between atoms: C_11  and  C_12
REMARK   10  A    between atoms: C_12  and  O_14
REMARK   11  A    between atoms: C_17  and  O_19
REMARK                            x       y       z     vdW  Elec       q    Type
REMARK                         _______ _______ _______ _____ _____    ______ ____
ROOT
ATOM      1  C   UNK     1       3.393   7.549  17.720  0.00  0.00    +0.000 C 
ENDROOT
BRANCH   1   2
ATOM      2  C   UNK     1       2.680   6.458  18.478  0.00  0.00    +0.000 A 
ATOM      3  C   UNK     1       2.244   6.658  19.795  0.00  0.00    +0.000 A 
ATOM      4  C   UNK     1       1.645   5.620  20.513  0.00  0.00    +0.000 A 
ATOM      5  C   UNK     1       1.450   4.366  19.922  0.00  0.00    +0.000 A 
ATOM      6  C   UNK     1       1.849   4.175  18.593  0.00  0.00    +0.000 A 
ATOM      7  C   UNK     1       2.454   5.213  17.878  0.00  0.00    +0.000 A 
BRANCH   5   8
ATOM      8  C   UNK     1       0.851   3.225  20.715  0.00  0.00    +0.000 C 
BRANCH   8   9
ATOM      9  C   UNK     1       1.763   2.574  21.731  0.00  0.00    +0.000 C 
ATOM     10  O   UNK     1       2.984   2.648  21.673  0.00  0.00    +0.000 OA
BRANCH   9  11
ATOM     11  O   UNK     1       1.149   1.818  22.670  0.00  0.00    +0.000 OA
ATOM     12  H   UNK     1       1.762   1.409  23.312  0.00  0.00    +0.000 HD
ENDBRANCH   9  11
ENDBRANCH   8   9
ENDBRANCH   5   8
ENDBRANCH   1   2
BRANCH   1  13
ATOM     13  S   UNK     1       4.680   6.946  16.576  0.00  0.00    +0.000 S 
BRANCH  13  14
ATOM     14  C   UNK     1       6.182   7.296  17.556  0.00  0.00    +0.000 C 
BRANCH  14  15
ATOM     15  C   UNK     1       7.344   6.474  16.994  0.00  0.00    +0.000 C 
BRANCH  15  16
ATOM     16  C   UNK     1       7.060   4.975  16.840  0.00  0.00    +0.000 C 
BRANCH  16  17
ATOM     17  N   UNK     1       8.043   4.104  17.544  0.00  0.00    +0.000 NA
ATOM     18  H   UNK     1       8.937   4.604  17.579  0.00  0.00    +0.000 HD
ATOM     19  H   UNK     1       8.235   3.279  16.969  0.00  0.00    +0.000 HD
ENDBRANCH  16  17
BRANCH  16  20
ATOM     20  C   UNK     1       6.967   4.528  15.371  0.00  0.00    +0.000 C 
ATOM     21  O   UNK     1       6.287   3.608  14.943  0.00  0.00    +0.000 OA
BRANCH  20  22
ATOM     22  O   UNK     1       7.773   5.288  14.580  0.00  0.00    +0.000 OA
ATOM     23  H   UNK     1       7.205   5.635  13.850  0.00  0.00    +0.000 HD
ENDBRANCH  20  22
ENDBRANCH  16  20
ENDBRANCH  15  16
ENDBRANCH  14  15
ENDBRANCH  13  14
ENDBRANCH   1  13
TORSDOF 11
ENDMDL
MODEL 6
REMARK VINA RESULT:      -6.0      1.725      2.214
REMARK  Name = 
REMARK  11 active torsions:
REMARK  status: ('A' for Active; 'I' for Inactive)
REMARK    1  A    between atoms: N_1  and  C_2
REMARK    2  A    between atoms: C_2  and  C_3
REMARK    3  A    between atoms: C_2  and  C_17
REMARK    4  A    between atoms: C_3  and  C_4
REMARK    5  A    between atoms: C_4  and  S_5
REMARK    6  A    between atoms: S_5  and  C_6
REMARK    7  A    between atoms: C_6  and  C_7
REMARK    8  A    between atoms: C_10  and  C_11
REMARK    9  A    between atoms: C_11  and  C_12
REMARK   10  A    between atoms: C_12  and  O_14
REMARK   11  A    between atoms: C_17  and  O_19
REMARK                            x       y       z     vdW  Elec       q    Type
REMARK                         _______ _______ _______ _____ _____    ______ ____
ROOT
ATOM      1  C   UNK     1       3.192   7.585  17.638  0.00  0.00    +0.000 C 
ENDROOT
BRANCH   1   2
ATOM      2  C   UNK     1       2.553   6.432  18.371  0.00  0.00    +0.000 A 
ATOM      3  C   UNK     1       2.363   6.473  19.759  0.00  0.00    +0.000 A 
ATOM      4  C   UNK     1       1.832   5.374  20.439  0.00  0.00    +0.000 A 
ATOM      5  C   UNK     1       1.462   4.218  19.741  0.00  0.00    +0.000 A 
ATOM      6  C   UNK     1       1.615   4.188  18.349  0.00  0.00    +0.000 A 
ATOM      7  C   UNK     1       2.151   5.287  17.672  0.00  0.00    +0.000 A 
BRANCH   5   8
ATOM      8  C   UNK     1       0.939   3.006  20.481  0.00  0.00    +0.000 C 
BRANCH   8   9
ATOM      9  C   UNK     1       1.686   2.623  21.739  0.00  0.00    +0.000 C 
ATOM     10  O   UNK     1       2.909   2.606  21.806  0.00  0.00    +0.000 OA
BRANCH   9  11
ATOM     11  O   UNK     1       0.920   2.206  22.773  0.00  0.00    +0.000 OA
ATOM     12  H   UNK     1       1.007   2.756  23.576  0.00  0.00    +0.000 HD
ENDBRANCH   9  11
ENDBRANCH   8   9
ENDBRANCH   5   8
ENDBRANCH   1   2
BRANCH   1  13
ATOM     13  S   UNK     1       5.000   7.439  17.446  0.00  0.00    +0.000 S 
BRANCH  13  14
ATOM     14  C   UNK     1       5.127   5.730  16.814  0.00  0.00    +0.000 C 
BRANCH  14  15
ATOM     15  C   UNK     1       5.905   4.883  17.824  0.00  0.00    +0.000 C 
BRANCH  15  16
ATOM     16  C   UNK     1       7.407   5.179  17.895  0.00  0.00    +0.000 C 
BRANCH  16  17
ATOM     17  N   UNK     1       8.265   3.997  17.603  0.00  0.00    +0.000 NA
ATOM     18  H   UNK     1       9.114   4.332  17.137  0.00  0.00    +0.000 HD
ATOM     19  H   UNK     1       7.804   3.410  16.902  0.00  0.00    +0.000 HD
ENDBRANCH  16  17
BRANCH  16  20
ATOM     20  C   UNK     1       7.839   5.783  19.242  0.00  0.00    +0.000 C 
ATOM     21  O   UNK     1       7.648   5.290  20.343  0.00  0.00    +0.000 OA
BRANCH  20  22
ATOM     22  O   UNK     1       8.458   6.982  19.060  0.00  0.00    +0.000 OA
ATOM     23  H   UNK     1       9.002   6.896  18.239  0.00  0.00    +0.000 HD
ENDBRANCH  20  22
ENDBRANCH  16  20
ENDBRANCH  15  16
ENDBRANCH  14  15
ENDBRANCH  13  14
ENDBRANCH   1  13
TORSDOF 11
ENDMDL
MODEL 7
REMARK VINA RESULT:      -6.0      4.075      6.693
REMARK  Name = 
REMARK  11 active torsions:
REMARK  status: ('A' for Active; 'I' for Inactive)
REMARK    1  A    between atoms: N_1  and  C_2
REMARK    2  A    between atoms: C_2  and  C_3
REMARK    3  A    between atoms: C_2  and  C_17
REMARK    4  A    between atoms: C_3  and  C_4
REMARK    5  A    between atoms: C_4  and  S_5
REMARK    6  A    between atoms: S_5  and  C_6
REMARK    7  A    between atoms: C_6  and  C_7
REMARK    8  A    between atoms: C_10  and  C_11
REMARK    9  A    between atoms: C_11  and  C_12
REMARK   10  A    between atoms: C_12  and  O_14
REMARK   11  A    between atoms: C_17  and  O_19
REMARK                            x       y       z     vdW  Elec       q    Type
REMARK                         _______ _______ _______ _____ _____    ______ ____
ROOT
ATOM      1  C   UNK     1       4.361   5.575  18.962  0.00  0.00    +0.000 C 
ENDROOT
BRANCH   1   2
ATOM      2  C   UNK     1       4.901   5.273  17.586  0.00  0.00    +0.000 A 
ATOM      3  C   UNK     1       5.521   4.047  17.305  0.00  0.00    +0.000 A 
ATOM      4  C   UNK     1       6.077   3.802  16.048  0.00  0.00    +0.000 A 
ATOM      5  C   UNK     1       6.007   4.768  15.038  0.00  0.00    +0.000 A 
ATOM      6  C   UNK     1       5.353   5.979  15.303  0.00  0.00    +0.000 A 
ATOM      7  C   UNK     1       4.802   6.225  16.564  0.00  0.00    +0.000 A 
BRANCH   5   8
ATOM      8  C   UNK     1       6.656   4.527  13.693  0.00  0.00    +0.000 C 
BRANCH   8   9
ATOM      9  C   UNK     1       5.921   3.591  12.759  0.00  0.00    +0.000 C 
ATOM     10  O   UNK     1       4.715   3.664  12.560  0.00  0.00    +0.000 OA
BRANCH   9  11
ATOM     11  O   UNK     1       6.664   2.599  12.218  0.00  0.00    +0.000 OA
ATOM     12  H   UNK     1       7.624   2.692  12.376  0.00  0.00    +0.000 HD
ENDBRANCH   9  11
ENDBRANCH   8   9
ENDBRANCH   5   8
ENDBRANCH   1   2
BRANCH   1  13
ATOM     13  S   UNK     1       2.739   6.409  18.962  0.00  0.00    +0.000 S 
BRANCH  13  14
ATOM     14  C   UNK     1       1.968   5.630  20.423  0.00  0.00    +0.000 C 
BRANCH  14  15
ATOM     15  C   UNK     1       2.083   4.109  20.294  0.00  0.00    +0.000 C 
BRANCH  15  16
ATOM     16  C   UNK     1       1.300   3.499  19.126  0.00  0.00    +0.000 C 
BRANCH  16  17
ATOM     17  N   UNK     1       0.128   2.683  19.551  0.00  0.00    +0.000 NA
ATOM     18  H   UNK     1      -0.081   2.019  18.798  0.00  0.00    +0.000 HD
ATOM     19  H   UNK     1      -0.701   3.282  19.600  0.00  0.00    +0.000 HD
ENDBRANCH  16  17
BRANCH  16  20
ATOM     20  C   UNK     1       2.179   2.652  18.189  0.00  0.00    +0.000 C 
ATOM     21  O   UNK     1       2.844   1.680  18.514  0.00  0.00    +0.000 OA
BRANCH  20  22
ATOM     22  O   UNK     1       2.147   3.141  16.919  0.00  0.00    +0.000 OA
ATOM     23  H   UNK     1       1.548   3.928  16.936  0.00  0.00    +0.000 HD
ENDBRANCH  20  22
ENDBRANCH  16  20
ENDBRANCH  15  16
ENDBRANCH  14  15
ENDBRANCH  13  14
ENDBRANCH   1  13
TORSDOF 11
ENDMDL
MODEL 8
REMARK VINA RESULT:      -5.9      3.469      6.091
REMARK  Name = 
REMARK  11 active torsions:
REMARK  status: ('A' for Active; 'I' for Inactive)
REMARK    1  A    between atoms: N_1  and  C_2
REMARK    2  A    between atoms: C_2  and  C_3
REMARK    3  A    between atoms: C_2  and  C_17
REMARK    4  A    between atoms: C_3  and  C_4
REMARK    5  A    between atoms: C_4  and  S_5
REMARK    6  A    between atoms: S_5  and  C_6
REMARK    7  A    between atoms: C_6  and  C_7
REMARK    8  A    between atoms: C_10  and  C_11
REMARK    9  A    between atoms: C_11  and  C_12
REMARK   10  A    between atoms: C_12  and  O_14
REMARK   11  A    between atoms: C_17  and  O_19
REMARK                            x       y       z     vdW  Elec       q    Type
REMARK                         _______ _______ _______ _____ _____    ______ ____
ROOT
ATOM      1  C   UNK     1       2.145   6.088  19.951  0.00  0.00    +0.000 C 
ENDROOT
BRANCH   1   2
ATOM      2  C   UNK     1       3.418   6.103  19.142  0.00  0.00    +0.000 A 
ATOM      3  C   UNK     1       4.569   5.441  19.591  0.00  0.00    +0.000 A 
ATOM      4  C   UNK     1       5.762   5.516  18.869  0.00  0.00    +0.000 A 
ATOM      5  C   UNK     1       5.824   6.238  17.671  0.00  0.00    +0.000 A 
ATOM      6  C   UNK     1       4.665   6.869  17.200  0.00  0.00    +0.000 A 
ATOM      7  C   UNK     1       3.474   6.797  17.926  0.00  0.00    +0.000 A 
BRANCH   5   8
ATOM      8  C   UNK     1       7.129   6.367  16.916  0.00  0.00    +0.000 C 
BRANCH   8   9
ATOM      9  C   UNK     1       7.497   5.202  16.023  0.00  0.00    +0.000 C 
ATOM     10  O   UNK     1       7.422   5.252  14.802  0.00  0.00    +0.000 OA
BRANCH   9  11
ATOM     11  O   UNK     1       7.833   4.058  16.661  0.00  0.00    +0.000 OA
ATOM     12  H   UNK     1       8.559   4.162  17.305  0.00  0.00    +0.000 HD
ENDBRANCH   9  11
ENDBRANCH   8   9
ENDBRANCH   5   8
ENDBRANCH   1   2
BRANCH   1  13
ATOM     13  S   UNK     1       1.910   4.578  20.947  0.00  0.00    +0.000 S 
BRANCH  13  14
ATOM     14  C   UNK     1       0.767   3.647  19.868  0.00  0.00    +0.000 C 
BRANCH  14  15
ATOM     15  C   UNK     1       1.320   3.646  18.441  0.00  0.00    +0.000 C 
BRANCH  15  16
ATOM     16  C   UNK     1       1.989   2.337  18.007  0.00  0.00    +0.000 C 
BRANCH  16  17
ATOM     17  N   UNK     1       1.996   1.289  19.066  0.00  0.00    +0.000 NA
ATOM     18  H   UNK     1       1.683   0.410  18.641  0.00  0.00    +0.000 HD
ATOM     19  H   UNK     1       1.275   1.506  19.761  0.00  0.00    +0.000 HD
ENDBRANCH  16  17
BRANCH  16  20
ATOM     20  C   UNK     1       3.427   2.535  17.498  0.00  0.00    +0.000 C 
ATOM     21  O   UNK     1       3.824   3.466  16.815  0.00  0.00    +0.000 OA
BRANCH  20  22
ATOM     22  O   UNK     1       4.226   1.506  17.891  0.00  0.00    +0.000 OA
ATOM     23  H   UNK     1       3.628   0.800  18.239  0.00  0.00    +0.000 HD
ENDBRANCH  20  22
ENDBRANCH  16  20
ENDBRANCH  15  16
ENDBRANCH  14  15
ENDBRANCH  13  14
ENDBRANCH   1  13
TORSDOF 11
ENDMDL
MODEL 9
REMARK VINA RESULT:      -5.9      4.588      6.324
REMARK  Name = 
REMARK  11 active torsions:
REMARK  status: ('A' for Active; 'I' for Inactive)
REMARK    1  A    between atoms: N_1  and  C_2
REMARK    2  A    between atoms: C_2  and  C_3
REMARK    3  A    between atoms: C_2  and  C_17
REMARK    4  A    between atoms: C_3  and  C_4
REMARK    5  A    between atoms: C_4  and  S_5
REMARK    6  A    between atoms: S_5  and  C_6
REMARK    7  A    between atoms: C_6  and  C_7
REMARK    8  A    between atoms: C_10  and  C_11
REMARK    9  A    between atoms: C_11  and  C_12
REMARK   10  A    between atoms: C_12  and  O_14
REMARK   11  A    between atoms: C_17  and  O_19
REMARK                            x       y       z     vdW  Elec       q    Type
REMARK                         _______ _______ _______ _____ _____    ______ ____
ROOT
ATOM      1  C   UNK     1       3.038   6.338  19.349  0.00  0.00    +0.000 C 
ENDROOT
BRANCH   1   2
ATOM      2  C   UNK     1       2.241   7.614  19.241  0.00  0.00    +0.000 A 
ATOM      3  C   UNK     1       1.593   8.159  20.358  0.00  0.00    +0.000 A 
ATOM      4  C   UNK     1       0.802   9.304  20.235  0.00  0.00    +0.000 A 
ATOM      5  C   UNK     1       0.659   9.940  18.996  0.00  0.00    +0.000 A 
ATOM      6  C   UNK     1       1.337   9.420  17.885  0.00  0.00    +0.000 A 
ATOM      7  C   UNK     1       2.123   8.271  18.009  0.00  0.00    +0.000 A 
BRANCH   5   8
ATOM      8  C   UNK     1      -0.241  11.147  18.848  0.00  0.00    +0.000 C 
BRANCH   8   9
ATOM      9  C   UNK     1      -1.470  10.958  17.987  0.00  0.00    +0.000 C 
ATOM     10  O   UNK     1      -2.184   9.965  18.058  0.00  0.00    +0.000 OA
BRANCH   9  11
ATOM     11  O   UNK     1      -1.689  11.916  17.058  0.00  0.00    +0.000 OA
ATOM     12  H   UNK     1      -1.208  11.772  16.220  0.00  0.00    +0.000 HD
ENDBRANCH   9  11
ENDBRANCH   8   9
ENDBRANCH   5   8
ENDBRANCH   1   2
BRANCH   1  13
ATOM     13  S   UNK     1       3.988   5.921  17.849  0.00  0.00    +0.000 S 
BRANCH  13  14
ATOM     14  C   UNK     1       3.347   4.246  17.507  0.00  0.00    +0.000 C 
BRANCH  14  15
ATOM     15  C   UNK     1       2.212   3.938  18.488  0.00  0.00    +0.000 C 
BRANCH  15  16
ATOM     16  C   UNK     1       2.453   2.725  19.394  0.00  0.00    +0.000 C 
BRANCH  16  17
ATOM     17  N   UNK     1       2.075   1.427  18.769  0.00  0.00    +0.000 NA
ATOM     18  H   UNK     1       1.212   1.574  18.236  0.00  0.00    +0.000 HD
ATOM     19  H   UNK     1       1.810   0.764  19.503  0.00  0.00    +0.000 HD
ENDBRANCH  16  17
BRANCH  16  20
ATOM     20  C   UNK     1       1.748   2.843  20.756  0.00  0.00    +0.000 C 
ATOM     21  O   UNK     1       2.225   2.538  21.839  0.00  0.00    +0.000 OA
BRANCH  20  22
ATOM     22  O   UNK     1       0.482   3.319  20.608  0.00  0.00    +0.000 OA
ATOM     23  H   UNK     1       0.526   4.027  19.920  0.00  0.00    +0.000 HD
ENDBRANCH  20  22
ENDBRANCH  16  20
ENDBRANCH  15  16
ENDBRANCH  14  15
ENDBRANCH  13  14
ENDBRANCH   1  13
TORSDOF 11
ENDMDL
