MODEL 1
REMARK VINA RESULT:      -7.6      0.000      0.000
REMARK  Name = 
REMARK  8 active torsions:
REMARK  status: ('A' for Active; 'I' for Inactive)
REMARK    1  A    between atoms: C_1  and  N_2
REMARK    2  A    between atoms: N_6  and  C_7
REMARK    3  A    between atoms: C_7  and  C_8
REMARK    4  A    between atoms: C_8  and  C_9
REMARK    5  A    between atoms: C_9  and  C_10
REMARK    6  A    between atoms: C_10  and  C_11
REMARK    7  A    between atoms: C_11  and  N_12
REMARK    8  A    between atoms: C_22  and  N_23
REMARK                            x       y       z     vdW  Elec       q    Type
REMARK                         _______ _______ _______ _____ _____    ______ ____
ROOT
ATOM      1  C   UNL     1       7.942   5.955  18.300  0.00  0.00    +0.000 C 
ATOM      2  N   UNL     1       6.761   5.162  17.988  0.00  0.00    +0.000 N 
ATOM      3  C   UNL     1       5.934   4.778  19.004  0.00  0.00    +0.000 C 
ATOM      4  O   UNL     1       6.052   5.223  20.138  0.00  0.00    +0.000 OA
ATOM      5  C   UNL     1       4.990   3.660  18.768  0.00  0.00    +0.000 C 
ATOM      6  N   UNL     1       4.347   3.770  17.464  0.00  0.00    +0.000 N 
ATOM      7  C   UNL     1       5.208   4.096  16.366  0.00  0.00    +0.000 A 
ATOM      8  C   UNL     1       4.848   3.798  15.039  0.00  0.00    +0.000 A 
ATOM      9  C   UNL     1       5.682   4.130  13.982  0.00  0.00    +0.000 A 
ATOM     10  C   UNL     1       6.898   4.790  14.206  0.00  0.00    +0.000 A 
ATOM     11  C   UNL     1       7.269   5.108  15.531  0.00  0.00    +0.000 A 
ATOM     12  C   UNL     1       6.443   4.760  16.628  0.00  0.00    +0.000 A 
ENDROOT
BRANCH  10  13
ATOM     13  N   UNL     1       7.732   5.151  13.101  0.00  0.00    +0.000 N 
ATOM     14  O   UNL     1       8.651   5.899  13.255  0.00  0.00    +0.000 OA
ATOM     15  O   UNL     1       7.493   4.676  11.898  0.00  0.00    +0.000 OA
ENDBRANCH  10  13
BRANCH   6  16
ATOM     16  C   UNL     1       2.932   3.450  17.241  0.00  0.00    +0.000 C 
BRANCH  16  17
ATOM     17  C   UNL     1       1.999   4.455  17.892  0.00  0.00    +0.000 C 
BRANCH  17  18
ATOM     18  C   UNL     1       1.518   4.070  19.276  0.00  0.00    +0.000 C 
BRANCH  18  19
ATOM     19  C   UNL     1       1.532   5.356  20.094  0.00  0.00    +0.000 C 
BRANCH  19  20
ATOM     20  C   UNL     1       2.653   6.315  19.686  0.00  0.00    +0.000 C 
BRANCH  20  21
ATOM     21  N   UNL     1       2.169   7.713  19.603  0.00  0.00    +0.000 NA
ATOM     22  C   UNL     1       1.675   8.065  18.255  0.00  0.00    +0.000 C 
ATOM     23  C   UNL     1       1.993   9.521  17.922  0.00  0.00    +0.000 C 
ATOM     24  C   UNL     1       1.037  10.532  18.547  0.00  0.00    +0.000 C 
ATOM     25  C   UNL     1       0.932  10.515  20.074  0.00  0.00    +0.000 C 
ATOM     26  C   UNL     1       0.331   9.214  20.604  0.00  0.00    +0.000 C 
ATOM     27  C   UNL     1       1.344   8.079  20.781  0.00  0.00    +0.000 C 
ENDBRANCH  20  21
ENDBRANCH  19  20
ENDBRANCH  18  19
ENDBRANCH  17  18
ENDBRANCH  16  17
ENDBRANCH   6  16
TORSDOF 7
ENDMDL
MODEL 2
REMARK VINA RESULT:      -7.3      2.104      3.668
REMARK  Name = 
REMARK  8 active torsions:
REMARK  status: ('A' for Active; 'I' for Inactive)
REMARK    1  A    between atoms: C_1  and  N_2
REMARK    2  A    between atoms: N_6  and  C_7
REMARK    3  A    between atoms: C_7  and  C_8
REMARK    4  A    between atoms: C_8  and  C_9
REMARK    5  A    between atoms: C_9  and  C_10
REMARK    6  A    between atoms: C_10  and  C_11
REMARK    7  A    between atoms: C_11  and  N_12
REMARK    8  A    between atoms: C_22  and  N_23
REMARK                            x       y       z     vdW  Elec       q    Type
REMARK                         _______ _______ _______ _____ _____    ______ ____
ROOT
ATOM      1  C   UNL     1       3.622   1.653  18.083  0.00  0.00    +0.000 C 
ATOM      2  N   UNL     1       3.266   3.044  18.323  0.00  0.00    +0.000 N 
ATOM      3  C   UNL     1       2.304   3.331  19.248  0.00  0.00    +0.000 C 
ATOM      4  O   UNL     1       1.859   2.478  20.005  0.00  0.00    +0.000 OA
ATOM      5  C   UNL     1       1.655   4.663  19.209  0.00  0.00    +0.000 C 
ATOM      6  N   UNL     1       2.628   5.726  18.990  0.00  0.00    +0.000 N 
ATOM      7  C   UNL     1       3.603   5.481  17.968  0.00  0.00    +0.000 A 
ATOM      8  C   UNL     1       4.289   6.539  17.343  0.00  0.00    +0.000 A 
ATOM      9  C   UNL     1       5.240   6.291  16.365  0.00  0.00    +0.000 A 
ATOM     10  C   UNL     1       5.559   4.979  15.987  0.00  0.00    +0.000 A 
ATOM     11  C   UNL     1       4.888   3.906  16.614  0.00  0.00    +0.000 A 
ATOM     12  C   UNL     1       3.898   4.135  17.600  0.00  0.00    +0.000 A 
ENDROOT
BRANCH  10  13
ATOM     13  N   UNL     1       6.564   4.742  14.998  0.00  0.00    +0.000 N 
ATOM     14  O   UNL     1       7.560   5.402  14.975  0.00  0.00    +0.000 OA
ATOM     15  O   UNL     1       6.404   3.802  14.092  0.00  0.00    +0.000 OA
ENDBRANCH  10  13
BRANCH   6  16
ATOM     16  C   UNL     1       2.561   7.024  19.671  0.00  0.00    +0.000 C 
BRANCH  16  17
ATOM     17  C   UNL     1       1.362   7.136  20.595  0.00  0.00    +0.000 C 
BRANCH  17  18
ATOM     18  C   UNL     1       1.317   8.400  21.427  0.00  0.00    +0.000 C 
BRANCH  18  19
ATOM     19  C   UNL     1      -0.158   8.760  21.558  0.00  0.00    +0.000 C 
BRANCH  19  20
ATOM     20  C   UNL     1      -0.406  10.271  21.594  0.00  0.00    +0.000 C 
BRANCH  20  21
ATOM     21  N   UNL     1       0.512  10.994  20.684  0.00  0.00    +0.000 NA
ATOM     22  C   UNL     1       0.267  10.680  19.260  0.00  0.00    +0.000 C 
ATOM     23  C   UNL     1       1.575  10.667  18.472  0.00  0.00    +0.000 C 
ATOM     24  C   UNL     1       2.090  12.050  18.088  0.00  0.00    +0.000 C 
ATOM     25  C   UNL     1       2.361  13.021  19.240  0.00  0.00    +0.000 C 
ATOM     26  C   UNL     1       1.086  13.407  19.990  0.00  0.00    +0.000 C 
ATOM     27  C   UNL     1       0.671  12.415  21.081  0.00  0.00    +0.000 C 
ENDBRANCH  20  21
ENDBRANCH  19  20
ENDBRANCH  18  19
ENDBRANCH  17  18
ENDBRANCH  16  17
ENDBRANCH   6  16
TORSDOF 7
ENDMDL
MODEL 3
REMARK VINA RESULT:      -7.3      2.765      4.429
REMARK  Name = 
REMARK  8 active torsions:
REMARK  status: ('A' for Active; 'I' for Inactive)
REMARK    1  A    between atoms: C_1  and  N_2
REMARK    2  A    between atoms: N_6  and  C_7
REMARK    3  A    between atoms: C_7  and  C_8
REMARK    4  A    between atoms: C_8  and  C_9
REMARK    5  A    between atoms: C_9  and  C_10
REMARK    6  A    between atoms: C_10  and  C_11
REMARK    7  A    between atoms: C_11  and  N_12
REMARK    8  A    between atoms: C_22  and  N_23
REMARK                            x       y       z     vdW  Elec       q    Type
REMARK                         _______ _______ _______ _____ _____    ______ ____
ROOT
ATOM      1  C   UNL     1       4.286   2.599  20.179  0.00  0.00    +0.000 C 
ATOM      2  N   UNL     1       3.583   3.850  19.934  0.00  0.00    +0.000 N 
ATOM      3  C   UNL     1       2.537   4.190  20.741  0.00  0.00    +0.000 C 
ATOM      4  O   UNL     1       2.283   3.572  21.767  0.00  0.00    +0.000 OA
ATOM      5  C   UNL     1       1.578   5.217  20.268  0.00  0.00    +0.000 C 
ATOM      6  N   UNL     1       2.265   6.344  19.650  0.00  0.00    +0.000 N 
ATOM      7  C   UNL     1       3.318   6.011  18.737  0.00  0.00    +0.000 A 
ATOM      8  C   UNL     1       3.749   6.921  17.753  0.00  0.00    +0.000 A 
ATOM      9  C   UNL     1       4.777   6.595  16.882  0.00  0.00    +0.000 A 
ATOM     10  C   UNL     1       5.431   5.358  16.972  0.00  0.00    +0.000 A 
ATOM     11  C   UNL     1       5.020   4.440  17.963  0.00  0.00    +0.000 A 
ATOM     12  C   UNL     1       3.958   4.741  18.849  0.00  0.00    +0.000 A 
ENDROOT
BRANCH  10  13
ATOM     13  N   UNL     1       6.510   5.052  16.086  0.00  0.00    +0.000 N 
ATOM     14  O   UNL     1       6.567   3.988  15.544  0.00  0.00    +0.000 OA
ATOM     15  O   UNL     1       7.464   5.930  15.862  0.00  0.00    +0.000 OA
ENDBRANCH  10  13
BRANCH   6  16
ATOM     16  C   UNL     1       1.844   7.738  19.837  0.00  0.00    +0.000 C 
BRANCH  16  17
ATOM     17  C   UNL     1       1.549   8.066  21.290  0.00  0.00    +0.000 C 
BRANCH  17  18
ATOM     18  C   UNL     1       0.842   9.387  21.511  0.00  0.00    +0.000 C 
BRANCH  18  19
ATOM     19  C   UNL     1       0.712  10.026  20.134  0.00  0.00    +0.000 C 
BRANCH  19  20
ATOM     20  C   UNL     1      -0.201  11.255  20.125  0.00  0.00    +0.000 C 
BRANCH  20  21
ATOM     21  N   UNL     1      -1.214  11.173  19.048  0.00  0.00    +0.000 NA
ATOM     22  C   UNL     1      -1.395   9.796  18.541  0.00  0.00    +0.000 C 
ATOM     23  C   UNL     1      -1.684   9.801  17.041  0.00  0.00    +0.000 C 
ATOM     24  C   UNL     1      -3.129  10.135  16.681  0.00  0.00    +0.000 C 
ATOM     25  C   UNL     1      -3.657  11.487  17.166  0.00  0.00    +0.000 C 
ATOM     26  C   UNL     1      -3.733  11.572  18.690  0.00  0.00    +0.000 C 
ATOM     27  C   UNL     1      -2.419  11.978  19.365  0.00  0.00    +0.000 C 
ENDBRANCH  20  21
ENDBRANCH  19  20
ENDBRANCH  18  19
ENDBRANCH  17  18
ENDBRANCH  16  17
ENDBRANCH   6  16
TORSDOF 7
ENDMDL
MODEL 4
REMARK VINA RESULT:      -7.3      2.780      4.234
REMARK  Name = 
REMARK  8 active torsions:
REMARK  status: ('A' for Active; 'I' for Inactive)
REMARK    1  A    between atoms: C_1  and  N_2
REMARK    2  A    between atoms: N_6  and  C_7
REMARK    3  A    between atoms: C_7  and  C_8
REMARK    4  A    between atoms: C_8  and  C_9
REMARK    5  A    between atoms: C_9  and  C_10
REMARK    6  A    between atoms: C_10  and  C_11
REMARK    7  A    between atoms: C_11  and  N_12
REMARK    8  A    between atoms: C_22  and  N_23
REMARK                            x       y       z     vdW  Elec       q    Type
REMARK                         _______ _______ _______ _____ _____    ______ ____
ROOT
ATOM      1  C   UNL     1       3.608   1.587  18.262  0.00  0.00    +0.000 C 
ATOM      2  N   UNL     1       3.240   2.982  18.459  0.00  0.00    +0.000 N 
ATOM      3  C   UNL     1       2.302   3.291  19.402  0.00  0.00    +0.000 C 
ATOM      4  O   UNL     1       1.894   2.463  20.205  0.00  0.00    +0.000 OA
ATOM      5  C   UNL     1       1.633   4.612  19.333  0.00  0.00    +0.000 C 
ATOM      6  N   UNL     1       2.583   5.678  19.042  0.00  0.00    +0.000 N 
ATOM      7  C   UNL     1       3.530   5.407  18.001  0.00  0.00    +0.000 A 
ATOM      8  C   UNL     1       4.182   6.449  17.315  0.00  0.00    +0.000 A 
ATOM      9  C   UNL     1       5.106   6.176  16.318  0.00  0.00    +0.000 A 
ATOM     10  C   UNL     1       5.431   4.856  15.980  0.00  0.00    +0.000 A 
ATOM     11  C   UNL     1       4.796   3.799  16.669  0.00  0.00    +0.000 A 
ATOM     12  C   UNL     1       3.834   4.052  17.676  0.00  0.00    +0.000 A 
ENDROOT
BRANCH  10  13
ATOM     13  N   UNL     1       6.410   4.594  14.971  0.00  0.00    +0.000 N 
ATOM     14  O   UNL     1       6.254   3.700  14.193  0.00  0.00    +0.000 OA
ATOM     15  O   UNL     1       7.500   5.325  14.889  0.00  0.00    +0.000 OA
ENDBRANCH  10  13
BRANCH   6  16
ATOM     16  C   UNL     1       2.519   7.001  19.675  0.00  0.00    +0.000 C 
BRANCH  16  17
ATOM     17  C   UNL     1       1.337   7.138  20.619  0.00  0.00    +0.000 C 
BRANCH  17  18
ATOM     18  C   UNL     1       1.355   8.382  21.481  0.00  0.00    +0.000 C 
BRANCH  18  19
ATOM     19  C   UNL     1       0.282   9.301  20.909  0.00  0.00    +0.000 C 
BRANCH  19  20
ATOM     20  C   UNL     1       0.703  10.773  20.883  0.00  0.00    +0.000 C 
BRANCH  20  21
ATOM     21  N   UNL     1      -0.407  11.664  21.293  0.00  0.00    +0.000 NA
ATOM     22  C   UNL     1      -1.448  11.792  20.251  0.00  0.00    +0.000 C 
ATOM     23  C   UNL     1      -2.040  13.199  20.243  0.00  0.00    +0.000 C 
ATOM     24  C   UNL     1      -3.082  13.448  21.329  0.00  0.00    +0.000 C 
ATOM     25  C   UNL     1      -2.621  13.247  22.775  0.00  0.00    +0.000 C 
ATOM     26  C   UNL     1      -2.261  11.793  23.076  0.00  0.00    +0.000 C 
ATOM     27  C   UNL     1      -0.829  11.406  22.691  0.00  0.00    +0.000 C 
ENDBRANCH  20  21
ENDBRANCH  19  20
ENDBRANCH  18  19
ENDBRANCH  17  18
ENDBRANCH  16  17
ENDBRANCH   6  16
TORSDOF 7
ENDMDL
MODEL 5
REMARK VINA RESULT:      -7.3      2.409      4.126
REMARK  Name = 
REMARK  8 active torsions:
REMARK  status: ('A' for Active; 'I' for Inactive)
REMARK    1  A    between atoms: C_1  and  N_2
REMARK    2  A    between atoms: N_6  and  C_7
REMARK    3  A    between atoms: C_7  and  C_8
REMARK    4  A    between atoms: C_8  and  C_9
REMARK    5  A    between atoms: C_9  and  C_10
REMARK    6  A    between atoms: C_10  and  C_11
REMARK    7  A    between atoms: C_11  and  N_12
REMARK    8  A    between atoms: C_22  and  N_23
REMARK                            x       y       z     vdW  Elec       q    Type
REMARK                         _______ _______ _______ _____ _____    ______ ____
ROOT
ATOM      1  C   UNL     1       3.509   1.791  18.060  0.00  0.00    +0.000 C 
ATOM      2  N   UNL     1       3.212   3.201  18.265  0.00  0.00    +0.000 N 
ATOM      3  C   UNL     1       2.268   3.552  19.187  0.00  0.00    +0.000 C 
ATOM      4  O   UNL     1       1.794   2.738  19.969  0.00  0.00    +0.000 OA
ATOM      5  C   UNL     1       1.674   4.907  19.116  0.00  0.00    +0.000 C 
ATOM      6  N   UNL     1       2.688   5.924  18.863  0.00  0.00    +0.000 N 
ATOM      7  C   UNL     1       3.645   5.612  17.843  0.00  0.00    +0.000 A 
ATOM      8  C   UNL     1       4.370   6.624  17.186  0.00  0.00    +0.000 A 
ATOM      9  C   UNL     1       5.304   6.312  16.210  0.00  0.00    +0.000 A 
ATOM     10  C   UNL     1       5.566   4.979  15.865  0.00  0.00    +0.000 A 
ATOM     11  C   UNL     1       4.857   3.951  16.524  0.00  0.00    +0.000 A 
ATOM     12  C   UNL     1       3.883   4.246  17.510  0.00  0.00    +0.000 A 
ENDROOT
BRANCH  10  13
ATOM     13  N   UNL     1       6.555   4.675  14.878  0.00  0.00    +0.000 N 
ATOM     14  O   UNL     1       6.419   3.735  14.152  0.00  0.00    +0.000 OA
ATOM     15  O   UNL     1       7.634   5.417  14.760  0.00  0.00    +0.000 OA
ENDBRANCH  10  13
BRANCH   6  16
ATOM     16  C   UNL     1       2.678   7.241  19.510  0.00  0.00    +0.000 C 
BRANCH  16  17
ATOM     17  C   UNL     1       1.539   8.120  19.024  0.00  0.00    +0.000 C 
BRANCH  17  18
ATOM     18  C   UNL     1       1.956   9.250  18.106  0.00  0.00    +0.000 C 
BRANCH  18  19
ATOM     19  C   UNL     1       1.061  10.430  18.466  0.00  0.00    +0.000 C 
BRANCH  19  20
ATOM     20  C   UNL     1      -0.349  10.008  18.888  0.00  0.00    +0.000 C 
BRANCH  20  21
ATOM     21  N   UNL     1      -0.831  10.801  20.043  0.00  0.00    +0.000 NA
ATOM     22  C   UNL     1       0.120  10.793  21.175  0.00  0.00    +0.000 C 
ATOM     23  C   UNL     1      -0.623  10.806  22.509  0.00  0.00    +0.000 C 
ATOM     24  C   UNL     1      -1.132  12.181  22.932  0.00  0.00    +0.000 C 
ATOM     25  C   UNL     1      -2.092  12.879  21.966  0.00  0.00    +0.000 C 
ATOM     26  C   UNL     1      -1.427  13.235  20.637  0.00  0.00    +0.000 C 
ATOM     27  C   UNL     1      -1.415  12.096  19.613  0.00  0.00    +0.000 C 
ENDBRANCH  20  21
ENDBRANCH  19  20
ENDBRANCH  18  19
ENDBRANCH  17  18
ENDBRANCH  16  17
ENDBRANCH   6  16
TORSDOF 7
ENDMDL
MODEL 6
REMARK VINA RESULT:      -7.2      2.458      4.205
REMARK  Name = 
REMARK  8 active torsions:
REMARK  status: ('A' for Active; 'I' for Inactive)
REMARK    1  A    between atoms: C_1  and  N_2
REMARK    2  A    between atoms: N_6  and  C_7
REMARK    3  A    between atoms: C_7  and  C_8
REMARK    4  A    between atoms: C_8  and  C_9
REMARK    5  A    between atoms: C_9  and  C_10
REMARK    6  A    between atoms: C_10  and  C_11
REMARK    7  A    between atoms: C_11  and  N_12
REMARK    8  A    between atoms: C_22  and  N_23
REMARK                            x       y       z     vdW  Elec       q    Type
REMARK                         _______ _______ _______ _____ _____    ______ ____
ROOT
ATOM      1  C   UNL     1       4.070   2.347  20.423  0.00  0.00    +0.000 C 
ATOM      2  N   UNL     1       3.454   3.631  20.123  0.00  0.00    +0.000 N 
ATOM      3  C   UNL     1       2.440   4.080  20.919  0.00  0.00    +0.000 C 
ATOM      4  O   UNL     1       2.152   3.529  21.974  0.00  0.00    +0.000 OA
ATOM      5  C   UNL     1       1.551   5.148  20.404  0.00  0.00    +0.000 C 
ATOM      6  N   UNL     1       2.309   6.196  19.730  0.00  0.00    +0.000 N 
ATOM      7  C   UNL     1       3.329   5.749  18.829  0.00  0.00    +0.000 A 
ATOM      8  C   UNL     1       3.813   6.581  17.801  0.00  0.00    +0.000 A 
ATOM      9  C   UNL     1       4.810   6.144  16.942  0.00  0.00    +0.000 A 
ATOM     10  C   UNL     1       5.377   4.871  17.086  0.00  0.00    +0.000 A 
ATOM     11  C   UNL     1       4.911   4.029  18.120  0.00  0.00    +0.000 A 
ATOM     12  C   UNL     1       3.880   4.444  18.997  0.00  0.00    +0.000 A 
ENDROOT
BRANCH  10  13
ATOM     13  N   UNL     1       6.425   4.449  16.209  0.00  0.00    +0.000 N 
ATOM     14  O   UNL     1       7.566   4.693  16.467  0.00  0.00    +0.000 OA
ATOM     15  O   UNL     1       6.150   3.798  15.100  0.00  0.00    +0.000 OA
ENDBRANCH  10  13
BRANCH   6  16
ATOM     16  C   UNL     1       1.986   7.622  19.855  0.00  0.00    +0.000 C 
BRANCH  16  17
ATOM     17  C   UNL     1       1.435   7.976  21.225  0.00  0.00    +0.000 C 
BRANCH  17  18
ATOM     18  C   UNL     1      -0.038   8.324  21.246  0.00  0.00    +0.000 C 
BRANCH  18  19
ATOM     19  C   UNL     1      -0.146   9.717  20.637  0.00  0.00    +0.000 C 
BRANCH  19  20
ATOM     20  C   UNL     1       0.615  10.781  21.432  0.00  0.00    +0.000 C 
BRANCH  20  21
ATOM     21  N   UNL     1       1.176  11.826  20.544  0.00  0.00    +0.000 NA
ATOM     22  C   UNL     1       1.097  11.459  19.114  0.00  0.00    +0.000 C 
ATOM     23  C   UNL     1       2.310  11.986  18.350  0.00  0.00    +0.000 C 
ATOM     24  C   UNL     1       2.230  13.465  17.986  0.00  0.00    +0.000 C 
ATOM     25  C   UNL     1       2.071  14.446  19.150  0.00  0.00    +0.000 C 
ATOM     26  C   UNL     1       0.738  14.275  19.879  0.00  0.00    +0.000 C 
ATOM     27  C   UNL     1       0.744  13.185  20.955  0.00  0.00    +0.000 C 
ENDBRANCH  20  21
ENDBRANCH  19  20
ENDBRANCH  18  19
ENDBRANCH  17  18
ENDBRANCH  16  17
ENDBRANCH   6  16
TORSDOF 7
ENDMDL
MODEL 7
REMARK VINA RESULT:      -7.2      2.725      4.445
REMARK  Name = 
REMARK  8 active torsions:
REMARK  status: ('A' for Active; 'I' for Inactive)
REMARK    1  A    between atoms: C_1  and  N_2
REMARK    2  A    between atoms: N_6  and  C_7
REMARK    3  A    between atoms: C_7  and  C_8
REMARK    4  A    between atoms: C_8  and  C_9
REMARK    5  A    between atoms: C_9  and  C_10
REMARK    6  A    between atoms: C_10  and  C_11
REMARK    7  A    between atoms: C_11  and  N_12
REMARK    8  A    between atoms: C_22  and  N_23
REMARK                            x       y       z     vdW  Elec       q    Type
REMARK                         _______ _______ _______ _____ _____    ______ ____
ROOT
ATOM      1  C   UNL     1       4.349   2.498  19.935  0.00  0.00    +0.000 C 
ATOM      2  N   UNL     1       3.737   3.772  19.586  0.00  0.00    +0.000 N 
ATOM      3  C   UNL     1       2.565   4.130  20.189  0.00  0.00    +0.000 C 
ATOM      4  O   UNL     1       2.107   3.504  21.135  0.00  0.00    +0.000 OA
ATOM      5  C   UNL     1       1.740   5.191  19.564  0.00  0.00    +0.000 C 
ATOM      6  N   UNL     1       2.559   6.307  19.108  0.00  0.00    +0.000 N 
ATOM      7  C   UNL     1       3.757   5.958  18.404  0.00  0.00    +0.000 A 
ATOM      8  C   UNL     1       4.388   6.870  17.537  0.00  0.00    +0.000 A 
ATOM      9  C   UNL     1       5.555   6.528  16.870  0.00  0.00    +0.000 A 
ATOM     10  C   UNL     1       6.148   5.272  17.057  0.00  0.00    +0.000 A 
ATOM     11  C   UNL     1       5.534   4.350  17.933  0.00  0.00    +0.000 A 
ATOM     12  C   UNL     1       4.332   4.669  18.610  0.00  0.00    +0.000 A 
ENDROOT
BRANCH  10  13
ATOM     13  N   UNL     1       7.368   4.948  16.384  0.00  0.00    +0.000 N 
ATOM     14  O   UNL     1       8.121   4.145  16.848  0.00  0.00    +0.000 OA
ATOM     15  O   UNL     1       7.684   5.536  15.251  0.00  0.00    +0.000 OA
ENDBRANCH  10  13
BRANCH   6  16
ATOM     16  C   UNL     1       2.145   7.709  19.241  0.00  0.00    +0.000 C 
BRANCH  16  17
ATOM     17  C   UNL     1       1.742   8.325  17.913  0.00  0.00    +0.000 C 
BRANCH  17  18
ATOM     18  C   UNL     1       1.475   9.815  17.960  0.00  0.00    +0.000 C 
BRANCH  18  19
ATOM     19  C   UNL     1       0.633  10.048  19.209  0.00  0.00    +0.000 C 
BRANCH  19  20
ATOM     20  C   UNL     1      -0.638  10.856  18.934  0.00  0.00    +0.000 C 
BRANCH  20  21
ATOM     21  N   UNL     1      -1.270  11.320  20.191  0.00  0.00    +0.000 NA
ATOM     22  C   UNL     1      -0.287  11.553  21.270  0.00  0.00    +0.000 C 
ATOM     23  C   UNL     1      -0.874  11.182  22.631  0.00  0.00    +0.000 C 
ATOM     24  C   UNL     1      -1.796  12.241  23.227  0.00  0.00    +0.000 C 
ATOM     25  C   UNL     1      -3.017  12.632  22.390  0.00  0.00    +0.000 C 
ATOM     26  C   UNL     1      -2.631  13.318  21.080  0.00  0.00    +0.000 C 
ATOM     27  C   UNL     1      -2.305  12.352  19.936  0.00  0.00    +0.000 C 
ENDBRANCH  20  21
ENDBRANCH  19  20
ENDBRANCH  18  19
ENDBRANCH  17  18
ENDBRANCH  16  17
ENDBRANCH   6  16
TORSDOF 7
ENDMDL
MODEL 8
REMARK VINA RESULT:      -7.2      4.988      9.399
REMARK  Name = 
REMARK  8 active torsions:
REMARK  status: ('A' for Active; 'I' for Inactive)
REMARK    1  A    between atoms: C_1  and  N_2
REMARK    2  A    between atoms: N_6  and  C_7
REMARK    3  A    between atoms: C_7  and  C_8
REMARK    4  A    between atoms: C_8  and  C_9
REMARK    5  A    between atoms: C_9  and  C_10
REMARK    6  A    between atoms: C_10  and  C_11
REMARK    7  A    between atoms: C_11  and  N_12
REMARK    8  A    between atoms: C_22  and  N_23
REMARK                            x       y       z     vdW  Elec       q    Type
REMARK                         _______ _______ _______ _____ _____    ______ ____
ROOT
ATOM      1  C   UNL     1      -1.230  12.213  21.810  0.00  0.00    +0.000 C 
ATOM      2  N   UNL     1      -0.692  11.555  20.628  0.00  0.00    +0.000 N 
ATOM      3  C   UNL     1       0.596  11.104  20.649  0.00  0.00    +0.000 C 
ATOM      4  O   UNL     1       1.255  11.076  21.681  0.00  0.00    +0.000 OA
ATOM      5  C   UNL     1       1.271  10.817  19.361  0.00  0.00    +0.000 C 
ATOM      6  N   UNL     1       0.389  10.105  18.444  0.00  0.00    +0.000 N 
ATOM      7  C   UNL     1      -0.949  10.606  18.345  0.00  0.00    +0.000 A 
ATOM      8  C   UNL     1      -1.750  10.338  17.219  0.00  0.00    +0.000 A 
ATOM      9  C   UNL     1      -3.049  10.817  17.138  0.00  0.00    +0.000 A 
ATOM     10  C   UNL     1      -3.606  11.564  18.185  0.00  0.00    +0.000 A 
ATOM     11  C   UNL     1      -2.820  11.832  19.327  0.00  0.00    +0.000 A 
ATOM     12  C   UNL     1      -1.484  11.371  19.423  0.00  0.00    +0.000 A 
ENDROOT
BRANCH  10  13
ATOM     13  N   UNL     1      -4.958  12.024  18.097  0.00  0.00    +0.000 N 
ATOM     14  O   UNL     1      -5.607  11.813  17.116  0.00  0.00    +0.000 OA
ATOM     15  O   UNL     1      -5.502  12.695  19.089  0.00  0.00    +0.000 OA
ENDBRANCH  10  13
BRANCH   6  16
ATOM     16  C   UNL     1       0.852   9.017  17.573  0.00  0.00    +0.000 C 
BRANCH  16  17
ATOM     17  C   UNL     1       2.308   8.660  17.812  0.00  0.00    +0.000 C 
BRANCH  17  18
ATOM     18  C   UNL     1       2.528   7.422  18.657  0.00  0.00    +0.000 C 
BRANCH  18  19
ATOM     19  C   UNL     1       3.658   6.654  17.983  0.00  0.00    +0.000 C 
BRANCH  19  20
ATOM     20  C   UNL     1       3.298   5.196  17.682  0.00  0.00    +0.000 C 
BRANCH  20  21
ATOM     21  N   UNL     1       2.914   4.466  18.912  0.00  0.00    +0.000 NA
ATOM     22  C   UNL     1       1.555   3.889  18.831  0.00  0.00    +0.000 C 
ATOM     23  C   UNL     1       0.864   3.931  20.193  0.00  0.00    +0.000 C 
ATOM     24  C   UNL     1       1.290   2.820  21.148  0.00  0.00    +0.000 C 
ATOM     25  C   UNL     1       2.780   2.750  21.491  0.00  0.00    +0.000 C 
ATOM     26  C   UNL     1       3.643   2.406  20.277  0.00  0.00    +0.000 C 
ATOM     27  C   UNL     1       4.021   3.612  19.411  0.00  0.00    +0.000 C 
ENDBRANCH  20  21
ENDBRANCH  19  20
ENDBRANCH  18  19
ENDBRANCH  17  18
ENDBRANCH  16  17
ENDBRANCH   6  16
TORSDOF 7
ENDMDL
MODEL 9
REMARK VINA RESULT:      -7.2      2.643      4.242
REMARK  Name = 
REMARK  8 active torsions:
REMARK  status: ('A' for Active; 'I' for Inactive)
REMARK    1  A    between atoms: C_1  and  N_2
REMARK    2  A    between atoms: N_6  and  C_7
REMARK    3  A    between atoms: C_7  and  C_8
REMARK    4  A    between atoms: C_8  and  C_9
REMARK    5  A    between atoms: C_9  and  C_10
REMARK    6  A    between atoms: C_10  and  C_11
REMARK    7  A    between atoms: C_11  and  N_12
REMARK    8  A    between atoms: C_22  and  N_23
REMARK                            x       y       z     vdW  Elec       q    Type
REMARK                         _______ _______ _______ _____ _____    ______ ____
ROOT
ATOM      1  C   UNL     1       4.449   2.486  20.088  0.00  0.00    +0.000 C 
ATOM      2  N   UNL     1       3.815   3.748  19.735  0.00  0.00    +0.000 N 
ATOM      3  C   UNL     1       2.669   4.116  20.381  0.00  0.00    +0.000 C 
ATOM      4  O   UNL     1       2.257   3.513  21.363  0.00  0.00    +0.000 OA
ATOM      5  C   UNL     1       1.811   5.157  19.768  0.00  0.00    +0.000 C 
ATOM      6  N   UNL     1       2.603   6.265  19.247  0.00  0.00    +0.000 N 
ATOM      7  C   UNL     1       3.770   5.903  18.499  0.00  0.00    +0.000 A 
ATOM      8  C   UNL     1       4.356   6.795  17.581  0.00  0.00    +0.000 A 
ATOM      9  C   UNL     1       5.493   6.440  16.871  0.00  0.00    +0.000 A 
ATOM     10  C   UNL     1       6.101   5.192  17.062  0.00  0.00    +0.000 A 
ATOM     11  C   UNL     1       5.532   4.291  17.989  0.00  0.00    +0.000 A 
ATOM     12  C   UNL     1       4.360   4.622  18.711  0.00  0.00    +0.000 A 
ENDROOT
BRANCH  10  13
ATOM     13  N   UNL     1       7.291   4.856  16.343  0.00  0.00    +0.000 N 
ATOM     14  O   UNL     1       8.124   4.159  16.841  0.00  0.00    +0.000 OA
ATOM     15  O   UNL     1       7.491   5.317  15.128  0.00  0.00    +0.000 OA
ENDBRANCH  10  13
BRANCH   6  16
ATOM     16  C   UNL     1       2.187   7.668  19.363  0.00  0.00    +0.000 C 
BRANCH  16  17
ATOM     17  C   UNL     1       1.970   8.324  18.011  0.00  0.00    +0.000 C 
BRANCH  17  18
ATOM     18  C   UNL     1       0.951   9.444  18.006  0.00  0.00    +0.000 C 
BRANCH  18  19
ATOM     19  C   UNL     1       0.636   9.727  19.470  0.00  0.00    +0.000 C 
BRANCH  19  20
ATOM     20  C   UNL     1       0.869  11.189  19.863  0.00  0.00    +0.000 C 
BRANCH  20  21
ATOM     21  N   UNL     1      -0.178  11.676  20.792  0.00  0.00    +0.000 NA
ATOM     22  C   UNL     1      -1.509  11.759  20.155  0.00  0.00    +0.000 C 
ATOM     23  C   UNL     1      -2.299  12.948  20.697  0.00  0.00    +0.000 C 
ATOM     24  C   UNL     1      -2.951  12.704  22.054  0.00  0.00    +0.000 C 
ATOM     25  C   UNL     1      -2.013  12.326  23.203  0.00  0.00    +0.000 C 
ATOM     26  C   UNL     1      -1.335  10.974  22.983  0.00  0.00    +0.000 C 
ATOM     27  C   UNL     1      -0.067  11.038  22.127  0.00  0.00    +0.000 C 
ENDBRANCH  20  21
ENDBRANCH  19  20
ENDBRANCH  18  19
ENDBRANCH  17  18
ENDBRANCH  16  17
ENDBRANCH   6  16
TORSDOF 7
ENDMDL
