MODEL 1
REMARK VINA RESULT:      -8.2      0.000      0.000
REMARK  Name = 
REMARK  5 active torsions:
REMARK  status: ('A' for Active; 'I' for Inactive)
REMARK    1  A    between atoms: C_1  and  O_2
REMARK    2  A    between atoms: O_2  and  C_3
REMARK    3  A    between atoms: C_5  and  N_6
REMARK    4  A    between atoms: C_7  and  C_9
REMARK    5  A    between atoms: C_9  and  N_10
REMARK                            x       y       z     vdW  Elec       q    Type
REMARK                         _______ _______ _______ _____ _____    ______ ____
ROOT
ATOM      1  C   UNL     1       2.410   9.314  18.140  0.00  0.00    +0.000 C 
ENDROOT
BRANCH   1   2
ATOM      2  N   UNL     1       2.234   8.148  18.970  0.00  0.00    +0.000 N 
ATOM      3  N   UNL     1       1.401   8.306  20.033  0.00  0.00    +0.000 NA
ATOM      4  C   UNL     1       1.435   7.126  20.651  0.00  0.00    +0.000 A 
ATOM      5  C   UNL     1       2.302   6.233  20.014  0.00  0.00    +0.000 A 
ATOM      6  C   UNL     1       2.658   4.880  20.353  0.00  0.00    +0.000 A 
ATOM      7  O   UNL     1       2.220   4.299  21.343  0.00  0.00    +0.000 OA
ATOM      8  O   UNL     1       3.560   4.259  19.473  0.00  0.00    +0.000 OA
ATOM      9  C   UNL     1       4.076   4.911  18.316  0.00  0.00    +0.000 A 
ATOM     10  C   UNL     1       4.936   4.141  17.531  0.00  0.00    +0.000 A 
ATOM     11  C   UNL     1       5.474   4.697  16.378  0.00  0.00    +0.000 A 
ATOM     12  C   UNL     1       5.154   6.011  16.032  0.00  0.00    +0.000 A 
ATOM     13  C   UNL     1       4.298   6.783  16.835  0.00  0.00    +0.000 A 
ATOM     14  C   UNL     1       3.734   6.242  17.989  0.00  0.00    +0.000 A 
ATOM     15  C   UNL     1       2.804   6.901  18.910  0.00  0.00    +0.000 A 
ENDBRANCH   1   2
BRANCH   1  17
ATOM     16  N   UNL     1       0.005   9.618  17.856  0.00  0.00    +0.000 N 
ATOM     17  C   UNL     1       1.207  10.221  18.218  0.00  0.00    +0.000 C 
ATOM     18  O   UNL     1       1.372  11.401  18.527  0.00  0.00    +0.000 OA
ATOM     19  H   UNL     1       0.036   8.612  17.684  0.00  0.00    +0.000 HD
BRANCH  16  22
ATOM     20  C   UNL     1      -3.344  10.611  16.500  0.00  0.00    +0.000 A 
ATOM     21  C   UNL     1      -2.064  10.054  16.595  0.00  0.00    +0.000 A 
ATOM     22  C   UNL     1      -1.252  10.252  17.711  0.00  0.00    +0.000 A 
ATOM     23  C   UNL     1      -1.716  11.091  18.731  0.00  0.00    +0.000 A 
ATOM     24  C   UNL     1      -2.977  11.695  18.633  0.00  0.00    +0.000 A 
ATOM     25  C   UNL     1      -3.791  11.453  17.522  0.00  0.00    +0.000 A 
ATOM     26 CL   UNL     1      -5.349  12.198  17.462  0.00  0.00    +0.000 Cl
BRANCH  20  28
ATOM     27  C   UNL     1      -3.492  10.129  14.191  0.00  0.00    +0.000 C 
ATOM     28  O   UNL     1      -4.167  10.384  15.423  0.00  0.00    +0.000 OA
ENDBRANCH  20  28
ENDBRANCH  16  22
ENDBRANCH   1  17
TORSDOF 4
ENDMDL
MODEL 2
REMARK VINA RESULT:      -8.0      1.012      1.852
REMARK  Name = 
REMARK  5 active torsions:
REMARK  status: ('A' for Active; 'I' for Inactive)
REMARK    1  A    between atoms: C_1  and  O_2
REMARK    2  A    between atoms: O_2  and  C_3
REMARK    3  A    between atoms: C_5  and  N_6
REMARK    4  A    between atoms: C_7  and  C_9
REMARK    5  A    between atoms: C_9  and  N_10
REMARK                            x       y       z     vdW  Elec       q    Type
REMARK                         _______ _______ _______ _____ _____    ______ ____
ROOT
ATOM      1  C   UNL     1       2.177   9.424  18.085  0.00  0.00    +0.000 C 
ENDROOT
BRANCH   1   2
ATOM      2  N   UNL     1       2.079   8.268  18.942  0.00  0.00    +0.000 N 
ATOM      3  N   UNL     1       1.256   8.403  20.015  0.00  0.00    +0.000 NA
ATOM      4  C   UNL     1       1.365   7.240  20.658  0.00  0.00    +0.000 A 
ATOM      5  C   UNL     1       2.269   6.383  20.025  0.00  0.00    +0.000 A 
ATOM      6  C   UNL     1       2.704   5.058  20.385  0.00  0.00    +0.000 A 
ATOM      7  O   UNL     1       2.314   4.476  21.395  0.00  0.00    +0.000 OA
ATOM      8  O   UNL     1       3.624   4.469  19.503  0.00  0.00    +0.000 OA
ATOM      9  C   UNL     1       4.085   5.123  18.324  0.00  0.00    +0.000 A 
ATOM     10  C   UNL     1       4.974   4.384  17.541  0.00  0.00    +0.000 A 
ATOM     11  C   UNL     1       5.461   4.943  16.367  0.00  0.00    +0.000 A 
ATOM     12  C   UNL     1       5.065   6.230  15.999  0.00  0.00    +0.000 A 
ATOM     13  C   UNL     1       4.180   6.971  16.801  0.00  0.00    +0.000 A 
ATOM     14  C   UNL     1       3.666   6.426  17.976  0.00  0.00    +0.000 A 
ATOM     15  C   UNL     1       2.715   7.052  18.898  0.00  0.00    +0.000 A 
ENDBRANCH   1   2
BRANCH   1  17
ATOM     16  N   UNL     1      -0.235   9.658  17.789  0.00  0.00    +0.000 N 
ATOM     17  C   UNL     1       0.943  10.284  18.193  0.00  0.00    +0.000 C 
ATOM     18  O   UNL     1       1.064  11.453  18.559  0.00  0.00    +0.000 OA
ATOM     19  H   UNL     1      -0.167   8.663  17.570  0.00  0.00    +0.000 HD
BRANCH  16  22
ATOM     20  C   UNL     1      -3.355  11.583  18.559  0.00  0.00    +0.000 A 
ATOM     21  C   UNL     1      -2.136  10.917  18.717  0.00  0.00    +0.000 A 
ATOM     22  C   UNL     1      -1.511  10.255  17.661  0.00  0.00    +0.000 A 
ATOM     23  C   UNL     1      -2.167  10.206  16.425  0.00  0.00    +0.000 A 
ATOM     24  C   UNL     1      -3.412  10.829  16.259  0.00  0.00    +0.000 A 
ATOM     25  C   UNL     1      -4.004  11.519  17.322  0.00  0.00    +0.000 A 
ATOM     26 CL   UNL     1      -5.524  12.295  17.058  0.00  0.00    +0.000 Cl
BRANCH  20  28
ATOM     27  C   UNL     1      -3.065  13.044  20.393  0.00  0.00    +0.000 C 
ATOM     28  O   UNL     1      -3.955  12.275  19.584  0.00  0.00    +0.000 OA
ENDBRANCH  20  28
ENDBRANCH  16  22
ENDBRANCH   1  17
TORSDOF 4
ENDMDL
MODEL 3
REMARK VINA RESULT:      -7.9      3.570      4.748
REMARK  Name = 
REMARK  5 active torsions:
REMARK  status: ('A' for Active; 'I' for Inactive)
REMARK    1  A    between atoms: C_1  and  O_2
REMARK    2  A    between atoms: O_2  and  C_3
REMARK    3  A    between atoms: C_5  and  N_6
REMARK    4  A    between atoms: C_7  and  C_9
REMARK    5  A    between atoms: C_9  and  N_10
REMARK                            x       y       z     vdW  Elec       q    Type
REMARK                         _______ _______ _______ _____ _____    ______ ____
ROOT
ATOM      1  C   UNL     1       1.994   7.472  17.749  0.00  0.00    +0.000 C 
ENDROOT
BRANCH   1   2
ATOM      2  N   UNL     1       3.281   6.832  17.870  0.00  0.00    +0.000 N 
ATOM      3  N   UNL     1       4.300   7.433  17.202  0.00  0.00    +0.000 NA
ATOM      4  C   UNL     1       5.351   6.647  17.434  0.00  0.00    +0.000 A 
ATOM      5  C   UNL     1       5.005   5.540  18.214  0.00  0.00    +0.000 A 
ATOM      6  C   UNL     1       5.810   4.438  18.674  0.00  0.00    +0.000 A 
ATOM      7  O   UNL     1       7.001   4.315  18.395  0.00  0.00    +0.000 OA
ATOM      8  O   UNL     1       5.136   3.493  19.464  0.00  0.00    +0.000 OA
ATOM      9  C   UNL     1       3.758   3.618  19.804  0.00  0.00    +0.000 A 
ATOM     10  C   UNL     1       3.252   2.607  20.623  0.00  0.00    +0.000 A 
ATOM     11  C   UNL     1       1.920   2.661  21.013  0.00  0.00    +0.000 A 
ATOM     12  C   UNL     1       1.115   3.712  20.572  0.00  0.00    +0.000 A 
ATOM     13  C   UNL     1       1.630   4.718  19.737  0.00  0.00    +0.000 A 
ATOM     14  C   UNL     1       2.967   4.694  19.345  0.00  0.00    +0.000 A 
ATOM     15  C   UNL     1       3.660   5.678  18.509  0.00  0.00    +0.000 A 
ENDBRANCH   1   2
BRANCH   1  17
ATOM     16  N   UNL     1       1.278   9.688  18.481  0.00  0.00    +0.000 N 
ATOM     17  C   UNL     1       1.765   8.445  18.879  0.00  0.00    +0.000 C 
ATOM     18  O   UNL     1       2.068   8.108  20.023  0.00  0.00    +0.000 OA
ATOM     19  H   UNL     1       1.023   9.782  17.496  0.00  0.00    +0.000 HD
BRANCH  16  22
ATOM     20  C   UNL     1       0.267  11.891  21.337  0.00  0.00    +0.000 A 
ATOM     21  C   UNL     1       0.368  10.784  20.488  0.00  0.00    +0.000 A 
ATOM     22  C   UNL     1       1.094  10.828  19.298  0.00  0.00    +0.000 A 
ATOM     23  C   UNL     1       1.678  12.043  18.920  0.00  0.00    +0.000 A 
ATOM     24  C   UNL     1       1.549  13.176  19.736  0.00  0.00    +0.000 A 
ATOM     25  C   UNL     1       0.848  13.100  20.944  0.00  0.00    +0.000 A 
ATOM     26 CL   UNL     1       0.743  14.516  21.927  0.00  0.00    +0.000 Cl
BRANCH  20  28
ATOM     27  C   UNL     1      -0.811  10.535  22.945  0.00  0.00    +0.000 C 
ATOM     28  O   UNL     1      -0.410  11.842  22.533  0.00  0.00    +0.000 OA
ENDBRANCH  20  28
ENDBRANCH  16  22
ENDBRANCH   1  17
TORSDOF 4
ENDMDL
MODEL 4
REMARK VINA RESULT:      -7.9      1.165      1.239
REMARK  Name = 
REMARK  5 active torsions:
REMARK  status: ('A' for Active; 'I' for Inactive)
REMARK    1  A    between atoms: C_1  and  O_2
REMARK    2  A    between atoms: O_2  and  C_3
REMARK    3  A    between atoms: C_5  and  N_6
REMARK    4  A    between atoms: C_7  and  C_9
REMARK    5  A    between atoms: C_9  and  N_10
REMARK                            x       y       z     vdW  Elec       q    Type
REMARK                         _______ _______ _______ _____ _____    ______ ____
ROOT
ATOM      1  C   UNL     1       2.563   8.592  19.265  0.00  0.00    +0.000 C 
ENDROOT
BRANCH   1   2
ATOM      2  N   UNL     1       2.354   7.183  19.495  0.00  0.00    +0.000 N 
ATOM      3  N   UNL     1       1.538   6.874  20.537  0.00  0.00    +0.000 NA
ATOM      4  C   UNL     1       1.537   5.542  20.565  0.00  0.00    +0.000 A 
ATOM      5  C   UNL     1       2.365   5.003  19.577  0.00  0.00    +0.000 A 
ATOM      6  C   UNL     1       2.676   3.631  19.270  0.00  0.00    +0.000 A 
ATOM      7  O   UNL     1       2.228   2.682  19.909  0.00  0.00    +0.000 OA
ATOM      8  O   UNL     1       3.546   3.442  18.183  0.00  0.00    +0.000 OA
ATOM      9  C   UNL     1       4.074   4.527  17.424  0.00  0.00    +0.000 A 
ATOM     10  C   UNL     1       4.898   4.164  16.358  0.00  0.00    +0.000 A 
ATOM     11  C   UNL     1       5.443   5.160  15.559  0.00  0.00    +0.000 A 
ATOM     12  C   UNL     1       5.167   6.499  15.841  0.00  0.00    +0.000 A 
ATOM     13  C   UNL     1       4.346   6.855  16.925  0.00  0.00    +0.000 A 
ATOM     14  C   UNL     1       3.776   5.873  17.732  0.00  0.00    +0.000 A 
ATOM     15  C   UNL     1       2.879   6.078  18.872  0.00  0.00    +0.000 A 
ENDBRANCH   1   2
BRANCH   1  17
ATOM     16  N   UNL     1       0.430   9.776  19.168  0.00  0.00    +0.000 N 
ATOM     17  C   UNL     1       1.449   9.175  18.431  0.00  0.00    +0.000 C 
ATOM     18  O   UNL     1       1.485   9.032  17.209  0.00  0.00    +0.000 OA
ATOM     19  H   UNL     1       0.587   9.862  20.173  0.00  0.00    +0.000 HD
BRANCH  16  22
ATOM     20  C   UNL     1      -2.656  10.216  17.090  0.00  0.00    +0.000 A 
ATOM     21  C   UNL     1      -1.405   9.768  17.528  0.00  0.00    +0.000 A 
ATOM     22  C   UNL     1      -0.790  10.287  18.667  0.00  0.00    +0.000 A 
ATOM     23  C   UNL     1      -1.424  11.334  19.346  0.00  0.00    +0.000 A 
ATOM     24  C   UNL     1      -2.657  11.827  18.896  0.00  0.00    +0.000 A 
ATOM     25  C   UNL     1      -3.274  11.267  17.773  0.00  0.00    +0.000 A 
ATOM     26 CL   UNL     1      -4.806  11.891  17.277  0.00  0.00    +0.000 Cl
BRANCH  20  28
ATOM     27  C   UNL     1      -2.878  10.218  14.737  0.00  0.00    +0.000 C 
ATOM     28  O   UNL     1      -3.289   9.678  15.994  0.00  0.00    +0.000 OA
ENDBRANCH  20  28
ENDBRANCH  16  22
ENDBRANCH   1  17
TORSDOF 4
ENDMDL
MODEL 5
REMARK VINA RESULT:      -7.7      3.603      4.897
REMARK  Name = 
REMARK  5 active torsions:
REMARK  status: ('A' for Active; 'I' for Inactive)
REMARK    1  A    between atoms: C_1  and  O_2
REMARK    2  A    between atoms: O_2  and  C_3
REMARK    3  A    between atoms: C_5  and  N_6
REMARK    4  A    between atoms: C_7  and  C_9
REMARK    5  A    between atoms: C_9  and  N_10
REMARK                            x       y       z     vdW  Elec       q    Type
REMARK                         _______ _______ _______ _____ _____    ______ ____
ROOT
ATOM      1  C   UNL     1       1.868   7.420  17.795  0.00  0.00    +0.000 C 
ENDROOT
BRANCH   1   2
ATOM      2  N   UNL     1       3.174   6.818  17.906  0.00  0.00    +0.000 N 
ATOM      3  N   UNL     1       4.169   7.448  17.229  0.00  0.00    +0.000 NA
ATOM      4  C   UNL     1       5.244   6.694  17.452  0.00  0.00    +0.000 A 
ATOM      5  C   UNL     1       4.938   5.577  18.235  0.00  0.00    +0.000 A 
ATOM      6  C   UNL     1       5.779   4.499  18.688  0.00  0.00    +0.000 A 
ATOM      7  O   UNL     1       6.970   4.411  18.399  0.00  0.00    +0.000 OA
ATOM      8  O   UNL     1       5.140   3.535  19.485  0.00  0.00    +0.000 OA
ATOM      9  C   UNL     1       3.761   3.620  19.836  0.00  0.00    +0.000 A 
ATOM     10  C   UNL     1       3.292   2.595  20.660  0.00  0.00    +0.000 A 
ATOM     11  C   UNL     1       1.963   2.610  21.060  0.00  0.00    +0.000 A 
ATOM     12  C   UNL     1       1.123   3.637  20.627  0.00  0.00    +0.000 A 
ATOM     13  C   UNL     1       1.601   4.657  19.787  0.00  0.00    +0.000 A 
ATOM     14  C   UNL     1       2.935   4.672  19.383  0.00  0.00    +0.000 A 
ATOM     15  C   UNL     1       3.592   5.675  18.542  0.00  0.00    +0.000 A 
ENDBRANCH   1   2
BRANCH   1  17
ATOM     16  N   UNL     1       1.730   9.852  17.958  0.00  0.00    +0.000 N 
ATOM     17  C   UNL     1       1.764   8.650  18.662  0.00  0.00    +0.000 C 
ATOM     18  O   UNL     1       1.776   8.517  19.886  0.00  0.00    +0.000 OA
ATOM     19  H   UNL     1       1.667   9.780  16.941  0.00  0.00    +0.000 HD
BRANCH  16  22
ATOM     20  C   UNL     1       2.490  13.489  18.438  0.00  0.00    +0.000 A 
ATOM     21  C   UNL     1       2.531  12.180  17.947  0.00  0.00    +0.000 A 
ATOM     22  C   UNL     1       1.765  11.156  18.505  0.00  0.00    +0.000 A 
ATOM     23  C   UNL     1       0.988  11.446  19.633  0.00  0.00    +0.000 A 
ATOM     24  C   UNL     1       0.970  12.742  20.167  0.00  0.00    +0.000 A 
ATOM     25  C   UNL     1       1.716  13.762  19.569  0.00  0.00    +0.000 A 
ATOM     26 CL   UNL     1       1.637  15.349  20.248  0.00  0.00    +0.000 Cl
BRANCH  20  28
ATOM     27  C   UNL     1       4.589  14.555  18.226  0.00  0.00    +0.000 C 
ATOM     28  O   UNL     1       3.208  14.513  17.865  0.00  0.00    +0.000 OA
ENDBRANCH  20  28
ENDBRANCH  16  22
ENDBRANCH   1  17
TORSDOF 4
ENDMDL
MODEL 6
REMARK VINA RESULT:      -7.6      3.398      8.472
REMARK  Name = 
REMARK  5 active torsions:
REMARK  status: ('A' for Active; 'I' for Inactive)
REMARK    1  A    between atoms: C_1  and  O_2
REMARK    2  A    between atoms: O_2  and  C_3
REMARK    3  A    between atoms: C_5  and  N_6
REMARK    4  A    between atoms: C_7  and  C_9
REMARK    5  A    between atoms: C_9  and  N_10
REMARK                            x       y       z     vdW  Elec       q    Type
REMARK                         _______ _______ _______ _____ _____    ______ ____
ROOT
ATOM      1  C   UNL     1       1.353   9.567  17.911  0.00  0.00    +0.000 C 
ENDROOT
BRANCH   1   2
ATOM      2  N   UNL     1       0.701  10.509  18.787  0.00  0.00    +0.000 N 
ATOM      3  N   UNL     1       1.464  10.990  19.803  0.00  0.00    +0.000 NA
ATOM      4  C   UNL     1       0.641  11.792  20.477  0.00  0.00    +0.000 A 
ATOM      5  C   UNL     1      -0.641  11.801  19.922  0.00  0.00    +0.000 A 
ATOM      6  C   UNL     1      -1.831  12.497  20.340  0.00  0.00    +0.000 A 
ATOM      7  O   UNL     1      -1.873  13.214  21.336  0.00  0.00    +0.000 OA
ATOM      8  O   UNL     1      -2.961  12.291  19.531  0.00  0.00    +0.000 OA
ATOM      9  C   UNL     1      -2.933  11.467  18.368  0.00  0.00    +0.000 A 
ATOM     10  C   UNL     1      -4.134  11.395  17.660  0.00  0.00    +0.000 A 
ATOM     11  C   UNL     1      -4.189  10.624  16.506  0.00  0.00    +0.000 A 
ATOM     12  C   UNL     1      -3.053   9.931  16.085  0.00  0.00    +0.000 A 
ATOM     13  C   UNL     1      -1.853   9.999  16.812  0.00  0.00    +0.000 A 
ATOM     14  C   UNL     1      -1.768  10.778  17.964  0.00  0.00    +0.000 A 
ATOM     15  C   UNL     1      -0.589  10.978  18.811  0.00  0.00    +0.000 A 
ENDBRANCH   1   2
BRANCH   1  17
ATOM     16  N   UNL     1       2.565   7.447  17.914  0.00  0.00    +0.000 N 
ATOM     17  C   UNL     1       1.877   8.383  18.684  0.00  0.00    +0.000 C 
ATOM     18  O   UNL     1       1.620   8.297  19.885  0.00  0.00    +0.000 OA
ATOM     19  H   UNL     1       2.741   7.703  16.941  0.00  0.00    +0.000 HD
BRANCH  16  22
ATOM     20  C   UNL     1       4.881   4.703  18.981  0.00  0.00    +0.000 A 
ATOM     21  C   UNL     1       4.411   5.918  18.472  0.00  0.00    +0.000 A 
ATOM     22  C   UNL     1       3.050   6.189  18.341  0.00  0.00    +0.000 A 
ATOM     23  C   UNL     1       2.136   5.180  18.669  0.00  0.00    +0.000 A 
ATOM     24  C   UNL     1       2.590   3.939  19.139  0.00  0.00    +0.000 A 
ATOM     25  C   UNL     1       3.959   3.702  19.298  0.00  0.00    +0.000 A 
ATOM     26 CL   UNL     1       4.465   2.167  19.907  0.00  0.00    +0.000 Cl
BRANCH  20  28
ATOM     27  C   UNL     1       7.047   4.776  18.037  0.00  0.00    +0.000 C 
ATOM     28  O   UNL     1       6.221   4.446  19.154  0.00  0.00    +0.000 OA
ENDBRANCH  20  28
ENDBRANCH  16  22
ENDBRANCH   1  17
TORSDOF 4
ENDMDL
MODEL 7
REMARK VINA RESULT:      -7.6      3.463      8.119
REMARK  Name = 
REMARK  5 active torsions:
REMARK  status: ('A' for Active; 'I' for Inactive)
REMARK    1  A    between atoms: C_1  and  O_2
REMARK    2  A    between atoms: O_2  and  C_3
REMARK    3  A    between atoms: C_5  and  N_6
REMARK    4  A    between atoms: C_7  and  C_9
REMARK    5  A    between atoms: C_9  and  N_10
REMARK                            x       y       z     vdW  Elec       q    Type
REMARK                         _______ _______ _______ _____ _____    ______ ____
ROOT
ATOM      1  C   UNL     1       1.473   9.849  18.121  0.00  0.00    +0.000 C 
ENDROOT
BRANCH   1   2
ATOM      2  N   UNL     1       0.749  10.734  19.001  0.00  0.00    +0.000 N 
ATOM      3  N   UNL     1       1.467  11.250  20.033  0.00  0.00    +0.000 NA
ATOM      4  C   UNL     1       0.584  11.986  20.707  0.00  0.00    +0.000 A 
ATOM      5  C   UNL     1      -0.689  11.918  20.135  0.00  0.00    +0.000 A 
ATOM      6  C   UNL     1      -1.928  12.527  20.547  0.00  0.00    +0.000 A 
ATOM      7  O   UNL     1      -2.030  13.227  21.551  0.00  0.00    +0.000 OA
ATOM      8  O   UNL     1      -3.031  12.259  19.719  0.00  0.00    +0.000 OA
ATOM      9  C   UNL     1      -2.935  11.455  18.547  0.00  0.00    +0.000 A 
ATOM     10  C   UNL     1      -4.119  11.314  17.822  0.00  0.00    +0.000 A 
ATOM     11  C   UNL     1      -4.109  10.558  16.657  0.00  0.00    +0.000 A 
ATOM     12  C   UNL     1      -2.925   9.947  16.242  0.00  0.00    +0.000 A 
ATOM     13  C   UNL     1      -1.740  10.084  16.986  0.00  0.00    +0.000 A 
ATOM     14  C   UNL     1      -1.722  10.850  18.149  0.00  0.00    +0.000 A 
ATOM     15  C   UNL     1      -0.569  11.116  19.014  0.00  0.00    +0.000 A 
ENDBRANCH   1   2
BRANCH   1  17
ATOM     16  N   UNL     1       2.496   7.634  18.023  0.00  0.00    +0.000 N 
ATOM     17  C   UNL     1       1.813   8.554  18.816  0.00  0.00    +0.000 C 
ATOM     18  O   UNL     1       1.425   8.381  19.971  0.00  0.00    +0.000 OA
ATOM     19  H   UNL     1       2.794   7.962  17.103  0.00  0.00    +0.000 HD
BRANCH  16  22
ATOM     20  C   UNL     1       2.411   3.896  18.252  0.00  0.00    +0.000 A 
ATOM     21  C   UNL     1       2.033   5.217  17.992  0.00  0.00    +0.000 A 
ATOM     22  C   UNL     1       2.827   6.302  18.363  0.00  0.00    +0.000 A 
ATOM     23  C   UNL     1       4.004   6.050  19.078  0.00  0.00    +0.000 A 
ATOM     24  C   UNL     1       4.378   4.735  19.388  0.00  0.00    +0.000 A 
ATOM     25  C   UNL     1       3.585   3.660  18.973  0.00  0.00    +0.000 A 
ATOM     26 CL   UNL     1       4.104   2.057  19.355  0.00  0.00    +0.000 Cl
BRANCH  20  28
ATOM     27  C   UNL     1       0.660   2.402  18.784  0.00  0.00    +0.000 C 
ATOM     28  O   UNL     1       1.655   2.820  17.851  0.00  0.00    +0.000 OA
ENDBRANCH  20  28
ENDBRANCH  16  22
ENDBRANCH   1  17
TORSDOF 4
ENDMDL
MODEL 8
REMARK VINA RESULT:      -7.5      3.967      8.943
REMARK  Name = 
REMARK  5 active torsions:
REMARK  status: ('A' for Active; 'I' for Inactive)
REMARK    1  A    between atoms: C_1  and  O_2
REMARK    2  A    between atoms: O_2  and  C_3
REMARK    3  A    between atoms: C_5  and  N_6
REMARK    4  A    between atoms: C_7  and  C_9
REMARK    5  A    between atoms: C_9  and  N_10
REMARK                            x       y       z     vdW  Elec       q    Type
REMARK                         _______ _______ _______ _____ _____    ______ ____
ROOT
ATOM      1  C   UNL     1       0.525   9.857  22.215  0.00  0.00    +0.000 C 
ENDROOT
BRANCH   1   2
ATOM      2  N   UNL     1       0.380  10.915  21.244  0.00  0.00    +0.000 N 
ATOM      3  N   UNL     1       1.296  10.919  20.241  0.00  0.00    +0.000 NA
ATOM      4  C   UNL     1       0.980  11.990  19.515  0.00  0.00    +0.000 A 
ATOM      5  C   UNL     1      -0.104  12.684  20.062  0.00  0.00    +0.000 A 
ATOM      6  C   UNL     1      -0.751  13.893  19.624  0.00  0.00    +0.000 A 
ATOM      7  O   UNL     1      -0.384  14.532  18.641  0.00  0.00    +0.000 OA
ATOM      8  O   UNL     1      -1.839  14.309  20.411  0.00  0.00    +0.000 OA
ATOM      9  C   UNL     1      -2.284  13.580  21.552  0.00  0.00    +0.000 A 
ATOM     10  C   UNL     1      -3.398  14.115  22.202  0.00  0.00    +0.000 A 
ATOM     11  C   UNL     1      -3.905  13.459  23.316  0.00  0.00    +0.000 A 
ATOM     12  C   UNL     1      -3.290  12.290  23.767  0.00  0.00    +0.000 A 
ATOM     13  C   UNL     1      -2.162  11.767  23.113  0.00  0.00    +0.000 A 
ATOM     14  C   UNL     1      -1.643  12.399  21.985  0.00  0.00    +0.000 A 
ATOM     15  C   UNL     1      -0.500  11.966  21.177  0.00  0.00    +0.000 A 
ENDBRANCH   1   2
BRANCH   1  17
ATOM     16  N   UNL     1       1.665   8.049  21.035  0.00  0.00    +0.000 N 
ATOM     17  C   UNL     1       0.454   8.503  21.554  0.00  0.00    +0.000 C 
ATOM     18  O   UNL     1      -0.638   7.942  21.467  0.00  0.00    +0.000 OA
ATOM     19  H   UNL     1       2.489   8.613  21.248  0.00  0.00    +0.000 HD
BRANCH  16  22
ATOM     20  C   UNL     1       1.649   4.479  19.900  0.00  0.00    +0.000 A 
ATOM     21  C   UNL     1       1.528   5.613  20.710  0.00  0.00    +0.000 A 
ATOM     22  C   UNL     1       1.871   6.886  20.257  0.00  0.00    +0.000 A 
ATOM     23  C   UNL     1       2.415   7.011  18.973  0.00  0.00    +0.000 A 
ATOM     24  C   UNL     1       2.587   5.879  18.163  0.00  0.00    +0.000 A 
ATOM     25  C   UNL     1       2.202   4.616  18.624  0.00  0.00    +0.000 A 
ATOM     26 CL   UNL     1       2.407   3.258  17.577  0.00  0.00    +0.000 Cl
BRANCH  20  28
ATOM     27  C   UNL     1       1.789   2.842  21.599  0.00  0.00    +0.000 C 
ATOM     28  O   UNL     1       1.272   3.227  20.325  0.00  0.00    +0.000 OA
ENDBRANCH  20  28
ENDBRANCH  16  22
ENDBRANCH   1  17
TORSDOF 4
ENDMDL
MODEL 9
REMARK VINA RESULT:      -7.5      3.493      4.624
REMARK  Name = 
REMARK  5 active torsions:
REMARK  status: ('A' for Active; 'I' for Inactive)
REMARK    1  A    between atoms: C_1  and  O_2
REMARK    2  A    between atoms: O_2  and  C_3
REMARK    3  A    between atoms: C_5  and  N_6
REMARK    4  A    between atoms: C_7  and  C_9
REMARK    5  A    between atoms: C_9  and  N_10
REMARK                            x       y       z     vdW  Elec       q    Type
REMARK                         _______ _______ _______ _____ _____    ______ ____
ROOT
ATOM      1  C   UNL     1       1.945   7.487  17.847  0.00  0.00    +0.000 C 
ENDROOT
BRANCH   1   2
ATOM      2  N   UNL     1       3.236   6.849  17.942  0.00  0.00    +0.000 N 
ATOM      3  N   UNL     1       4.246   7.465  17.274  0.00  0.00    +0.000 NA
ATOM      4  C   UNL     1       5.301   6.678  17.480  0.00  0.00    +0.000 A 
ATOM      5  C   UNL     1       4.967   5.555  18.241  0.00  0.00    +0.000 A 
ATOM      6  C   UNL     1       5.780   4.447  18.671  0.00  0.00    +0.000 A 
ATOM      7  O   UNL     1       6.968   4.333  18.377  0.00  0.00    +0.000 OA
ATOM      8  O   UNL     1       5.118   3.485  19.451  0.00  0.00    +0.000 OA
ATOM      9  C   UNL     1       3.743   3.599  19.808  0.00  0.00    +0.000 A 
ATOM     10  C   UNL     1       3.248   2.572  20.613  0.00  0.00    +0.000 A 
ATOM     11  C   UNL     1       1.921   2.614  21.018  0.00  0.00    +0.000 A 
ATOM     12  C   UNL     1       1.108   3.671  20.607  0.00  0.00    +0.000 A 
ATOM     13  C   UNL     1       1.611   4.694  19.786  0.00  0.00    +0.000 A 
ATOM     14  C   UNL     1       2.943   4.681  19.378  0.00  0.00    +0.000 A 
ATOM     15  C   UNL     1       3.625   5.683  18.554  0.00  0.00    +0.000 A 
ENDBRANCH   1   2
BRANCH   1  17
ATOM     16  N   UNL     1       1.069   9.592  18.719  0.00  0.00    +0.000 N 
ATOM     17  C   UNL     1       1.700   8.390  19.030  0.00  0.00    +0.000 C 
ATOM     18  O   UNL     1       2.112   8.043  20.137  0.00  0.00    +0.000 OA
ATOM     19  H   UNL     1       0.739   9.696  17.758  0.00  0.00    +0.000 HD
BRANCH  16  22
ATOM     20  C   UNL     1       1.158  13.005  20.261  0.00  0.00    +0.000 A 
ATOM     21  C   UNL     1       1.465  11.910  19.448  0.00  0.00    +0.000 A 
ATOM     22  C   UNL     1       0.831  10.677  19.595  0.00  0.00    +0.000 A 
ATOM     23  C   UNL     1      -0.092  10.524  20.637  0.00  0.00    +0.000 A 
ATOM     24  C   UNL     1      -0.380  11.598  21.491  0.00  0.00    +0.000 A 
ATOM     25  C   UNL     1       0.241  12.837  21.302  0.00  0.00    +0.000 A 
ATOM     26 CL   UNL     1      -0.170  14.136  22.364  0.00  0.00    +0.000 Cl
BRANCH  20  28
ATOM     27  C   UNL     1       1.164  15.049  19.074  0.00  0.00    +0.000 C 
ATOM     28  O   UNL     1       1.747  14.236  20.093  0.00  0.00    +0.000 OA
ENDBRANCH  20  28
ENDBRANCH  16  22
ENDBRANCH   1  17
TORSDOF 4
ENDMDL
