MODEL 1
REMARK VINA RESULT:      -6.1      0.000      0.000
REMARK  Name = 
REMARK  12 active torsions:
REMARK  status: ('A' for Active; 'I' for Inactive)
REMARK    1  A    between atoms: C_1  and  C_2
REMARK    2  A    between atoms: C_2  and  N_3
REMARK    3  A    between atoms: N_3  and  C_4
REMARK    4  A    between atoms: N_3  and  C_6
REMARK    5  A    between atoms: C_4  and  C_5
REMARK    6  A    between atoms: C_10  and  O_11
REMARK    7  A    between atoms: O_11  and  C_12
REMARK    8  A    between atoms: C_12  and  C_13
REMARK    9  A    between atoms: N_15  and  C_16
REMARK   10  A    between atoms: N_15  and  C_17
REMARK   11  A    between atoms: C_17  and  C_18
REMARK   12  A    between atoms: C_18  and  C_19
REMARK                            x       y       z     vdW  Elec       q    Type
REMARK                         _______ _______ _______ _____ _____    ______ ____
ROOT
ATOM      1  C   UNL     1       2.728   4.169  19.235  0.00  0.00    +0.000 A 
ATOM      2  C   UNL     1       2.119   5.335  18.748  0.00  0.00    +0.000 A 
ATOM      3  C   UNL     1       2.860   6.483  18.446  0.00  0.00    +0.000 A 
ATOM      4  C   UNL     1       4.237   6.488  18.637  0.00  0.00    +0.000 A 
ATOM      5  C   UNL     1       4.866   5.362  19.158  0.00  0.00    +0.000 A 
ATOM      6  C   UNL     1       4.113   4.215  19.434  0.00  0.00    +0.000 A 
ENDROOT
BRANCH   1   7
ATOM      7  N   UNL     1       2.008   3.009  19.493  0.00  0.00    +0.000 N 
BRANCH   7   9
ATOM      8  C   UNL     1       1.575   2.573  21.907  0.00  0.00    +0.000 C 
ATOM      9  C   UNL     1       0.999   2.986  20.559  0.00  0.00    +0.000 C 
ENDBRANCH   7   9
BRANCH   7  10
ATOM     10  C   UNL     1       2.221   1.815  18.676  0.00  0.00    +0.000 C 
ATOM     11  C   UNL     1       2.690   2.196  17.276  0.00  0.00    +0.000 C 
ENDBRANCH   7  10
ENDBRANCH   1   7
BRANCH   5  12
ATOM     12  O   UNL     1       6.215   5.479  19.348  0.00  0.00    +0.000 OA
BRANCH  12  13
ATOM     13  C   UNL     1       6.959   6.078  18.291  0.00  0.00    +0.000 C 
BRANCH  13  14
ATOM     14  C   UNL     1       7.227   5.141  17.098  0.00  0.00    +0.000 C 
ATOM     15  O   UNL     1       8.080   4.249  17.187  0.00  0.00    +0.000 OA
ATOM     16  N   UNL     1       6.497   5.262  15.923  0.00  0.00    +0.000 N 
ATOM     17  C   UNL     1       5.516   6.295  15.615  0.00  0.00    +0.000 C 
BRANCH  16  18
ATOM     18  C   UNL     1       6.812   4.328  14.832  0.00  0.00    +0.000 C 
BRANCH  18  19
ATOM     19  C   UNL     1       5.650   4.028  13.875  0.00  0.00    +0.000 C 
BRANCH  19  20
ATOM     20  C   UNL     1       6.123   3.372  12.655  0.00  0.00    +0.000 C 
ATOM     21  N   UNL     1       6.493   2.843  11.687  0.00  0.00    +0.000 NA
ENDBRANCH  19  20
ENDBRANCH  18  19
ENDBRANCH  16  18
ENDBRANCH  13  14
ENDBRANCH  12  13
ENDBRANCH   5  12
TORSDOF 9
ENDMDL
MODEL 2
REMARK VINA RESULT:      -6.1      2.633      5.803
REMARK  Name = 
REMARK  12 active torsions:
REMARK  status: ('A' for Active; 'I' for Inactive)
REMARK    1  A    between atoms: C_1  and  C_2
REMARK    2  A    between atoms: C_2  and  N_3
REMARK    3  A    between atoms: N_3  and  C_4
REMARK    4  A    between atoms: N_3  and  C_6
REMARK    5  A    between atoms: C_4  and  C_5
REMARK    6  A    between atoms: C_10  and  O_11
REMARK    7  A    between atoms: O_11  and  C_12
REMARK    8  A    between atoms: C_12  and  C_13
REMARK    9  A    between atoms: N_15  and  C_16
REMARK   10  A    between atoms: N_15  and  C_17
REMARK   11  A    between atoms: C_17  and  C_18
REMARK   12  A    between atoms: C_18  and  C_19
REMARK                            x       y       z     vdW  Elec       q    Type
REMARK                         _______ _______ _______ _____ _____    ______ ____
ROOT
ATOM      1  C   UNL     1       4.410   6.521  17.695  0.00  0.00    +0.000 A 
ATOM      2  C   UNL     1       3.750   7.641  17.168  0.00  0.00    +0.000 A 
ATOM      3  C   UNL     1       2.654   8.223  17.813  0.00  0.00    +0.000 A 
ATOM      4  C   UNL     1       2.186   7.684  19.006  0.00  0.00    +0.000 A 
ATOM      5  C   UNL     1       2.791   6.548  19.534  0.00  0.00    +0.000 A 
ATOM      6  C   UNL     1       3.900   5.991  18.887  0.00  0.00    +0.000 A 
ENDROOT
BRANCH   1   7
ATOM      7  N   UNL     1       5.528   5.965  17.086  0.00  0.00    +0.000 N 
BRANCH   7   9
ATOM      8  C   UNL     1       6.088   4.072  15.568  0.00  0.00    +0.000 C 
ATOM      9  C   UNL     1       5.443   5.443  15.717  0.00  0.00    +0.000 C 
ENDBRANCH   7   9
BRANCH   7  10
ATOM     10  C   UNL     1       6.808   5.933  17.792  0.00  0.00    +0.000 C 
ATOM     11  C   UNL     1       7.554   7.251  17.617  0.00  0.00    +0.000 C 
ENDBRANCH   7  10
ENDBRANCH   1   7
BRANCH   5  12
ATOM     12  O   UNL     1       2.234   6.069  20.688  0.00  0.00    +0.000 OA
BRANCH  12  13
ATOM     13  C   UNL     1       1.087   5.237  20.545  0.00  0.00    +0.000 C 
BRANCH  13  14
ATOM     14  C   UNL     1       1.411   3.749  20.313  0.00  0.00    +0.000 C 
ATOM     15  O   UNL     1       1.583   2.993  21.277  0.00  0.00    +0.000 OA
ATOM     16  N   UNL     1       1.479   3.230  19.026  0.00  0.00    +0.000 N 
ATOM     17  C   UNL     1       1.379   3.983  17.783  0.00  0.00    +0.000 C 
BRANCH  16  18
ATOM     18  C   UNL     1       1.789   1.800  18.890  0.00  0.00    +0.000 C 
BRANCH  18  19
ATOM     19  C   UNL     1       3.222   1.484  18.437  0.00  0.00    +0.000 C 
BRANCH  19  20
ATOM     20  C   UNL     1       4.199   1.893  19.447  0.00  0.00    +0.000 C 
ATOM     21  N   UNL     1       4.969   2.218  20.257  0.00  0.00    +0.000 NA
ENDBRANCH  19  20
ENDBRANCH  18  19
ENDBRANCH  16  18
ENDBRANCH  13  14
ENDBRANCH  12  13
ENDBRANCH   5  12
TORSDOF 9
ENDMDL
MODEL 3
REMARK VINA RESULT:      -6.1      3.903      6.993
REMARK  Name = 
REMARK  12 active torsions:
REMARK  status: ('A' for Active; 'I' for Inactive)
REMARK    1  A    between atoms: C_1  and  C_2
REMARK    2  A    between atoms: C_2  and  N_3
REMARK    3  A    between atoms: N_3  and  C_4
REMARK    4  A    between atoms: N_3  and  C_6
REMARK    5  A    between atoms: C_4  and  C_5
REMARK    6  A    between atoms: C_10  and  O_11
REMARK    7  A    between atoms: O_11  and  C_12
REMARK    8  A    between atoms: C_12  and  C_13
REMARK    9  A    between atoms: N_15  and  C_16
REMARK   10  A    between atoms: N_15  and  C_17
REMARK   11  A    between atoms: C_17  and  C_18
REMARK   12  A    between atoms: C_18  and  C_19
REMARK                            x       y       z     vdW  Elec       q    Type
REMARK                         _______ _______ _______ _____ _____    ______ ____
ROOT
ATOM      1  C   UNL     1       4.853   4.578  17.135  0.00  0.00    +0.000 A 
ATOM      2  C   UNL     1       4.248   3.317  17.031  0.00  0.00    +0.000 A 
ATOM      3  C   UNL     1       2.919   3.103  17.412  0.00  0.00    +0.000 A 
ATOM      4  C   UNL     1       2.165   4.156  17.918  0.00  0.00    +0.000 A 
ATOM      5  C   UNL     1       2.748   5.409  18.073  0.00  0.00    +0.000 A 
ATOM      6  C   UNL     1       4.072   5.611  17.667  0.00  0.00    +0.000 A 
ENDROOT
BRANCH   1   7
ATOM      7  N   UNL     1       6.157   4.811  16.716  0.00  0.00    +0.000 N 
BRANCH   7   9
ATOM      8  C   UNL     1       7.641   5.840  18.430  0.00  0.00    +0.000 C 
ATOM      9  C   UNL     1       7.280   4.593  17.635  0.00  0.00    +0.000 C 
ENDBRANCH   7   9
BRANCH   7  10
ATOM     10  C   UNL     1       6.422   5.236  15.342  0.00  0.00    +0.000 C 
ATOM     11  C   UNL     1       6.300   4.059  14.380  0.00  0.00    +0.000 C 
ENDBRANCH   7  10
ENDBRANCH   1   7
BRANCH   5  12
ATOM     12  O   UNL     1       1.940   6.369  18.616  0.00  0.00    +0.000 OA
BRANCH  12  13
ATOM     13  C   UNL     1       2.552   7.616  18.931  0.00  0.00    +0.000 C 
BRANCH  13  14
ATOM     14  C   UNL     1       1.766   8.847  18.442  0.00  0.00    +0.000 C 
ATOM     15  O   UNL     1       1.911   9.257  17.283  0.00  0.00    +0.000 OA
ATOM     16  N   UNL     1       0.865   9.491  19.279  0.00  0.00    +0.000 N 
ATOM     17  C   UNL     1       0.626   9.196  20.686  0.00  0.00    +0.000 C 
BRANCH  16  18
ATOM     18  C   UNL     1       0.153  10.658  18.736  0.00  0.00    +0.000 C 
BRANCH  18  19
ATOM     19  C   UNL     1      -1.378  10.539  18.724  0.00  0.00    +0.000 C 
BRANCH  19  20
ATOM     20  C   UNL     1      -1.879  10.292  17.372  0.00  0.00    +0.000 C 
ATOM     21  N   UNL     1      -2.282  10.087  16.299  0.00  0.00    +0.000 NA
ENDBRANCH  19  20
ENDBRANCH  18  19
ENDBRANCH  16  18
ENDBRANCH  13  14
ENDBRANCH  12  13
ENDBRANCH   5  12
TORSDOF 9
ENDMDL
MODEL 4
REMARK VINA RESULT:      -6.0      3.492      4.788
REMARK  Name = 
REMARK  12 active torsions:
REMARK  status: ('A' for Active; 'I' for Inactive)
REMARK    1  A    between atoms: C_1  and  C_2
REMARK    2  A    between atoms: C_2  and  N_3
REMARK    3  A    between atoms: N_3  and  C_4
REMARK    4  A    between atoms: N_3  and  C_6
REMARK    5  A    between atoms: C_4  and  C_5
REMARK    6  A    between atoms: C_10  and  O_11
REMARK    7  A    between atoms: O_11  and  C_12
REMARK    8  A    between atoms: C_12  and  C_13
REMARK    9  A    between atoms: N_15  and  C_16
REMARK   10  A    between atoms: N_15  and  C_17
REMARK   11  A    between atoms: C_17  and  C_18
REMARK   12  A    between atoms: C_18  and  C_19
REMARK                            x       y       z     vdW  Elec       q    Type
REMARK                         _______ _______ _______ _____ _____    ______ ____
ROOT
ATOM      1  C   UNL     1       1.241   8.823  19.876  0.00  0.00    +0.000 A 
ATOM      2  C   UNL     1       1.550   9.287  18.589  0.00  0.00    +0.000 A 
ATOM      3  C   UNL     1       2.306   8.524  17.693  0.00  0.00    +0.000 A 
ATOM      4  C   UNL     1       2.780   7.275  18.074  0.00  0.00    +0.000 A 
ATOM      5  C   UNL     1       2.527   6.804  19.358  0.00  0.00    +0.000 A 
ATOM      6  C   UNL     1       1.752   7.569  20.236  0.00  0.00    +0.000 A 
ENDROOT
BRANCH   1   7
ATOM      7  N   UNL     1       0.452   9.552  20.757  0.00  0.00    +0.000 N 
BRANCH   7   9
ATOM      8  C   UNL     1       0.006   9.498  23.206  0.00  0.00    +0.000 C 
ATOM      9  C   UNL     1      -0.265   8.875  21.844  0.00  0.00    +0.000 C 
ENDBRANCH   7   9
BRANCH   7  10
ATOM     10  C   UNL     1       0.364  11.007  20.632  0.00  0.00    +0.000 C 
ATOM     11  C   UNL     1      -1.037  11.429  20.204  0.00  0.00    +0.000 C 
ENDBRANCH   7  10
ENDBRANCH   1   7
BRANCH   5  12
ATOM     12  O   UNL     1       3.070   5.583  19.654  0.00  0.00    +0.000 OA
BRANCH  12  13
ATOM     13  C   UNL     1       4.480   5.457  19.498  0.00  0.00    +0.000 C 
BRANCH  13  14
ATOM     14  C   UNL     1       4.908   4.553  18.326  0.00  0.00    +0.000 C 
ATOM     15  O   UNL     1       4.347   3.466  18.142  0.00  0.00    +0.000 OA
ATOM     16  N   UNL     1       5.901   4.960  17.444  0.00  0.00    +0.000 N 
ATOM     17  C   UNL     1       6.715   6.163  17.550  0.00  0.00    +0.000 C 
BRANCH  16  18
ATOM     18  C   UNL     1       6.250   4.041  16.350  0.00  0.00    +0.000 C 
BRANCH  18  19
ATOM     19  C   UNL     1       5.851   4.518  14.946  0.00  0.00    +0.000 C 
BRANCH  19  20
ATOM     20  C   UNL     1       7.004   5.051  14.220  0.00  0.00    +0.000 C 
ATOM     21  N   UNL     1       7.926   5.475  13.651  0.00  0.00    +0.000 NA
ENDBRANCH  19  20
ENDBRANCH  18  19
ENDBRANCH  16  18
ENDBRANCH  13  14
ENDBRANCH  12  13
ENDBRANCH   5  12
TORSDOF 9
ENDMDL
MODEL 5
REMARK VINA RESULT:      -5.9      2.308      7.329
REMARK  Name = 
REMARK  12 active torsions:
REMARK  status: ('A' for Active; 'I' for Inactive)
REMARK    1  A    between atoms: C_1  and  C_2
REMARK    2  A    between atoms: C_2  and  N_3
REMARK    3  A    between atoms: N_3  and  C_4
REMARK    4  A    between atoms: N_3  and  C_6
REMARK    5  A    between atoms: C_4  and  C_5
REMARK    6  A    between atoms: C_10  and  O_11
REMARK    7  A    between atoms: O_11  and  C_12
REMARK    8  A    between atoms: C_12  and  C_13
REMARK    9  A    between atoms: N_15  and  C_16
REMARK   10  A    between atoms: N_15  and  C_17
REMARK   11  A    between atoms: C_17  and  C_18
REMARK   12  A    between atoms: C_18  and  C_19
REMARK                            x       y       z     vdW  Elec       q    Type
REMARK                         _______ _______ _______ _____ _____    ______ ____
ROOT
ATOM      1  C   UNL     1       6.142   3.481  12.499  0.00  0.00    +0.000 A 
ATOM      2  C   UNL     1       7.280   4.243  12.197  0.00  0.00    +0.000 A 
ATOM      3  C   UNL     1       7.817   5.159  13.107  0.00  0.00    +0.000 A 
ATOM      4  C   UNL     1       7.213   5.338  14.347  0.00  0.00    +0.000 A 
ATOM      5  C   UNL     1       6.059   4.629  14.661  0.00  0.00    +0.000 A 
ATOM      6  C   UNL     1       5.547   3.701  13.747  0.00  0.00    +0.000 A 
ENDROOT
BRANCH   1   7
ATOM      7  N   UNL     1       5.628   2.535  11.620  0.00  0.00    +0.000 N 
BRANCH   7   9
ATOM      8  C   UNL     1       6.018   0.109  11.217  0.00  0.00    +0.000 C 
ATOM      9  C   UNL     1       6.512   1.534  11.010  0.00  0.00    +0.000 C 
ENDBRANCH   7   9
BRANCH   7  10
ATOM     10  C   UNL     1       4.196   2.505  11.329  0.00  0.00    +0.000 C 
ATOM     11  C   UNL     1       3.773   3.758  10.569  0.00  0.00    +0.000 C 
ENDBRANCH   7  10
ENDBRANCH   1   7
BRANCH   5  12
ATOM     12  O   UNL     1       5.516   4.904  15.886  0.00  0.00    +0.000 OA
BRANCH  12  13
ATOM     13  C   UNL     1       5.020   3.794  16.627  0.00  0.00    +0.000 C 
BRANCH  13  14
ATOM     14  C   UNL     1       3.668   4.051  17.321  0.00  0.00    +0.000 C 
ATOM     15  O   UNL     1       3.159   5.179  17.292  0.00  0.00    +0.000 OA
ATOM     16  N   UNL     1       2.990   3.019  17.957  0.00  0.00    +0.000 N 
ATOM     17  C   UNL     1       3.472   1.659  18.155  0.00  0.00    +0.000 C 
BRANCH  16  18
ATOM     18  C   UNL     1       1.705   3.346  18.593  0.00  0.00    +0.000 C 
BRANCH  18  19
ATOM     19  C   UNL     1       1.758   3.520  20.117  0.00  0.00    +0.000 C 
BRANCH  19  20
ATOM     20  C   UNL     1       1.685   4.933  20.493  0.00  0.00    +0.000 C 
ATOM     21  N   UNL     1       1.627   6.053  20.801  0.00  0.00    +0.000 NA
ENDBRANCH  19  20
ENDBRANCH  18  19
ENDBRANCH  16  18
ENDBRANCH  13  14
ENDBRANCH  12  13
ENDBRANCH   5  12
TORSDOF 9
ENDMDL
MODEL 6
REMARK VINA RESULT:      -5.9      1.307      1.594
REMARK  Name = 
REMARK  12 active torsions:
REMARK  status: ('A' for Active; 'I' for Inactive)
REMARK    1  A    between atoms: C_1  and  C_2
REMARK    2  A    between atoms: C_2  and  N_3
REMARK    3  A    between atoms: N_3  and  C_4
REMARK    4  A    between atoms: N_3  and  C_6
REMARK    5  A    between atoms: C_4  and  C_5
REMARK    6  A    between atoms: C_10  and  O_11
REMARK    7  A    between atoms: O_11  and  C_12
REMARK    8  A    between atoms: C_12  and  C_13
REMARK    9  A    between atoms: N_15  and  C_16
REMARK   10  A    between atoms: N_15  and  C_17
REMARK   11  A    between atoms: C_17  and  C_18
REMARK   12  A    between atoms: C_18  and  C_19
REMARK                            x       y       z     vdW  Elec       q    Type
REMARK                         _______ _______ _______ _____ _____    ______ ____
ROOT
ATOM      1  C   UNL     1       3.047   4.987  18.901  0.00  0.00    +0.000 A 
ATOM      2  C   UNL     1       2.313   6.107  18.483  0.00  0.00    +0.000 A 
ATOM      3  C   UNL     1       2.905   7.150  17.765  0.00  0.00    +0.000 A 
ATOM      4  C   UNL     1       4.259   7.098  17.456  0.00  0.00    +0.000 A 
ATOM      5  C   UNL     1       5.025   6.021  17.892  0.00  0.00    +0.000 A 
ATOM      6  C   UNL     1       4.413   4.975  18.591  0.00  0.00    +0.000 A 
ENDROOT
BRANCH   1   7
ATOM      7  N   UNL     1       2.458   3.923  19.574  0.00  0.00    +0.000 N 
BRANCH   7   9
ATOM      8  C   UNL     1       1.843   2.621  21.606  0.00  0.00    +0.000 C 
ATOM      9  C   UNL     1       2.362   3.935  21.038  0.00  0.00    +0.000 C 
ENDBRANCH   7   9
BRANCH   7  10
ATOM     10  C   UNL     1       1.893   2.803  18.824  0.00  0.00    +0.000 C 
ATOM     11  C   UNL     1       2.932   2.203  17.883  0.00  0.00    +0.000 C 
ENDBRANCH   7  10
ENDBRANCH   1   7
BRANCH   5  12
ATOM     12  O   UNL     1       6.354   6.080  17.574  0.00  0.00    +0.000 OA
BRANCH  12  13
ATOM     13  C   UNL     1       6.928   4.904  17.011  0.00  0.00    +0.000 C 
BRANCH  13  14
ATOM     14  C   UNL     1       7.021   4.921  15.473  0.00  0.00    +0.000 C 
ATOM     15  O   UNL     1       7.805   5.692  14.906  0.00  0.00    +0.000 OA
ATOM     16  N   UNL     1       6.255   4.051  14.708  0.00  0.00    +0.000 N 
ATOM     17  C   UNL     1       5.232   3.137  15.198  0.00  0.00    +0.000 C 
BRANCH  16  18
ATOM     18  C   UNL     1       6.403   4.127  13.247  0.00  0.00    +0.000 C 
BRANCH  18  19
ATOM     19  C   UNL     1       5.302   3.423  12.442  0.00  0.00    +0.000 C 
BRANCH  19  20
ATOM     20  C   UNL     1       5.831   2.264  11.722  0.00  0.00    +0.000 C 
ATOM     21  N   UNL     1       6.242   1.339  11.148  0.00  0.00    +0.000 NA
ENDBRANCH  19  20
ENDBRANCH  18  19
ENDBRANCH  16  18
ENDBRANCH  13  14
ENDBRANCH  12  13
ENDBRANCH   5  12
TORSDOF 9
ENDMDL
MODEL 7
REMARK VINA RESULT:      -5.8      6.107      9.228
REMARK  Name = 
REMARK  12 active torsions:
REMARK  status: ('A' for Active; 'I' for Inactive)
REMARK    1  A    between atoms: C_1  and  C_2
REMARK    2  A    between atoms: C_2  and  N_3
REMARK    3  A    between atoms: N_3  and  C_4
REMARK    4  A    between atoms: N_3  and  C_6
REMARK    5  A    between atoms: C_4  and  C_5
REMARK    6  A    between atoms: C_10  and  O_11
REMARK    7  A    between atoms: O_11  and  C_12
REMARK    8  A    between atoms: C_12  and  C_13
REMARK    9  A    between atoms: N_15  and  C_16
REMARK   10  A    between atoms: N_15  and  C_17
REMARK   11  A    between atoms: C_17  and  C_18
REMARK   12  A    between atoms: C_18  and  C_19
REMARK                            x       y       z     vdW  Elec       q    Type
REMARK                         _______ _______ _______ _____ _____    ______ ____
ROOT
ATOM      1  C   UNL     1       2.502   5.955  19.316  0.00  0.00    +0.000 A 
ATOM      2  C   UNL     1       2.556   6.724  18.144  0.00  0.00    +0.000 A 
ATOM      3  C   UNL     1       2.169   8.068  18.126  0.00  0.00    +0.000 A 
ATOM      4  C   UNL     1       1.707   8.672  19.290  0.00  0.00    +0.000 A 
ATOM      5  C   UNL     1       1.601   7.926  20.459  0.00  0.00    +0.000 A 
ATOM      6  C   UNL     1       2.013   6.588  20.465  0.00  0.00    +0.000 A 
ENDROOT
BRANCH   1   7
ATOM      7  N   UNL     1       2.928   4.633  19.356  0.00  0.00    +0.000 N 
BRANCH   7   9
ATOM      8  C   UNL     1       1.003   3.179  19.973  0.00  0.00    +0.000 C 
ATOM      9  C   UNL     1       2.379   3.707  20.353  0.00  0.00    +0.000 C 
ENDBRANCH   7   9
BRANCH   7  10
ATOM     10  C   UNL     1       3.897   4.145  18.375  0.00  0.00    +0.000 C 
ATOM     11  C   UNL     1       5.322   4.330  18.885  0.00  0.00    +0.000 C 
ENDBRANCH   7  10
ENDBRANCH   1   7
BRANCH   5  12
ATOM     12  O   UNL     1       1.098   8.596  21.539  0.00  0.00    +0.000 OA
BRANCH  12  13
ATOM     13  C   UNL     1      -0.146   9.264  21.353  0.00  0.00    +0.000 C 
BRANCH  13  14
ATOM     14  C   UNL     1      -0.417  10.391  22.368  0.00  0.00    +0.000 C 
ATOM     15  O   UNL     1      -0.111  10.243  23.558  0.00  0.00    +0.000 OA
ATOM     16  N   UNL     1      -0.973  11.596  21.957  0.00  0.00    +0.000 N 
ATOM     17  C   UNL     1      -1.461  11.913  20.622  0.00  0.00    +0.000 C 
BRANCH  16  18
ATOM     18  C   UNL     1      -1.197  12.622  22.986  0.00  0.00    +0.000 C 
BRANCH  18  19
ATOM     19  C   UNL     1      -2.571  13.305  22.936  0.00  0.00    +0.000 C 
BRANCH  19  20
ATOM     20  C   UNL     1      -3.552  12.583  23.747  0.00  0.00    +0.000 C 
ATOM     21  N   UNL     1      -4.328  12.011  24.400  0.00  0.00    +0.000 NA
ENDBRANCH  19  20
ENDBRANCH  18  19
ENDBRANCH  16  18
ENDBRANCH  13  14
ENDBRANCH  12  13
ENDBRANCH   5  12
TORSDOF 9
ENDMDL
MODEL 8
REMARK VINA RESULT:      -5.8      1.658      6.559
REMARK  Name = 
REMARK  12 active torsions:
REMARK  status: ('A' for Active; 'I' for Inactive)
REMARK    1  A    between atoms: C_1  and  C_2
REMARK    2  A    between atoms: C_2  and  N_3
REMARK    3  A    between atoms: N_3  and  C_4
REMARK    4  A    between atoms: N_3  and  C_6
REMARK    5  A    between atoms: C_4  and  C_5
REMARK    6  A    between atoms: C_10  and  O_11
REMARK    7  A    between atoms: O_11  and  C_12
REMARK    8  A    between atoms: C_12  and  C_13
REMARK    9  A    between atoms: N_15  and  C_16
REMARK   10  A    between atoms: N_15  and  C_17
REMARK   11  A    between atoms: C_17  and  C_18
REMARK   12  A    between atoms: C_18  and  C_19
REMARK                            x       y       z     vdW  Elec       q    Type
REMARK                         _______ _______ _______ _____ _____    ______ ____
ROOT
ATOM      1  C   UNL     1       5.855   4.690  14.593  0.00  0.00    +0.000 A 
ATOM      2  C   UNL     1       5.314   5.981  14.684  0.00  0.00    +0.000 A 
ATOM      3  C   UNL     1       5.164   6.632  15.913  0.00  0.00    +0.000 A 
ATOM      4  C   UNL     1       5.548   5.994  17.087  0.00  0.00    +0.000 A 
ATOM      5  C   UNL     1       6.049   4.697  17.035  0.00  0.00    +0.000 A 
ATOM      6  C   UNL     1       6.212   4.068  15.795  0.00  0.00    +0.000 A 
ENDROOT
BRANCH   1   7
ATOM      7  N   UNL     1       6.051   4.053  13.373  0.00  0.00    +0.000 N 
BRANCH   7   9
ATOM      8  C   UNL     1       5.375   2.395  11.643  0.00  0.00    +0.000 C 
ATOM      9  C   UNL     1       4.926   3.412  12.683  0.00  0.00    +0.000 C 
ENDBRANCH   7   9
BRANCH   7  10
ATOM     10  C   UNL     1       7.373   4.054  12.749  0.00  0.00    +0.000 C 
ATOM     11  C   UNL     1       8.041   5.417  12.901  0.00  0.00    +0.000 C 
ENDBRANCH   7  10
ENDBRANCH   1   7
BRANCH   5  12
ATOM     12  O   UNL     1       6.360   4.139  18.244  0.00  0.00    +0.000 OA
BRANCH  12  13
ATOM     13  C   UNL     1       5.403   4.301  19.286  0.00  0.00    +0.000 C 
BRANCH  13  14
ATOM     14  C   UNL     1       4.064   3.582  19.032  0.00  0.00    +0.000 C 
ATOM     15  O   UNL     1       4.045   2.367  18.799  0.00  0.00    +0.000 OA
ATOM     16  N   UNL     1       2.863   4.277  19.094  0.00  0.00    +0.000 N 
ATOM     17  C   UNL     1       2.703   5.713  19.279  0.00  0.00    +0.000 C 
BRANCH  16  18
ATOM     18  C   UNL     1       1.630   3.518  18.842  0.00  0.00    +0.000 C 
BRANCH  18  19
ATOM     19  C   UNL     1       0.681   3.400  20.043  0.00  0.00    +0.000 C 
BRANCH  19  20
ATOM     20  C   UNL     1       1.371   2.854  21.213  0.00  0.00    +0.000 C 
ATOM     21  N   UNL     1       1.923   2.429  22.145  0.00  0.00    +0.000 NA
ENDBRANCH  19  20
ENDBRANCH  18  19
ENDBRANCH  16  18
ENDBRANCH  13  14
ENDBRANCH  12  13
ENDBRANCH   5  12
TORSDOF 9
ENDMDL
MODEL 9
REMARK VINA RESULT:      -5.8      2.021      7.109
REMARK  Name = 
REMARK  12 active torsions:
REMARK  status: ('A' for Active; 'I' for Inactive)
REMARK    1  A    between atoms: C_1  and  C_2
REMARK    2  A    between atoms: C_2  and  N_3
REMARK    3  A    between atoms: N_3  and  C_4
REMARK    4  A    between atoms: N_3  and  C_6
REMARK    5  A    between atoms: C_4  and  C_5
REMARK    6  A    between atoms: C_10  and  O_11
REMARK    7  A    between atoms: O_11  and  C_12
REMARK    8  A    between atoms: C_12  and  C_13
REMARK    9  A    between atoms: N_15  and  C_16
REMARK   10  A    between atoms: N_15  and  C_17
REMARK   11  A    between atoms: C_17  and  C_18
REMARK   12  A    between atoms: C_18  and  C_19
REMARK                            x       y       z     vdW  Elec       q    Type
REMARK                         _______ _______ _______ _____ _____    ______ ____
ROOT
ATOM      1  C   UNL     1       5.889   3.503  12.821  0.00  0.00    +0.000 A 
ATOM      2  C   UNL     1       7.044   4.299  12.792  0.00  0.00    +0.000 A 
ATOM      3  C   UNL     1       7.431   5.077  13.887  0.00  0.00    +0.000 A 
ATOM      4  C   UNL     1       6.657   5.081  15.042  0.00  0.00    +0.000 A 
ATOM      5  C   UNL     1       5.483   4.336  15.089  0.00  0.00    +0.000 A 
ATOM      6  C   UNL     1       5.122   3.546  13.991  0.00  0.00    +0.000 A 
ENDROOT
BRANCH   1   7
ATOM      7  N   UNL     1       5.522   2.690  11.755  0.00  0.00    +0.000 N 
BRANCH   7   9
ATOM      8  C   UNL     1       3.779   3.908  10.460  0.00  0.00    +0.000 C 
ATOM      9  C   UNL     1       4.134   2.675  11.280  0.00  0.00    +0.000 C 
ENDBRANCH   7   9
BRANCH   7  10
ATOM     10  C   UNL     1       6.526   1.875  11.074  0.00  0.00    +0.000 C 
ATOM     11  C   UNL     1       6.142   0.400  11.112  0.00  0.00    +0.000 C 
ENDBRANCH   7  10
ENDBRANCH   1   7
BRANCH   5  12
ATOM     12  O   UNL     1       4.769   4.437  16.251  0.00  0.00    +0.000 OA
BRANCH  12  13
ATOM     13  C   UNL     1       5.485   4.871  17.403  0.00  0.00    +0.000 C 
BRANCH  13  14
ATOM     14  C   UNL     1       4.735   4.654  18.731  0.00  0.00    +0.000 C 
ATOM     15  O   UNL     1       5.104   3.772  19.517  0.00  0.00    +0.000 OA
ATOM     16  N   UNL     1       3.661   5.463  19.080  0.00  0.00    +0.000 N 
ATOM     17  C   UNL     1       3.046   6.491  18.250  0.00  0.00    +0.000 C 
BRANCH  16  18
ATOM     18  C   UNL     1       3.001   5.192  20.365  0.00  0.00    +0.000 C 
BRANCH  18  19
ATOM     19  C   UNL     1       1.704   4.377  20.273  0.00  0.00    +0.000 C 
BRANCH  19  20
ATOM     20  C   UNL     1       1.676   3.310  21.274  0.00  0.00    +0.000 C 
ATOM     21  N   UNL     1       1.644   2.463  22.071  0.00  0.00    +0.000 NA
ENDBRANCH  19  20
ENDBRANCH  18  19
ENDBRANCH  16  18
ENDBRANCH  13  14
ENDBRANCH  12  13
ENDBRANCH   5  12
TORSDOF 9
ENDMDL
