MODEL 1
REMARK VINA RESULT:      -8.2      0.000      0.000
REMARK  Name = 
REMARK  8 active torsions:
REMARK  status: ('A' for Active; 'I' for Inactive)
REMARK    1  A    between atoms: C_1  and  O_2
REMARK    2  A    between atoms: O_2  and  C_3
REMARK    3  A    between atoms: C_6  and  C_7
REMARK    4  A    between atoms: C_7  and  N_8
REMARK    5  A    between atoms: C_15  and  C_16
REMARK    6  A    between atoms: C_16  and  O_17
REMARK    7  A    between atoms: C_16  and  C_18
REMARK    8  A    between atoms: C_28  and  O_29
REMARK                            x       y       z     vdW  Elec       q    Type
REMARK                         _______ _______ _______ _____ _____    ______ ____
ROOT
ATOM      1  N   UNL     1       0.128  11.515  22.126  0.00  0.00    +0.000 NA
ATOM      2  C   UNL     1       0.473  12.645  21.149  0.00  0.00    +0.000 C 
ATOM      3  C   UNL     1       1.192  12.062  19.993  0.00  0.00    +0.000 C 
ATOM      4  O   UNL     1       1.090  11.500  18.721  0.00  0.00    +0.000 OA
ATOM      5  C   UNL     1       1.232  10.124  18.953  0.00  0.00    +0.000 A 
ATOM      6  C   UNL     1       1.821   9.541  17.826  0.00  0.00    +0.000 A 
ATOM      7  C   UNL     1       2.312   8.259  17.895  0.00  0.00    +0.000 A 
ATOM      8  C   UNL     1       2.210   7.524  19.087  0.00  0.00    +0.000 A 
ATOM      9  C   UNL     1       1.509   8.100  20.226  0.00  0.00    +0.000 A 
ATOM     10  C   UNL     1       0.985   9.443  20.209  0.00  0.00    +0.000 A 
ATOM     11  C   UNL     1       0.042  10.054  21.483  0.00  0.00    +0.000 C 
ENDROOT
BRANCH   1  12
ATOM     12  C   UNL     1      -1.126  12.112  22.710  0.00  0.00    +0.000 C 
BRANCH  12  16
ATOM     13  C   UNL     1      -5.062  12.898  21.051  0.00  0.00    +0.000 A 
ATOM     14  C   UNL     1      -4.825  12.849  22.420  0.00  0.00    +0.000 A 
ATOM     15  C   UNL     1      -3.536  12.654  22.903  0.00  0.00    +0.000 A 
ATOM     16  C   UNL     1      -2.418  12.502  22.043  0.00  0.00    +0.000 A 
ATOM     17  C   UNL     1      -2.670  12.473  20.674  0.00  0.00    +0.000 A 
ATOM     18  C   UNL     1      -3.983  12.678  20.180  0.00  0.00    +0.000 A 
BRANCH  13  20
ATOM     19  C   UNL     1      -7.352  12.330  21.433  0.00  0.00    +0.000 C 
ATOM     20  O   UNL     1      -6.382  13.106  20.752  0.00  0.00    +0.000 OA
ENDBRANCH  13  20
BRANCH  18  21
ATOM     21  O   UNL     1      -4.189  12.606  18.824  0.00  0.00    +0.000 OA
ATOM     22  H   UNL     1      -3.415  12.995  18.382  0.00  0.00    +0.000 HD
ENDBRANCH  18  21
ENDBRANCH  12  16
ENDBRANCH   1  12
BRANCH   8  23
ATOM     23  C   UNL     1       2.969   6.183  19.045  0.00  0.00    +0.000 C 
BRANCH  23  24
ATOM     24  C   UNL     1       2.159   4.887  19.022  0.00  0.00    +0.000 A 
ATOM     25  C   UNL     1       1.626   4.333  20.204  0.00  0.00    +0.000 A 
ATOM     26  C   UNL     1       0.900   3.141  20.169  0.00  0.00    +0.000 A 
ATOM     27  C   UNL     1       0.708   2.524  18.944  0.00  0.00    +0.000 A 
ATOM     28  N   UNL     1       1.208   3.009  17.789  0.00  0.00    +0.000 NA
ATOM     29  C   UNL     1       1.906   4.169  17.849  0.00  0.00    +0.000 A 
ENDBRANCH  23  24
BRANCH  23  30
ATOM     30  O   UNL     1       3.988   6.148  20.034  0.00  0.00    +0.000 OA
ATOM     31  H   UNL     1       3.998   5.255  20.415  0.00  0.00    +0.000 HD
ENDBRANCH  23  30
ENDBRANCH   8  23
TORSDOF 7
ENDMDL
MODEL 2
REMARK VINA RESULT:      -7.9      4.540      7.375
REMARK  Name = 
REMARK  8 active torsions:
REMARK  status: ('A' for Active; 'I' for Inactive)
REMARK    1  A    between atoms: C_1  and  O_2
REMARK    2  A    between atoms: O_2  and  C_3
REMARK    3  A    between atoms: C_6  and  C_7
REMARK    4  A    between atoms: C_7  and  N_8
REMARK    5  A    between atoms: C_15  and  C_16
REMARK    6  A    between atoms: C_16  and  O_17
REMARK    7  A    between atoms: C_16  and  C_18
REMARK    8  A    between atoms: C_28  and  O_29
REMARK                            x       y       z     vdW  Elec       q    Type
REMARK                         _______ _______ _______ _____ _____    ______ ____
ROOT
ATOM      1  N   UNL     1       2.663   5.529  18.992  0.00  0.00    +0.000 NA
ATOM      2  C   UNL     1       3.306   4.505  19.935  0.00  0.00    +0.000 C 
ATOM      3  C   UNL     1       4.542   3.993  19.299  0.00  0.00    +0.000 C 
ATOM      4  O   UNL     1       5.918   4.149  19.136  0.00  0.00    +0.000 OA
ATOM      5  C   UNL     1       6.037   4.759  17.879  0.00  0.00    +0.000 A 
ATOM      6  C   UNL     1       7.250   4.363  17.306  0.00  0.00    +0.000 A 
ATOM      7  C   UNL     1       7.490   4.602  15.973  0.00  0.00    +0.000 A 
ATOM      8  C   UNL     1       6.529   5.258  15.188  0.00  0.00    +0.000 A 
ATOM      9  C   UNL     1       5.311   5.754  15.812  0.00  0.00    +0.000 A 
ATOM     10  C   UNL     1       5.007   5.522  17.201  0.00  0.00    +0.000 A 
ATOM     11  C   UNL     1       3.659   6.229  17.956  0.00  0.00    +0.000 C 
ENDROOT
BRANCH   1  12
ATOM     12  C   UNL     1       1.998   6.391  20.034  0.00  0.00    +0.000 C 
BRANCH  12  16
ATOM     13  C   UNL     1       0.809  10.561  20.288  0.00  0.00    +0.000 A 
ATOM     14  C   UNL     1       0.847   9.726  21.399  0.00  0.00    +0.000 A 
ATOM     15  C   UNL     1       1.292   8.415  21.277  0.00  0.00    +0.000 A 
ATOM     16  C   UNL     1       1.727   7.872  20.041  0.00  0.00    +0.000 A 
ATOM     17  C   UNL     1       1.614   8.685  18.917  0.00  0.00    +0.000 A 
ATOM     18  C   UNL     1       1.166  10.025  19.039  0.00  0.00    +0.000 A 
BRANCH  13  20
ATOM     19  C   UNL     1       1.305  12.863  20.693  0.00  0.00    +0.000 C 
ATOM     20  O   UNL     1       0.355  11.818  20.588  0.00  0.00    +0.000 OA
ENDBRANCH  13  20
BRANCH  18  21
ATOM     21  O   UNL     1       1.038  10.778  17.899  0.00  0.00    +0.000 OA
ATOM     22  H   UNL     1       1.736  11.455  17.905  0.00  0.00    +0.000 HD
ENDBRANCH  18  21
ENDBRANCH  12  16
ENDBRANCH   1  12
BRANCH   8  23
ATOM     23  C   UNL     1       6.879   5.282  13.687  0.00  0.00    +0.000 C 
BRANCH  23  24
ATOM     24  C   UNL     1       6.422   4.116  12.811  0.00  0.00    +0.000 A 
ATOM     25  C   UNL     1       5.054   3.840  12.610  0.00  0.00    +0.000 A 
ATOM     26  C   UNL     1       4.652   2.764  11.817  0.00  0.00    +0.000 A 
ATOM     27  C   UNL     1       5.630   1.981  11.227  0.00  0.00    +0.000 A 
ATOM     28  N   UNL     1       6.951   2.197  11.399  0.00  0.00    +0.000 NA
ATOM     29  C   UNL     1       7.314   3.250  12.170  0.00  0.00    +0.000 A 
ENDBRANCH  23  24
BRANCH  23  30
ATOM     30  O   UNL     1       8.257   5.573  13.494  0.00  0.00    +0.000 OA
ATOM     31  H   UNL     1       8.767   4.813  13.819  0.00  0.00    +0.000 HD
ENDBRANCH  23  30
ENDBRANCH   8  23
TORSDOF 7
ENDMDL
MODEL 3
REMARK VINA RESULT:      -7.9      0.889      1.286
REMARK  Name = 
REMARK  8 active torsions:
REMARK  status: ('A' for Active; 'I' for Inactive)
REMARK    1  A    between atoms: C_1  and  O_2
REMARK    2  A    between atoms: O_2  and  C_3
REMARK    3  A    between atoms: C_6  and  C_7
REMARK    4  A    between atoms: C_7  and  N_8
REMARK    5  A    between atoms: C_15  and  C_16
REMARK    6  A    between atoms: C_16  and  O_17
REMARK    7  A    between atoms: C_16  and  C_18
REMARK    8  A    between atoms: C_28  and  O_29
REMARK                            x       y       z     vdW  Elec       q    Type
REMARK                         _______ _______ _______ _____ _____    ______ ____
ROOT
ATOM      1  N   UNL     1       0.021  11.875  21.991  0.00  0.00    +0.000 NA
ATOM      2  C   UNL     1       0.454  12.808  20.853  0.00  0.00    +0.000 C 
ATOM      3  C   UNL     1       1.208  12.013  19.856  0.00  0.00    +0.000 C 
ATOM      4  O   UNL     1       1.148  11.240  18.697  0.00  0.00    +0.000 OA
ATOM      5  C   UNL     1       1.229   9.922  19.172  0.00  0.00    +0.000 A 
ATOM      6  C   UNL     1       1.852   9.136  18.197  0.00  0.00    +0.000 A 
ATOM      7  C   UNL     1       2.292   7.872  18.514  0.00  0.00    +0.000 A 
ATOM      8  C   UNL     1       2.106   7.361  19.808  0.00  0.00    +0.000 A 
ATOM      9  C   UNL     1       1.371   8.145  20.789  0.00  0.00    +0.000 A 
ATOM     10  C   UNL     1       0.896   9.478  20.512  0.00  0.00    +0.000 A 
ATOM     11  C   UNL     1      -0.086  10.327  21.607  0.00  0.00    +0.000 C 
ENDROOT
BRANCH   1  12
ATOM     12  C   UNL     1      -1.238  12.599  22.393  0.00  0.00    +0.000 C 
BRANCH  12  16
ATOM     13  C   UNL     1      -5.208  12.602  20.630  0.00  0.00    +0.000 A 
ATOM     14  C   UNL     1      -4.999  12.710  21.999  0.00  0.00    +0.000 A 
ATOM     15  C   UNL     1      -3.708  12.765  22.511  0.00  0.00    +0.000 A 
ATOM     16  C   UNL     1      -2.558  12.719  21.680  0.00  0.00    +0.000 A 
ATOM     17  C   UNL     1      -2.770  12.533  20.317  0.00  0.00    +0.000 A 
ATOM     18  C   UNL     1      -4.086  12.483  19.792  0.00  0.00    +0.000 A 
BRANCH  13  20
ATOM     19  C   UNL     1      -7.397  11.754  21.072  0.00  0.00    +0.000 C 
ATOM     20  O   UNL     1      -6.536  12.571  20.299  0.00  0.00    +0.000 OA
ENDBRANCH  13  20
BRANCH  18  21
ATOM     21  O   UNL     1      -4.245  12.263  18.446  0.00  0.00    +0.000 OA
ATOM     22  H   UNL     1      -4.707  11.415  18.333  0.00  0.00    +0.000 HD
ENDBRANCH  18  21
ENDBRANCH  12  16
ENDBRANCH   1  12
BRANCH   8  23
ATOM     23  C   UNL     1       2.817   6.013  20.040  0.00  0.00    +0.000 C 
BRANCH  23  24
ATOM     24  C   UNL     1       2.773   4.963  18.931  0.00  0.00    +0.000 A 
ATOM     25  C   UNL     1       3.910   4.668  18.152  0.00  0.00    +0.000 A 
ATOM     26  C   UNL     1       3.851   3.716  17.134  0.00  0.00    +0.000 A 
ATOM     27  C   UNL     1       2.651   3.061  16.916  0.00  0.00    +0.000 A 
ATOM     28  N   UNL     1       1.532   3.316  17.626  0.00  0.00    +0.000 NA
ATOM     29  C   UNL     1       1.618   4.242  18.611  0.00  0.00    +0.000 A 
ENDBRANCH  23  24
BRANCH  23  30
ATOM     30  O   UNL     1       2.455   5.462  21.299  0.00  0.00    +0.000 OA
ATOM     31  H   UNL     1       1.685   5.955  21.626  0.00  0.00    +0.000 HD
ENDBRANCH  23  30
ENDBRANCH   8  23
TORSDOF 7
ENDMDL
MODEL 4
REMARK VINA RESULT:      -7.9      0.593      1.295
REMARK  Name = 
REMARK  8 active torsions:
REMARK  status: ('A' for Active; 'I' for Inactive)
REMARK    1  A    between atoms: C_1  and  O_2
REMARK    2  A    between atoms: O_2  and  C_3
REMARK    3  A    between atoms: C_6  and  C_7
REMARK    4  A    between atoms: C_7  and  N_8
REMARK    5  A    between atoms: C_15  and  C_16
REMARK    6  A    between atoms: C_16  and  O_17
REMARK    7  A    between atoms: C_16  and  C_18
REMARK    8  A    between atoms: C_28  and  O_29
REMARK                            x       y       z     vdW  Elec       q    Type
REMARK                         _______ _______ _______ _____ _____    ______ ____
ROOT
ATOM      1  N   UNL     1       0.243  11.525  22.148  0.00  0.00    +0.000 NA
ATOM      2  C   UNL     1       0.578  12.643  21.153  0.00  0.00    +0.000 C 
ATOM      3  C   UNL     1       1.260  12.041  19.984  0.00  0.00    +0.000 C 
ATOM      4  O   UNL     1       1.118  11.470  18.720  0.00  0.00    +0.000 OA
ATOM      5  C   UNL     1       1.248  10.094  18.960  0.00  0.00    +0.000 A 
ATOM      6  C   UNL     1       1.801   9.494  17.824  0.00  0.00    +0.000 A 
ATOM      7  C   UNL     1       2.276   8.206  17.890  0.00  0.00    +0.000 A 
ATOM      8  C   UNL     1       2.194   7.483  19.091  0.00  0.00    +0.000 A 
ATOM      9  C   UNL     1       1.530   8.077  20.242  0.00  0.00    +0.000 A 
ATOM     10  C   UNL     1       1.023   9.426  20.228  0.00  0.00    +0.000 A 
ATOM     11  C   UNL     1       0.120  10.060  21.519  0.00  0.00    +0.000 C 
ENDROOT
BRANCH   1  12
ATOM     12  C   UNL     1      -0.988  12.144  22.758  0.00  0.00    +0.000 C 
BRANCH  12  16
ATOM     13  C   UNL     1      -4.871  12.813  20.930  0.00  0.00    +0.000 A 
ATOM     14  C   UNL     1      -3.713  12.643  20.182  0.00  0.00    +0.000 A 
ATOM     15  C   UNL     1      -2.503  12.371  20.810  0.00  0.00    +0.000 A 
ATOM     16  C   UNL     1      -2.390  12.251  22.220  0.00  0.00    +0.000 A 
ATOM     17  C   UNL     1      -3.536  12.499  22.971  0.00  0.00    +0.000 A 
ATOM     18  C   UNL     1      -4.772  12.770  22.331  0.00  0.00    +0.000 A 
BRANCH  13  20
ATOM     19  C   UNL     1      -6.763  11.964  19.744  0.00  0.00    +0.000 C 
ATOM     20  O   UNL     1      -5.971  13.063  20.153  0.00  0.00    +0.000 OA
ENDBRANCH  13  20
BRANCH  18  21
ATOM     21  O   UNL     1      -5.866  13.042  23.114  0.00  0.00    +0.000 OA
ATOM     22  H   UNL     1      -6.359  13.769  22.699  0.00  0.00    +0.000 HD
ENDBRANCH  18  21
ENDBRANCH  12  16
ENDBRANCH   1  12
BRANCH   8  23
ATOM     23  C   UNL     1       2.933   6.131  19.041  0.00  0.00    +0.000 C 
BRANCH  23  24
ATOM     24  C   UNL     1       2.106   4.846  19.031  0.00  0.00    +0.000 A 
ATOM     25  C   UNL     1       1.624   4.273  20.226  0.00  0.00    +0.000 A 
ATOM     26  C   UNL     1       0.880   3.092  20.202  0.00  0.00    +0.000 A 
ATOM     27  C   UNL     1       0.619   2.505  18.975  0.00  0.00    +0.000 A 
ATOM     28  N   UNL     1       1.069   3.008  17.806  0.00  0.00    +0.000 NA
ATOM     29  C   UNL     1       1.785   4.157  17.857  0.00  0.00    +0.000 A 
ENDBRANCH  23  24
BRANCH  23  30
ATOM     30  O   UNL     1       3.965   6.083  20.017  0.00  0.00    +0.000 OA
ATOM     31  H   UNL     1       3.894   5.231  20.479  0.00  0.00    +0.000 HD
ENDBRANCH  23  30
ENDBRANCH   8  23
TORSDOF 7
ENDMDL
MODEL 5
REMARK VINA RESULT:      -7.8      1.817      2.232
REMARK  Name = 
REMARK  8 active torsions:
REMARK  status: ('A' for Active; 'I' for Inactive)
REMARK    1  A    between atoms: C_1  and  O_2
REMARK    2  A    between atoms: O_2  and  C_3
REMARK    3  A    between atoms: C_6  and  C_7
REMARK    4  A    between atoms: C_7  and  N_8
REMARK    5  A    between atoms: C_15  and  C_16
REMARK    6  A    between atoms: C_16  and  O_17
REMARK    7  A    between atoms: C_16  and  C_18
REMARK    8  A    between atoms: C_28  and  O_29
REMARK                            x       y       z     vdW  Elec       q    Type
REMARK                         _______ _______ _______ _____ _____    ______ ____
ROOT
ATOM      1  N   UNL     1       0.177  11.727  20.341  0.00  0.00    +0.000 NA
ATOM      2  C   UNL     1       0.941  12.449  19.224  0.00  0.00    +0.000 C 
ATOM      3  C   UNL     1       1.857  11.479  18.579  0.00  0.00    +0.000 C 
ATOM      4  O   UNL     1       2.027  10.531  17.571  0.00  0.00    +0.000 OA
ATOM      5  C   UNL     1       1.895   9.306  18.241  0.00  0.00    +0.000 A 
ATOM      6  C   UNL     1       2.679   8.353  17.583  0.00  0.00    +0.000 A 
ATOM      7  C   UNL     1       2.937   7.143  18.184  0.00  0.00    +0.000 A 
ATOM      8  C   UNL     1       2.404   6.854  19.450  0.00  0.00    +0.000 A 
ATOM      9  C   UNL     1       1.509   7.810  20.086  0.00  0.00    +0.000 A 
ATOM     10  C   UNL     1       1.213   9.095  19.503  0.00  0.00    +0.000 A 
ATOM     11  C   UNL     1       0.057  10.141  20.176  0.00  0.00    +0.000 C 
ENDROOT
BRANCH   1  12
ATOM     12  C   UNL     1      -1.087  12.546  20.300  0.00  0.00    +0.000 C 
BRANCH  12  16
ATOM     13  C   UNL     1      -4.886  11.774  18.340  0.00  0.00    +0.000 A 
ATOM     14  C   UNL     1      -4.799  12.362  19.597  0.00  0.00    +0.000 A 
ATOM     15  C   UNL     1      -3.559  12.644  20.157  0.00  0.00    +0.000 A 
ATOM     16  C   UNL     1      -2.340  12.357  19.488  0.00  0.00    +0.000 A 
ATOM     17  C   UNL     1      -2.429  11.697  18.266  0.00  0.00    +0.000 A 
ATOM     18  C   UNL     1      -3.694  11.414  17.690  0.00  0.00    +0.000 A 
BRANCH  13  20
ATOM     19  C   UNL     1      -6.874  12.667  17.361  0.00  0.00    +0.000 C 
ATOM     20  O   UNL     1      -6.180  11.576  17.938  0.00  0.00    +0.000 OA
ENDBRANCH  13  20
BRANCH  18  21
ATOM     21  O   UNL     1      -3.731  10.731  16.499  0.00  0.00    +0.000 OA
ATOM     22  H   UNL     1      -2.911  10.926  16.015  0.00  0.00    +0.000 HD
ENDBRANCH  18  21
ENDBRANCH  12  16
ENDBRANCH   1  12
BRANCH   8  23
ATOM     23  C   UNL     1       2.938   5.539  20.052  0.00  0.00    +0.000 C 
BRANCH  23  24
ATOM     24  C   UNL     1       2.795   4.253  19.239  0.00  0.00    +0.000 A 
ATOM     25  C   UNL     1       3.924   3.538  18.790  0.00  0.00    +0.000 A 
ATOM     26  C   UNL     1       3.778   2.372  18.037  0.00  0.00    +0.000 A 
ATOM     27  C   UNL     1       2.497   1.929  17.753  0.00  0.00    +0.000 A 
ATOM     28  N   UNL     1       1.386   2.584  18.150  0.00  0.00    +0.000 NA
ATOM     29  C   UNL     1       1.556   3.712  18.883  0.00  0.00    +0.000 A 
ENDBRANCH  23  24
BRANCH  23  30
ATOM     30  O   UNL     1       2.477   5.371  21.385  0.00  0.00    +0.000 OA
ATOM     31  H   UNL     1       3.015   4.674  21.797  0.00  0.00    +0.000 HD
ENDBRANCH  23  30
ENDBRANCH   8  23
TORSDOF 7
ENDMDL
MODEL 6
REMARK VINA RESULT:      -7.8      1.118      1.273
REMARK  Name = 
REMARK  8 active torsions:
REMARK  status: ('A' for Active; 'I' for Inactive)
REMARK    1  A    between atoms: C_1  and  O_2
REMARK    2  A    between atoms: O_2  and  C_3
REMARK    3  A    between atoms: C_6  and  C_7
REMARK    4  A    between atoms: C_7  and  N_8
REMARK    5  A    between atoms: C_15  and  C_16
REMARK    6  A    between atoms: C_16  and  O_17
REMARK    7  A    between atoms: C_16  and  C_18
REMARK    8  A    between atoms: C_28  and  O_29
REMARK                            x       y       z     vdW  Elec       q    Type
REMARK                         _______ _______ _______ _____ _____    ______ ____
ROOT
ATOM      1  N   UNL     1      -0.075  11.019  22.369  0.00  0.00    +0.000 NA
ATOM      2  C   UNL     1       0.258  12.235  21.496  0.00  0.00    +0.000 C 
ATOM      3  C   UNL     1       1.031  11.771  20.321  0.00  0.00    +0.000 C 
ATOM      4  O   UNL     1       0.987  11.309  19.006  0.00  0.00    +0.000 OA
ATOM      5  C   UNL     1       1.170   9.924  19.134  0.00  0.00    +0.000 A 
ATOM      6  C   UNL     1       1.813   9.453  17.984  0.00  0.00    +0.000 A 
ATOM      7  C   UNL     1       2.346   8.186  17.966  0.00  0.00    +0.000 A 
ATOM      8  C   UNL     1       2.236   7.356  19.092  0.00  0.00    +0.000 A 
ATOM      9  C   UNL     1       1.482   7.815  20.250  0.00  0.00    +0.000 A 
ATOM     10  C   UNL     1       0.911   9.137  20.323  0.00  0.00    +0.000 A 
ATOM     11  C   UNL     1      -0.091   9.612  21.610  0.00  0.00    +0.000 C 
ENDROOT
BRANCH   1  12
ATOM     12  C   UNL     1      -1.366  11.526  22.958  0.00  0.00    +0.000 C 
BRANCH  12  16
ATOM     13  C   UNL     1      -4.348  14.508  21.918  0.00  0.00    +0.000 A 
ATOM     14  C   UNL     1      -3.737  14.466  23.166  0.00  0.00    +0.000 A 
ATOM     15  C   UNL     1      -2.745  13.529  23.431  0.00  0.00    +0.000 A 
ATOM     16  C   UNL     1      -2.308  12.590  22.462  0.00  0.00    +0.000 A 
ATOM     17  C   UNL     1      -2.975  12.583  21.240  0.00  0.00    +0.000 A 
ATOM     18  C   UNL     1      -3.983  13.542  20.965  0.00  0.00    +0.000 A 
BRANCH  13  20
ATOM     19  C   UNL     1      -5.440  16.383  22.918  0.00  0.00    +0.000 C 
ATOM     20  O   UNL     1      -5.293  15.494  21.826  0.00  0.00    +0.000 OA
ENDBRANCH  13  20
BRANCH  18  21
ATOM     21  O   UNL     1      -4.637  13.475  19.759  0.00  0.00    +0.000 OA
ATOM     22  H   UNL     1      -4.205  14.096  19.149  0.00  0.00    +0.000 HD
ENDBRANCH  18  21
ENDBRANCH  12  16
ENDBRANCH   1  12
BRANCH   8  23
ATOM     23  C   UNL     1       3.042   6.048  18.969  0.00  0.00    +0.000 C 
BRANCH  23  24
ATOM     24  C   UNL     1       2.281   4.725  18.892  0.00  0.00    +0.000 A 
ATOM     25  C   UNL     1       1.527   4.246  19.983  0.00  0.00    +0.000 A 
ATOM     26  C   UNL     1       0.847   3.030  19.902  0.00  0.00    +0.000 A 
ATOM     27  C   UNL     1       0.923   2.312  18.720  0.00  0.00    +0.000 A 
ATOM     28  N   UNL     1       1.641   2.722  17.654  0.00  0.00    +0.000 NA
ATOM     29  C   UNL     1       2.288   3.908  17.757  0.00  0.00    +0.000 A 
ENDBRANCH  23  24
BRANCH  23  30
ATOM     30  O   UNL     1       4.079   6.000  19.939  0.00  0.00    +0.000 OA
ATOM     31  H   UNL     1       4.427   5.094  19.954  0.00  0.00    +0.000 HD
ENDBRANCH  23  30
ENDBRANCH   8  23
TORSDOF 7
ENDMDL
MODEL 7
REMARK VINA RESULT:      -7.7      1.564      1.860
REMARK  Name = 
REMARK  8 active torsions:
REMARK  status: ('A' for Active; 'I' for Inactive)
REMARK    1  A    between atoms: C_1  and  O_2
REMARK    2  A    between atoms: O_2  and  C_3
REMARK    3  A    between atoms: C_6  and  C_7
REMARK    4  A    between atoms: C_7  and  N_8
REMARK    5  A    between atoms: C_15  and  C_16
REMARK    6  A    between atoms: C_16  and  O_17
REMARK    7  A    between atoms: C_16  and  C_18
REMARK    8  A    between atoms: C_28  and  O_29
REMARK                            x       y       z     vdW  Elec       q    Type
REMARK                         _______ _______ _______ _____ _____    ______ ____
ROOT
ATOM      1  N   UNL     1       0.000  11.710  20.732  0.00  0.00    +0.000 NA
ATOM      2  C   UNL     1       0.701  12.490  19.612  0.00  0.00    +0.000 C 
ATOM      3  C   UNL     1       1.613  11.568  18.898  0.00  0.00    +0.000 C 
ATOM      4  O   UNL     1       1.766  10.661  17.850  0.00  0.00    +0.000 OA
ATOM      5  C   UNL     1       1.691   9.410  18.480  0.00  0.00    +0.000 A 
ATOM      6  C   UNL     1       2.471   8.501  17.758  0.00  0.00    +0.000 A 
ATOM      7  C   UNL     1       2.782   7.278  18.304  0.00  0.00    +0.000 A 
ATOM      8  C   UNL     1       2.307   6.931  19.578  0.00  0.00    +0.000 A 
ATOM      9  C   UNL     1       1.416   7.841  20.284  0.00  0.00    +0.000 A 
ATOM     10  C   UNL     1       1.066   9.137  19.760  0.00  0.00    +0.000 A 
ATOM     11  C   UNL     1      -0.088  10.129  20.514  0.00  0.00    +0.000 C 
ENDROOT
BRANCH   1  12
ATOM     12  C   UNL     1      -1.284  12.497  20.770  0.00  0.00    +0.000 C 
BRANCH  12  16
ATOM     13  C   UNL     1      -5.054  11.972  18.678  0.00  0.00    +0.000 A 
ATOM     14  C   UNL     1      -4.970  12.578  19.925  0.00  0.00    +0.000 A 
ATOM     15  C   UNL     1      -3.734  12.777  20.529  0.00  0.00    +0.000 A 
ATOM     16  C   UNL     1      -2.517  12.386  19.914  0.00  0.00    +0.000 A 
ATOM     17  C   UNL     1      -2.609  11.709  18.700  0.00  0.00    +0.000 A 
ATOM     18  C   UNL     1      -3.869  11.510  18.080  0.00  0.00    +0.000 A 
BRANCH  13  20
ATOM     19  C   UNL     1      -7.387  12.276  19.091  0.00  0.00    +0.000 C 
ATOM     20  O   UNL     1      -6.343  11.863  18.229  0.00  0.00    +0.000 OA
ENDBRANCH  13  20
BRANCH  18  21
ATOM     21  O   UNL     1      -3.913  10.808  16.902  0.00  0.00    +0.000 OA
ATOM     22  H   UNL     1      -4.297  11.386  16.221  0.00  0.00    +0.000 HD
ENDBRANCH  18  21
ENDBRANCH  12  16
ENDBRANCH   1  12
BRANCH   8  23
ATOM     23  C   UNL     1       2.897   5.610  20.111  0.00  0.00    +0.000 C 
BRANCH  23  24
ATOM     24  C   UNL     1       2.769   4.354  19.251  0.00  0.00    +0.000 A 
ATOM     25  C   UNL     1       1.547   3.660  19.139  0.00  0.00    +0.000 A 
ATOM     26  C   UNL     1       1.449   2.506  18.359  0.00  0.00    +0.000 A 
ATOM     27  C   UNL     1       2.580   2.068  17.690  0.00  0.00    +0.000 A 
ATOM     28  N   UNL     1       3.774   2.690  17.774  0.00  0.00    +0.000 NA
ATOM     29  C   UNL     1       3.841   3.809  18.535  0.00  0.00    +0.000 A 
ENDBRANCH  23  24
BRANCH  23  30
ATOM     30  O   UNL     1       2.480   5.374  21.449  0.00  0.00    +0.000 OA
ATOM     31  H   UNL     1       1.517   5.252  21.440  0.00  0.00    +0.000 HD
ENDBRANCH  23  30
ENDBRANCH   8  23
TORSDOF 7
ENDMDL
MODEL 8
REMARK VINA RESULT:      -7.7      2.411      9.427
REMARK  Name = 
REMARK  8 active torsions:
REMARK  status: ('A' for Active; 'I' for Inactive)
REMARK    1  A    between atoms: C_1  and  O_2
REMARK    2  A    between atoms: O_2  and  C_3
REMARK    3  A    between atoms: C_6  and  C_7
REMARK    4  A    between atoms: C_7  and  N_8
REMARK    5  A    between atoms: C_15  and  C_16
REMARK    6  A    between atoms: C_16  and  O_17
REMARK    7  A    between atoms: C_16  and  C_18
REMARK    8  A    between atoms: C_28  and  O_29
REMARK                            x       y       z     vdW  Elec       q    Type
REMARK                         _______ _______ _______ _____ _____    ______ ____
ROOT
ATOM      1  N   UNL     1       0.702   8.709  20.531  0.00  0.00    +0.000 NA
ATOM      2  C   UNL     1       1.223   9.606  19.401  0.00  0.00    +0.000 C 
ATOM      3  C   UNL     1       0.697  10.975  19.609  0.00  0.00    +0.000 C 
ATOM      4  O   UNL     1       0.903  12.226  20.190  0.00  0.00    +0.000 OA
ATOM      5  C   UNL     1       0.083  12.202  21.328  0.00  0.00    +0.000 A 
ATOM      6  C   UNL     1      -0.342  13.507  21.597  0.00  0.00    +0.000 A 
ATOM      7  C   UNL     1      -1.362  13.726  22.493  0.00  0.00    +0.000 A 
ATOM      8  C   UNL     1      -1.968  12.645  23.153  0.00  0.00    +0.000 A 
ATOM      9  C   UNL     1      -1.455  11.299  22.943  0.00  0.00    +0.000 A 
ATOM     10  C   UNL     1      -0.395  11.014  22.008  0.00  0.00    +0.000 A 
ATOM     11  C   UNL     1       0.296   9.468  21.878  0.00  0.00    +0.000 C 
ENDROOT
BRANCH   1  12
ATOM     12  C   UNL     1       1.853   7.737  20.580  0.00  0.00    +0.000 C 
BRANCH  12  16
ATOM     13  C   UNL     1       1.926   3.769  18.817  0.00  0.00    +0.000 A 
ATOM     14  C   UNL     1       2.503   4.871  18.198  0.00  0.00    +0.000 A 
ATOM     15  C   UNL     1       2.507   6.110  18.830  0.00  0.00    +0.000 A 
ATOM     16  C   UNL     1       1.938   6.309  20.115  0.00  0.00    +0.000 A 
ATOM     17  C   UNL     1       1.292   5.221  20.697  0.00  0.00    +0.000 A 
ATOM     18  C   UNL     1       1.293   3.956  20.057  0.00  0.00    +0.000 A 
BRANCH  13  20
ATOM     19  C   UNL     1       3.296   2.039  17.899  0.00  0.00    +0.000 C 
ATOM     20  O   UNL     1       2.019   2.631  18.061  0.00  0.00    +0.000 OA
ENDBRANCH  13  20
BRANCH  18  21
ATOM     21  O   UNL     1       0.614   2.922  20.653  0.00  0.00    +0.000 OA
ATOM     22  H   UNL     1       0.153   3.276  21.433  0.00  0.00    +0.000 HD
ENDBRANCH  18  21
ENDBRANCH  12  16
ENDBRANCH   1  12
BRANCH   8  23
ATOM     23  C   UNL     1      -3.206  13.049  23.978  0.00  0.00    +0.000 C 
BRANCH  23  24
ATOM     24  C   UNL     1      -4.588  12.880  23.351  0.00  0.00    +0.000 A 
ATOM     25  C   UNL     1      -4.758  12.808  21.953  0.00  0.00    +0.000 A 
ATOM     26  C   UNL     1      -6.029  12.666  21.394  0.00  0.00    +0.000 A 
ATOM     27  C   UNL     1      -7.117  12.588  22.248  0.00  0.00    +0.000 A 
ATOM     28  N   UNL     1      -7.008  12.663  23.590  0.00  0.00    +0.000 NA
ATOM     29  C   UNL     1      -5.762  12.797  24.107  0.00  0.00    +0.000 A 
ENDBRANCH  23  24
BRANCH  23  30
ATOM     30  O   UNL     1      -3.039  14.345  24.538  0.00  0.00    +0.000 OA
ATOM     31  H   UNL     1      -2.287  14.306  25.151  0.00  0.00    +0.000 HD
ENDBRANCH  23  30
ENDBRANCH   8  23
TORSDOF 7
ENDMDL
MODEL 9
REMARK VINA RESULT:      -7.7      3.208      5.250
REMARK  Name = 
REMARK  8 active torsions:
REMARK  status: ('A' for Active; 'I' for Inactive)
REMARK    1  A    between atoms: C_1  and  O_2
REMARK    2  A    between atoms: O_2  and  C_3
REMARK    3  A    between atoms: C_6  and  C_7
REMARK    4  A    between atoms: C_7  and  N_8
REMARK    5  A    between atoms: C_15  and  C_16
REMARK    6  A    between atoms: C_16  and  O_17
REMARK    7  A    between atoms: C_16  and  C_18
REMARK    8  A    between atoms: C_28  and  O_29
REMARK                            x       y       z     vdW  Elec       q    Type
REMARK                         _______ _______ _______ _____ _____    ______ ____
ROOT
ATOM      1  N   UNL     1      -0.300  11.631  18.489  0.00  0.00    +0.000 NA
ATOM      2  C   UNL     1      -0.968  11.405  19.851  0.00  0.00    +0.000 C 
ATOM      3  C   UNL     1      -0.524  10.094  20.379  0.00  0.00    +0.000 C 
ATOM      4  O   UNL     1       0.415   9.405  21.146  0.00  0.00    +0.000 OA
ATOM      5  C   UNL     1       1.260   8.822  20.190  0.00  0.00    +0.000 A 
ATOM      6  C   UNL     1       1.767   7.629  20.715  0.00  0.00    +0.000 A 
ATOM      7  C   UNL     1       2.406   6.733  19.891  0.00  0.00    +0.000 A 
ATOM      8  C   UNL     1       2.565   7.017  18.525  0.00  0.00    +0.000 A 
ATOM      9  C   UNL     1       2.122   8.303  18.004  0.00  0.00    +0.000 A 
ATOM     10  C   UNL     1       1.440   9.273  18.824  0.00  0.00    +0.000 A 
ATOM     11  C   UNL     1       1.060  10.825  18.250  0.00  0.00    +0.000 C 
ENDROOT
BRANCH   1  12
ATOM     12  C   UNL     1      -0.239  13.136  18.528  0.00  0.00    +0.000 C 
BRANCH  12  16
ATOM     13  C   UNL     1       2.889  16.140  18.772  0.00  0.00    +0.000 A 
ATOM     14  C   UNL     1       1.625  16.333  19.315  0.00  0.00    +0.000 A 
ATOM     15  C   UNL     1       0.676  15.318  19.264  0.00  0.00    +0.000 A 
ATOM     16  C   UNL     1       0.943  14.057  18.672  0.00  0.00    +0.000 A 
ATOM     17  C   UNL     1       2.183  13.894  18.060  0.00  0.00    +0.000 A 
ATOM     18  C   UNL     1       3.155  14.926  18.116  0.00  0.00    +0.000 A 
BRANCH  13  20
ATOM     19  C   UNL     1       4.683  17.207  19.934  0.00  0.00    +0.000 C 
ATOM     20  O   UNL     1       3.699  17.235  18.917  0.00  0.00    +0.000 OA
ENDBRANCH  13  20
BRANCH  18  21
ATOM     21  O   UNL     1       4.349  14.733  17.469  0.00  0.00    +0.000 OA
ATOM     22  H   UNL     1       5.041  14.615  18.142  0.00  0.00    +0.000 HD
ENDBRANCH  18  21
ENDBRANCH  12  16
ENDBRANCH   1  12
BRANCH   8  23
ATOM     23  C   UNL     1       3.135   5.835  17.717  0.00  0.00    +0.000 C 
BRANCH  23  24
ATOM     24  C   UNL     1       2.774   4.414  18.148  0.00  0.00    +0.000 A 
ATOM     25  C   UNL     1       1.441   3.955  18.124  0.00  0.00    +0.000 A 
ATOM     26  C   UNL     1       1.125   2.658  18.533  0.00  0.00    +0.000 A 
ATOM     27  C   UNL     1       2.155   1.832  18.952  0.00  0.00    +0.000 A 
ATOM     28  N   UNL     1       3.443   2.229  19.004  0.00  0.00    +0.000 NA
ATOM     29  C   UNL     1       3.723   3.491  18.598  0.00  0.00    +0.000 A 
ENDBRANCH  23  24
BRANCH  23  30
ATOM     30  O   UNL     1       4.535   5.984  17.522  0.00  0.00    +0.000 OA
ATOM     31  H   UNL     1       4.959   5.951  18.395  0.00  0.00    +0.000 HD
ENDBRANCH  23  30
ENDBRANCH   8  23
TORSDOF 7
ENDMDL
