MODEL 1
REMARK VINA RESULT:      -6.1      0.000      0.000
REMARK  Name = 
REMARK  5 active torsions:
REMARK  status: ('A' for Active; 'I' for Inactive)
REMARK    1  A    between atoms: C_1  and  S_2
REMARK    2  A    between atoms: S_2  and  C_3
REMARK    3  A    between atoms: C_7  and  O_8
REMARK    4  A    between atoms: C_19  and  N_20
REMARK    5  A    between atoms: C_25  and  C_26
REMARK                            x       y       z     vdW  Elec       q    Type
REMARK                         _______ _______ _______ _____ _____    ______ ____
ROOT
ATOM      1  C   UNL     1      -0.604  15.279  19.946  0.00  0.00    +0.000 C 
ATOM      2  N   UNL     1      -1.805  14.962  20.371  0.00  0.00    +0.000 NA
ATOM      3  C   UNL     1      -2.448  13.569  20.126  0.00  0.00    +0.000 C 
ATOM      4  C   UNL     1      -1.337  12.579  19.357  0.00  0.00    +0.000 C 
ATOM      5  C   UNL     1      -0.873  11.438  19.913  0.00  0.00    +0.000 C 
ATOM      6  O   UNL     1      -0.171  11.532  21.106  0.00  0.00    +0.000 OA
ATOM      7  C   UNL     1      -0.962  10.951  22.130  0.00  0.00    +0.000 C 
ATOM      8  C   UNL     1      -1.303  12.053  23.121  0.00  0.00    +0.000 C 
ATOM      9  C   UNL     1      -2.789  11.968  23.390  0.00  0.00    +0.000 C 
ATOM     10  C   UNL     1      -3.320  13.225  24.057  0.00  0.00    +0.000 C 
ATOM     11  C   UNL     1      -4.696  13.495  23.502  0.00  0.00    +0.000 C 
ATOM     12  S   UNL     1      -4.594  15.038  22.500  0.00  0.00    +0.000 S 
ATOM     13  C   UNL     1      -5.181  14.185  20.985  0.00  0.00    +0.000 A 
ATOM     14  C   UNL     1      -6.626  13.953  21.298  0.00  0.00    +0.000 A 
ATOM     15  C   UNL     1      -7.245  12.727  21.119  0.00  0.00    +0.000 A 
ATOM     16  C   UNL     1      -6.462  11.764  20.473  0.00  0.00    +0.000 A 
ATOM     17  C   UNL     1      -5.021  12.012  20.051  0.00  0.00    +0.000 A 
ATOM     18  C   UNL     1      -4.272  13.287  20.258  0.00  0.00    +0.000 A 
ATOM     19  C   UNL     1      -0.025  13.337  18.924  0.00  0.00    +0.000 C 
ATOM     20  C   UNL     1       1.401  12.702  18.668  0.00  0.00    +0.000 C 
ATOM     21  N   UNL     1       0.139  14.608  18.985  0.00  0.00    +0.000 NA
ENDROOT
BRANCH  16  22
ATOM     22  N   UNL     1      -7.184  10.459  20.375  0.00  0.00    +0.000 N 
ATOM     23  O   UNL     1      -7.801  10.033  21.379  0.00  0.00    +0.000 OA
ATOM     24  O   UNL     1      -7.025   9.787  19.340  0.00  0.00    +0.000 OA
ENDBRANCH  16  22
BRANCH   1  26
ATOM     25  C   UNL     1       2.045  16.886  19.492  0.00  0.00    +0.000 C 
ATOM     26  S   UNL     1       0.498  16.588  20.610  0.00  0.00    +0.000 S 
ENDBRANCH   1  26
BRANCH   5  27
ATOM     27  O   UNL     1      -0.496  10.352  19.145  0.00  0.00    +0.000 OA
ATOM     28  H   UNL     1       0.406  10.471  18.815  0.00  0.00    +0.000 HD
ENDBRANCH   5  27
TORSDOF 3
ENDMDL
MODEL 2
REMARK VINA RESULT:      -5.7      0.997      1.168
REMARK  Name = 
REMARK  5 active torsions:
REMARK  status: ('A' for Active; 'I' for Inactive)
REMARK    1  A    between atoms: C_1  and  S_2
REMARK    2  A    between atoms: S_2  and  C_3
REMARK    3  A    between atoms: C_7  and  O_8
REMARK    4  A    between atoms: C_19  and  N_20
REMARK    5  A    between atoms: C_25  and  C_26
REMARK                            x       y       z     vdW  Elec       q    Type
REMARK                         _______ _______ _______ _____ _____    ______ ____
ROOT
ATOM      1  C   UNL     1       0.392  14.986  19.980  0.00  0.00    +0.000 C 
ATOM      2  N   UNL     1      -0.846  14.776  20.363  0.00  0.00    +0.000 NA
ATOM      3  C   UNL     1      -1.641  13.495  19.988  0.00  0.00    +0.000 C 
ATOM      4  C   UNL     1      -0.638  12.453  19.145  0.00  0.00    +0.000 C 
ATOM      5  C   UNL     1      -0.320  11.220  19.600  0.00  0.00    +0.000 C 
ATOM      6  O   UNL     1       0.364  11.126  20.803  0.00  0.00    +0.000 OA
ATOM      7  C   UNL     1      -0.509  10.554  21.764  0.00  0.00    +0.000 C 
ATOM      8  C   UNL     1      -0.739  11.598  22.846  0.00  0.00    +0.000 C 
ATOM      9  C   UNL     1      -2.231  11.664  23.092  0.00  0.00    +0.000 C 
ATOM     10  C   UNL     1      -2.625  12.911  23.864  0.00  0.00    +0.000 C 
ATOM     11  C   UNL     1      -3.949  13.388  23.322  0.00  0.00    +0.000 C 
ATOM     12  S   UNL     1      -3.650  14.991  22.464  0.00  0.00    +0.000 S 
ATOM     13  C   UNL     1      -4.301  14.349  20.873  0.00  0.00    +0.000 A 
ATOM     14  C   UNL     1      -5.769  14.262  21.150  0.00  0.00    +0.000 A 
ATOM     15  C   UNL     1      -6.522  13.138  20.855  0.00  0.00    +0.000 A 
ATOM     16  C   UNL     1      -5.844  12.150  20.134  0.00  0.00    +0.000 A 
ATOM     17  C   UNL     1      -4.375  12.263  19.749  0.00  0.00    +0.000 A 
ATOM     18  C   UNL     1      -3.488  13.419  20.077  0.00  0.00    +0.000 A 
ATOM     19  C   UNL     1       0.762  13.087  18.793  0.00  0.00    +0.000 C 
ATOM     20  C   UNL     1       2.109  12.314  18.495  0.00  0.00    +0.000 C 
ATOM     21  N   UNL     1       1.071  14.319  18.970  0.00  0.00    +0.000 NA
ENDROOT
BRANCH  16  22
ATOM     22  N   UNL     1      -6.710  10.952  19.912  0.00  0.00    +0.000 N 
ATOM     23  O   UNL     1      -6.903  10.556  18.738  0.00  0.00    +0.000 OA
ATOM     24  O   UNL     1      -7.314  10.485  20.894  0.00  0.00    +0.000 OA
ENDBRANCH  16  22
BRANCH   1  26
ATOM     25  C   UNL     1       3.076  15.115  21.587  0.00  0.00    +0.000 C 
ATOM     26  S   UNL     1       1.625  16.093  20.769  0.00  0.00    +0.000 S 
ENDBRANCH   1  26
BRANCH   5  27
ATOM     27  O   UNL     1      -0.056  10.170  18.741  0.00  0.00    +0.000 OA
ATOM     28  H   UNL     1       0.679   9.637  19.077  0.00  0.00    +0.000 HD
ENDBRANCH   5  27
TORSDOF 3
ENDMDL
MODEL 3
REMARK VINA RESULT:      -5.7      1.453      1.690
REMARK  Name = 
REMARK  5 active torsions:
REMARK  status: ('A' for Active; 'I' for Inactive)
REMARK    1  A    between atoms: C_1  and  S_2
REMARK    2  A    between atoms: S_2  and  C_3
REMARK    3  A    between atoms: C_7  and  O_8
REMARK    4  A    between atoms: C_19  and  N_20
REMARK    5  A    between atoms: C_25  and  C_26
REMARK                            x       y       z     vdW  Elec       q    Type
REMARK                         _______ _______ _______ _____ _____    ______ ____
ROOT
ATOM      1  C   UNL     1      -1.571  16.465  21.192  0.00  0.00    +0.000 C 
ATOM      2  N   UNL     1      -2.694  15.828  21.433  0.00  0.00    +0.000 NA
ATOM      3  C   UNL     1      -3.023  14.437  20.825  0.00  0.00    +0.000 C 
ATOM      4  C   UNL     1      -1.705  13.895  19.946  0.00  0.00    +0.000 C 
ATOM      5  C   UNL     1      -1.032  12.767  20.264  0.00  0.00    +0.000 C 
ATOM      6  O   UNL     1      -0.407  12.706  21.501  0.00  0.00    +0.000 OA
ATOM      7  C   UNL     1      -1.094  11.755  22.297  0.00  0.00    +0.000 C 
ATOM      8  C   UNL     1      -1.691  12.500  23.481  0.00  0.00    +0.000 C 
ATOM      9  C   UNL     1      -3.136  12.065  23.600  0.00  0.00    +0.000 C 
ATOM     10  C   UNL     1      -3.939  12.999  24.489  0.00  0.00    +0.000 C 
ATOM     11  C   UNL     1      -5.321  13.120  23.897  0.00  0.00    +0.000 C 
ATOM     12  S   UNL     1      -5.509  14.848  23.285  0.00  0.00    +0.000 S 
ATOM     13  C   UNL     1      -5.852  14.286  21.572  0.00  0.00    +0.000 A 
ATOM     14  C   UNL     1      -7.228  13.709  21.704  0.00  0.00    +0.000 A 
ATOM     15  C   UNL     1      -7.570  12.466  21.199  0.00  0.00    +0.000 A 
ATOM     16  C   UNL     1      -6.583  11.857  20.419  0.00  0.00    +0.000 A 
ATOM     17  C   UNL     1      -5.211  12.474  20.185  0.00  0.00    +0.000 A 
ATOM     18  C   UNL     1      -4.752  13.783  20.738  0.00  0.00    +0.000 A 
ATOM     19  C   UNL     1      -0.565  14.975  19.807  0.00  0.00    +0.000 C 
ATOM     20  C   UNL     1       0.970  14.710  19.532  0.00  0.00    +0.000 C 
ATOM     21  N   UNL     1      -0.672  16.201  20.169  0.00  0.00    +0.000 NA
ENDROOT
BRANCH  16  22
ATOM     22  N   UNL     1      -7.013  10.499  19.966  0.00  0.00    +0.000 N 
ATOM     23  O   UNL     1      -7.343   9.652  20.829  0.00  0.00    +0.000 OA
ATOM     24  O   UNL     1      -6.891  10.226  18.759  0.00  0.00    +0.000 OA
ENDBRANCH  16  22
BRANCH   1  26
ATOM     25  C   UNL     1      -1.402  17.717  24.057  0.00  0.00    +0.000 C 
ATOM     26  S   UNL     1      -0.790  17.765  22.226  0.00  0.00    +0.000 S 
ENDBRANCH   1  26
BRANCH   5  27
ATOM     27  O   UNL     1      -0.410  11.992  19.303  0.00  0.00    +0.000 OA
ATOM     28  H   UNL     1      -0.028  12.553  18.614  0.00  0.00    +0.000 HD
ENDBRANCH   5  27
TORSDOF 3
ENDMDL
MODEL 4
REMARK VINA RESULT:      -5.5      3.747      5.645
REMARK  Name = 
REMARK  5 active torsions:
REMARK  status: ('A' for Active; 'I' for Inactive)
REMARK    1  A    between atoms: C_1  and  S_2
REMARK    2  A    between atoms: S_2  and  C_3
REMARK    3  A    between atoms: C_7  and  O_8
REMARK    4  A    between atoms: C_19  and  N_20
REMARK    5  A    between atoms: C_25  and  C_26
REMARK                            x       y       z     vdW  Elec       q    Type
REMARK                         _______ _______ _______ _____ _____    ______ ____
ROOT
ATOM      1  C   UNL     1      -2.287  11.652  19.337  0.00  0.00    +0.000 C 
ATOM      2  N   UNL     1      -2.645  12.540  20.236  0.00  0.00    +0.000 NA
ATOM      3  C   UNL     1      -1.667  13.105  21.302  0.00  0.00    +0.000 C 
ATOM      4  C   UNL     1      -0.137  12.482  21.030  0.00  0.00    +0.000 C 
ATOM      5  C   UNL     1       0.924  13.262  20.727  0.00  0.00    +0.000 C 
ATOM      6  O   UNL     1       0.871  14.010  19.559  0.00  0.00    +0.000 OA
ATOM      7  C   UNL     1       0.780  15.380  19.916  0.00  0.00    +0.000 C 
ATOM      8  C   UNL     1      -0.558  15.893  19.410  0.00  0.00    +0.000 C 
ATOM      9  C   UNL     1      -1.206  16.649  20.549  0.00  0.00    +0.000 C 
ATOM     10  C   UNL     1      -2.687  16.887  20.305  0.00  0.00    +0.000 C 
ATOM     11  C   UNL     1      -3.397  16.760  21.629  0.00  0.00    +0.000 C 
ATOM     12  S   UNL     1      -4.450  15.249  21.548  0.00  0.00    +0.000 S 
ATOM     13  C   UNL     1      -3.613  14.495  22.996  0.00  0.00    +0.000 A 
ATOM     14  C   UNL     1      -4.126  15.334  24.125  0.00  0.00    +0.000 A 
ATOM     15  C   UNL     1      -3.298  15.879  25.090  0.00  0.00    +0.000 A 
ATOM     16  C   UNL     1      -1.965  15.458  25.027  0.00  0.00    +0.000 A 
ATOM     17  C   UNL     1      -1.442  14.521  23.947  0.00  0.00    +0.000 A 
ATOM     18  C   UNL     1      -2.262  13.935  22.845  0.00  0.00    +0.000 A 
ATOM     19  C   UNL     1      -0.109  11.372  19.911  0.00  0.00    +0.000 C 
ATOM     20  C   UNL     1       1.132  10.938  19.032  0.00  0.00    +0.000 C 
ATOM     21  N   UNL     1      -1.150  10.858  19.366  0.00  0.00    +0.000 NA
ENDROOT
BRANCH  16  22
ATOM     22  N   UNL     1      -1.133  16.139  26.065  0.00  0.00    +0.000 N 
ATOM     23  O   UNL     1      -1.484  17.271  26.473  0.00  0.00    +0.000 OA
ATOM     24  O   UNL     1      -0.051  15.610  26.377  0.00  0.00    +0.000 OA
ENDBRANCH  16  22
BRANCH   1  26
ATOM     25  C   UNL     1      -2.199   9.929  16.724  0.00  0.00    +0.000 C 
ATOM     26  S   UNL     1      -3.088  11.327  17.719  0.00  0.00    +0.000 S 
ENDBRANCH   1  26
BRANCH   5  27
ATOM     27  O   UNL     1       2.212  12.919  21.094  0.00  0.00    +0.000 OA
ATOM     28  H   UNL     1       2.322  11.958  21.078  0.00  0.00    +0.000 HD
ENDBRANCH   5  27
TORSDOF 3
ENDMDL
MODEL 5
REMARK VINA RESULT:      -5.5      3.101      7.007
REMARK  Name = 
REMARK  5 active torsions:
REMARK  status: ('A' for Active; 'I' for Inactive)
REMARK    1  A    between atoms: C_1  and  S_2
REMARK    2  A    between atoms: S_2  and  C_3
REMARK    3  A    between atoms: C_7  and  O_8
REMARK    4  A    between atoms: C_19  and  N_20
REMARK    5  A    between atoms: C_25  and  C_26
REMARK                            x       y       z     vdW  Elec       q    Type
REMARK                         _______ _______ _______ _____ _____    ______ ____
ROOT
ATOM      1  C   UNL     1      -4.928  12.461  19.437  0.00  0.00    +0.000 C 
ATOM      2  N   UNL     1      -3.626  12.345  19.566  0.00  0.00    +0.000 NA
ATOM      3  C   UNL     1      -2.751  13.406  20.287  0.00  0.00    +0.000 C 
ATOM      4  C   UNL     1      -3.743  14.596  20.923  0.00  0.00    +0.000 C 
ATOM      5  C   UNL     1      -3.821  14.847  22.249  0.00  0.00    +0.000 C 
ATOM      6  O   UNL     1      -4.274  13.833  23.080  0.00  0.00    +0.000 OA
ATOM      7  C   UNL     1      -3.186  13.397  23.878  0.00  0.00    +0.000 C 
ATOM      8  C   UNL     1      -2.910  11.946  23.516  0.00  0.00    +0.000 C 
ATOM      9  C   UNL     1      -1.419  11.817  23.294  0.00  0.00    +0.000 C 
ATOM     10  C   UNL     1      -1.061  10.531  22.570  0.00  0.00    +0.000 C 
ATOM     11  C   UNL     1       0.082  10.833  21.633  0.00  0.00    +0.000 C 
ATOM     12  S   UNL     1      -0.559  10.675  19.912  0.00  0.00    +0.000 S 
ATOM     13  C   UNL     1      -0.110  12.408  19.505  0.00  0.00    +0.000 A 
ATOM     14  C   UNL     1       1.384  12.333  19.431  0.00  0.00    +0.000 A 
ATOM     15  C   UNL     1       2.212  13.240  20.072  0.00  0.00    +0.000 A 
ATOM     16  C   UNL     1       1.552  14.323  20.661  0.00  0.00    +0.000 A 
ATOM     17  C   UNL     1       0.037  14.474  20.657  0.00  0.00    +0.000 A 
ATOM     18  C   UNL     1      -0.921  13.513  20.034  0.00  0.00    +0.000 A 
ATOM     19  C   UNL     1      -5.250  14.446  20.488  0.00  0.00    +0.000 C 
ATOM     20  C   UNL     1      -6.520  15.007  21.246  0.00  0.00    +0.000 C 
ATOM     21  N   UNL     1      -5.678  13.615  19.610  0.00  0.00    +0.000 NA
ENDROOT
BRANCH  16  22
ATOM     22  N   UNL     1       2.512  15.217  21.377  0.00  0.00    +0.000 N 
ATOM     23  O   UNL     1       2.935  16.241  20.791  0.00  0.00    +0.000 OA
ATOM     24  O   UNL     1       2.956  14.828  22.472  0.00  0.00    +0.000 OA
ENDBRANCH  16  22
BRANCH   1  26
ATOM     25  C   UNL     1      -7.468  11.012  20.558  0.00  0.00    +0.000 C 
ATOM     26  S   UNL     1      -6.139  11.110  19.159  0.00  0.00    +0.000 S 
ENDBRANCH   1  26
BRANCH   5  27
ATOM     27  O   UNL     1      -4.091  16.112  22.738  0.00  0.00    +0.000 OA
ATOM     28  H   UNL     1      -4.009  16.770  22.033  0.00  0.00    +0.000 HD
ENDBRANCH   5  27
TORSDOF 3
ENDMDL
MODEL 6
REMARK VINA RESULT:      -5.5      1.095      1.138
REMARK  Name = 
REMARK  5 active torsions:
REMARK  status: ('A' for Active; 'I' for Inactive)
REMARK    1  A    between atoms: C_1  and  S_2
REMARK    2  A    between atoms: S_2  and  C_3
REMARK    3  A    between atoms: C_7  and  O_8
REMARK    4  A    between atoms: C_19  and  N_20
REMARK    5  A    between atoms: C_25  and  C_26
REMARK                            x       y       z     vdW  Elec       q    Type
REMARK                         _______ _______ _______ _____ _____    ______ ____
ROOT
ATOM      1  C   UNL     1      -0.208  14.580  19.097  0.00  0.00    +0.000 C 
ATOM      2  N   UNL     1      -1.404  14.613  19.638  0.00  0.00    +0.000 NA
ATOM      3  C   UNL     1      -2.229  13.333  19.946  0.00  0.00    +0.000 C 
ATOM      4  C   UNL     1      -1.308  11.984  19.575  0.00  0.00    +0.000 C 
ATOM      5  C   UNL     1      -0.946  11.072  20.505  0.00  0.00    +0.000 C 
ATOM      6  O   UNL     1      -0.150  11.496  21.560  0.00  0.00    +0.000 OA
ATOM      7  C   UNL     1      -0.927  11.449  22.745  0.00  0.00    +0.000 C 
ATOM      8  C   UNL     1      -1.056  12.873  23.262  0.00  0.00    +0.000 C 
ATOM      9  C   UNL     1      -2.517  13.103  23.579  0.00  0.00    +0.000 C 
ATOM     10  C   UNL     1      -2.839  14.578  23.742  0.00  0.00    +0.000 C 
ATOM     11  C   UNL     1      -4.210  14.817  23.160  0.00  0.00    +0.000 C 
ATOM     12  S   UNL     1      -3.996  15.856  21.653  0.00  0.00    +0.000 S 
ATOM     13  C   UNL     1      -4.794  14.599  20.579  0.00  0.00    +0.000 A 
ATOM     14  C   UNL     1      -6.229  14.704  20.991  0.00  0.00    +0.000 A 
ATOM     15  C   UNL     1      -7.004  13.598  21.297  0.00  0.00    +0.000 A 
ATOM     16  C   UNL     1      -6.396  12.366  21.038  0.00  0.00    +0.000 A 
ATOM     17  C   UNL     1      -4.971  12.236  20.519  0.00  0.00    +0.000 A 
ATOM     18  C   UNL     1      -4.058  13.379  20.217  0.00  0.00    +0.000 A 
ATOM     19  C   UNL     1       0.051  12.338  18.859  0.00  0.00    +0.000 C 
ATOM     20  C   UNL     1       1.365  11.459  18.824  0.00  0.00    +0.000 C 
ATOM     21  N   UNL     1       0.373  13.506  18.438  0.00  0.00    +0.000 NA
ENDROOT
BRANCH  16  22
ATOM     22  N   UNL     1      -7.277  11.231  21.451  0.00  0.00    +0.000 N 
ATOM     23  O   UNL     1      -7.884  11.305  22.545  0.00  0.00    +0.000 OA
ATOM     24  O   UNL     1      -7.260  10.202  20.752  0.00  0.00    +0.000 OA
ENDBRANCH  16  22
BRANCH   1  26
ATOM     25  C   UNL     1       2.817  15.228  18.615  0.00  0.00    +0.000 C 
ATOM     26  S   UNL     1       1.091  15.872  19.198  0.00  0.00    +0.000 S 
ENDBRANCH   1  26
BRANCH   5  27
ATOM     27  O   UNL     1      -0.762   9.739  20.188  0.00  0.00    +0.000 OA
ATOM     28  H   UNL     1      -1.489   9.422  19.633  0.00  0.00    +0.000 HD
ENDBRANCH   5  27
TORSDOF 3
ENDMDL
MODEL 7
REMARK VINA RESULT:      -5.5      9.688     12.586
REMARK  Name = 
REMARK  5 active torsions:
REMARK  status: ('A' for Active; 'I' for Inactive)
REMARK    1  A    between atoms: C_1  and  S_2
REMARK    2  A    between atoms: S_2  and  C_3
REMARK    3  A    between atoms: C_7  and  O_8
REMARK    4  A    between atoms: C_19  and  N_20
REMARK    5  A    between atoms: C_25  and  C_26
REMARK                            x       y       z     vdW  Elec       q    Type
REMARK                         _______ _______ _______ _____ _____    ______ ____
ROOT
ATOM      1  C   UNL     1       8.039  15.524  25.525  0.00  0.00    +0.000 C 
ATOM      2  N   UNL     1       8.566  15.333  24.337  0.00  0.00    +0.000 NA
ATOM      3  C   UNL     1       8.324  14.045  23.503  0.00  0.00    +0.000 C 
ATOM      4  C   UNL     1       7.241  13.059  24.316  0.00  0.00    +0.000 C 
ATOM      5  C   UNL     1       6.037  12.721  23.802  0.00  0.00    +0.000 C 
ATOM      6  O   UNL     1       5.130  13.738  23.544  0.00  0.00    +0.000 OA
ATOM      7  C   UNL     1       4.980  13.849  22.138  0.00  0.00    +0.000 C 
ATOM      8  C   UNL     1       5.485  15.226  21.735  0.00  0.00    +0.000 C 
ATOM      9  C   UNL     1       6.411  15.034  20.554  0.00  0.00    +0.000 C 
ATOM     10  C   UNL     1       7.265  16.263  20.295  0.00  0.00    +0.000 C 
ATOM     11  C   UNL     1       8.628  15.792  19.854  0.00  0.00    +0.000 C 
ATOM     12  S   UNL     1       9.822  16.234  21.186  0.00  0.00    +0.000 S 
ATOM     13  C   UNL     1      10.332  14.485  21.415  0.00  0.00    +0.000 A 
ATOM     14  C   UNL     1      11.127  14.228  20.173  0.00  0.00    +0.000 A 
ATOM     15  C   UNL     1      10.939  13.108  19.381  0.00  0.00    +0.000 A 
ATOM     16  C   UNL     1      10.063  12.155  19.911  0.00  0.00    +0.000 A 
ATOM     17  C   UNL     1       9.322  12.350  21.227  0.00  0.00    +0.000 A 
ATOM     18  C   UNL     1       9.434  13.551  22.107  0.00  0.00    +0.000 A 
ATOM     19  C   UNL     1       6.891  13.580  25.761  0.00  0.00    +0.000 C 
ATOM     20  C   UNL     1       5.590  13.258  26.600  0.00  0.00    +0.000 C 
ATOM     21  N   UNL     1       7.480  14.557  26.348  0.00  0.00    +0.000 NA
ENDROOT
BRANCH  16  22
ATOM     22  N   UNL     1       9.873  11.011  18.968  0.00  0.00    +0.000 N 
ATOM     23  O   UNL     1      10.157  11.174  17.758  0.00  0.00    +0.000 OA
ATOM     24  O   UNL     1       9.310   9.991  19.403  0.00  0.00    +0.000 OA
ENDBRANCH  16  22
BRANCH   1  26
ATOM     25  C   UNL     1       6.182  17.090  27.501  0.00  0.00    +0.000 C 
ATOM     26  S   UNL     1       7.741  17.131  26.360  0.00  0.00    +0.000 S 
ENDBRANCH   1  26
BRANCH   5  27
ATOM     27  O   UNL     1       5.432  11.513  24.095  0.00  0.00    +0.000 OA
ATOM     28  H   UNL     1       4.893  11.218  23.348  0.00  0.00    +0.000 HD
ENDBRANCH   5  27
TORSDOF 3
ENDMDL
MODEL 8
REMARK VINA RESULT:      -5.4      3.338      5.591
REMARK  Name = 
REMARK  5 active torsions:
REMARK  status: ('A' for Active; 'I' for Inactive)
REMARK    1  A    between atoms: C_1  and  S_2
REMARK    2  A    between atoms: S_2  and  C_3
REMARK    3  A    between atoms: C_7  and  O_8
REMARK    4  A    between atoms: C_19  and  N_20
REMARK    5  A    between atoms: C_25  and  C_26
REMARK                            x       y       z     vdW  Elec       q    Type
REMARK                         _______ _______ _______ _____ _____    ______ ____
ROOT
ATOM      1  C   UNL     1      -1.044  16.912  19.795  0.00  0.00    +0.000 C 
ATOM      2  N   UNL     1      -0.909  15.611  19.678  0.00  0.00    +0.000 NA
ATOM      3  C   UNL     1      -0.970  14.643  20.892  0.00  0.00    +0.000 C 
ATOM      4  C   UNL     1      -1.326  15.518  22.275  0.00  0.00    +0.000 C 
ATOM      5  C   UNL     1      -2.445  15.306  23.002  0.00  0.00    +0.000 C 
ATOM      6  O   UNL     1      -3.672  15.516  22.388  0.00  0.00    +0.000 OA
ATOM      7  C   UNL     1      -4.307  14.258  22.231  0.00  0.00    +0.000 C 
ATOM      8  C   UNL     1      -4.456  14.006  20.739  0.00  0.00    +0.000 C 
ATOM      9  C   UNL     1      -3.967  12.599  20.472  0.00  0.00    +0.000 C 
ATOM     10  C   UNL     1      -3.709  12.357  18.995  0.00  0.00    +0.000 C 
ATOM     11  C   UNL     1      -2.496  11.469  18.879  0.00  0.00    +0.000 C 
ATOM     12  S   UNL     1      -1.148  12.473  18.124  0.00  0.00    +0.000 S 
ATOM     13  C   UNL     1      -0.038  12.205  19.561  0.00  0.00    +0.000 A 
ATOM     14  C   UNL     1       0.337  10.764  19.400  0.00  0.00    +0.000 A 
ATOM     15  C   UNL     1       0.282   9.855  20.442  0.00  0.00    +0.000 A 
ATOM     16  C   UNL     1       0.003  10.412  21.694  0.00  0.00    +0.000 A 
ATOM     17  C   UNL     1      -0.279  11.894  21.898  0.00  0.00    +0.000 A 
ATOM     18  C   UNL     1      -0.289  12.924  20.818  0.00  0.00    +0.000 A 
ATOM     19  C   UNL     1      -1.329  17.077  22.040  0.00  0.00    +0.000 C 
ATOM     20  C   UNL     1      -2.091  18.167  22.897  0.00  0.00    +0.000 C 
ATOM     21  N   UNL     1      -0.941  17.654  20.963  0.00  0.00    +0.000 NA
ENDROOT
BRANCH  16  22
ATOM     22  N   UNL     1      -0.095   9.355  22.746  0.00  0.00    +0.000 N 
ATOM     23  O   UNL     1      -0.742   8.312  22.495  0.00  0.00    +0.000 OA
ATOM     24  O   UNL     1       0.354   9.620  23.876  0.00  0.00    +0.000 OA
ENDBRANCH  16  22
BRANCH   1  26
ATOM     25  C   UNL     1      -0.291  18.205  17.044  0.00  0.00    +0.000 C 
ATOM     26  S   UNL     1      -1.566  18.094  18.491  0.00  0.00    +0.000 S 
ENDBRANCH   1  26
BRANCH   5  27
ATOM     27  O   UNL     1      -2.479  15.515  24.368  0.00  0.00    +0.000 OA
ATOM     28  H   UNL     1      -2.006  14.808  24.829  0.00  0.00    +0.000 HD
ENDBRANCH   5  27
TORSDOF 3
ENDMDL
MODEL 9
REMARK VINA RESULT:      -5.4      3.769      5.694
REMARK  Name = 
REMARK  5 active torsions:
REMARK  status: ('A' for Active; 'I' for Inactive)
REMARK    1  A    between atoms: C_1  and  S_2
REMARK    2  A    between atoms: S_2  and  C_3
REMARK    3  A    between atoms: C_7  and  O_8
REMARK    4  A    between atoms: C_19  and  N_20
REMARK    5  A    between atoms: C_25  and  C_26
REMARK                            x       y       z     vdW  Elec       q    Type
REMARK                         _______ _______ _______ _____ _____    ______ ____
ROOT
ATOM      1  C   UNL     1      -0.241  16.794  19.197  0.00  0.00    +0.000 C 
ATOM      2  N   UNL     1      -0.272  15.483  19.128  0.00  0.00    +0.000 NA
ATOM      3  C   UNL     1       0.003  14.566  20.352  0.00  0.00    +0.000 C 
ATOM      4  C   UNL     1       0.224  15.516  21.713  0.00  0.00    +0.000 C 
ATOM      5  C   UNL     1      -0.591  15.448  22.789  0.00  0.00    +0.000 C 
ATOM      6  O   UNL     1      -1.930  15.768  22.614  0.00  0.00    +0.000 OA
ATOM      7  C   UNL     1      -2.690  14.581  22.766  0.00  0.00    +0.000 C 
ATOM      8  C   UNL     1      -3.365  14.299  21.433  0.00  0.00    +0.000 C 
ATOM      9  C   UNL     1      -3.126  12.841  21.110  0.00  0.00    +0.000 C 
ATOM     10  C   UNL     1      -3.415  12.526  19.652  0.00  0.00    +0.000 C 
ATOM     11  C   UNL     1      -2.400  11.510  19.191  0.00  0.00    +0.000 C 
ATOM     12  S   UNL     1      -1.310  12.341  17.958  0.00  0.00    +0.000 S 
ATOM     13  C   UNL     1       0.197  12.001  18.949  0.00  0.00    +0.000 A 
ATOM     14  C   UNL     1       0.364  10.524  18.765  0.00  0.00    +0.000 A 
ATOM     15  C   UNL     1       0.590   9.659  19.822  0.00  0.00    +0.000 A 
ATOM     16  C   UNL     1       0.810  10.282  21.055  0.00  0.00    +0.000 A 
ATOM     17  C   UNL     1       0.749  11.791  21.244  0.00  0.00    +0.000 A 
ATOM     18  C   UNL     1       0.460  12.782  20.165  0.00  0.00    +0.000 A 
ATOM     19  C   UNL     1       0.280  17.058  21.390  0.00  0.00    +0.000 C 
ATOM     20  C   UNL     1      -0.040  18.250  22.380  0.00  0.00    +0.000 C 
ATOM     21  N   UNL     1       0.323  17.557  20.209  0.00  0.00    +0.000 NA
ENDROOT
BRANCH  16  22
ATOM     22  N   UNL     1       0.986   9.276  22.146  0.00  0.00    +0.000 N 
ATOM     23  O   UNL     1       0.875   9.651  23.336  0.00  0.00    +0.000 OA
ATOM     24  O   UNL     1       1.371   8.137  21.825  0.00  0.00    +0.000 OA
ENDBRANCH  16  22
BRANCH   1  26
ATOM     25  C   UNL     1       0.067  18.535  16.613  0.00  0.00    +0.000 C 
ATOM     26  S   UNL     1      -1.072  17.983  18.073  0.00  0.00    +0.000 S 
ENDBRANCH   1  26
BRANCH   5  27
ATOM     27  O   UNL     1      -0.134  15.703  24.068  0.00  0.00    +0.000 OA
ATOM     28  H   UNL     1      -0.011  14.874  24.553  0.00  0.00    +0.000 HD
ENDBRANCH   5  27
TORSDOF 3
ENDMDL
