MODEL 1
REMARK VINA RESULT:      -7.5      0.000      0.000
REMARK  Name = 
REMARK  4 active torsions:
REMARK  status: ('A' for Active; 'I' for Inactive)
REMARK    1  A    between atoms: C_2  and  C_12
REMARK    2  A    between atoms: N_3  and  C_4
REMARK    3  A    between atoms: C_4  and  C_5
REMARK    4  A    between atoms: C_12  and  C_13
REMARK                            x       y       z     vdW  Elec       q    Type
REMARK                         _______ _______ _______ _____ _____    ______ ____
ROOT
ATOM      1  O   UNL     1       4.453   7.356  17.444  0.00  0.00    +0.000 OA
ATOM      2  C   UNL     1       3.560   6.595  17.820  0.00  0.00    +0.000 C 
ATOM      3  N   UNL     1       2.317   7.072  18.173  0.00  0.00    +0.000 N 
ATOM      4  H   UNL     1       1.553   6.435  18.347  0.00  0.00    +0.000 HD
ENDROOT
BRANCH   2   5
ATOM      5  C   UNL     1       3.775   5.054  17.886  0.00  0.00    +0.000 C 
ATOM      6  C   UNL     1       2.498   4.257  17.525  0.00  0.00    +0.000 C 
ATOM      7  C   UNL     1       2.647   2.781  17.874  0.00  0.00    +0.000 C 
ATOM      8  O   UNL     1       2.882   2.632  19.270  0.00  0.00    +0.000 OA
ATOM      9  C   UNL     1       4.108   3.237  19.668  0.00  0.00    +0.000 C 
ATOM     10  C   UNL     1       4.090   4.731  19.377  0.00  0.00    +0.000 C 
BRANCH   5  11
ATOM     11  C   UNL     1       4.967   4.734  16.962  0.00  0.00    +0.000 A 
ATOM     12  C   UNL     1       4.957   4.360  15.625  0.00  0.00    +0.000 A 
ATOM     13  C   UNL     1       6.258   4.107  15.103  0.00  0.00    +0.000 A 
ATOM     14  C   UNL     1       7.239   4.292  16.048  0.00  0.00    +0.000 A 
ATOM     15  S   UNL     1       6.590   4.754  17.553  0.00  0.00    +0.000 S 
ENDBRANCH   5  11
ENDBRANCH   2   5
BRANCH   3  16
ATOM     16  C   UNL     1       2.022   8.489  18.179  0.00  0.00    +0.000 C 
BRANCH  16  17
ATOM     17  C   UNL     1       1.304   8.920  19.432  0.00  0.00    +0.000 A 
ATOM     18  C   UNL     1       1.524   8.264  20.651  0.00  0.00    +0.000 A 
ATOM     19  C   UNL     1       0.865   8.676  21.811  0.00  0.00    +0.000 A 
ATOM     20  C   UNL     1      -0.032   9.747  21.756  0.00  0.00    +0.000 A 
ATOM     21 CL   UNL     1      -0.842  10.257  23.184  0.00  0.00    +0.000 Cl
ATOM     22  C   UNL     1      -0.267  10.402  20.549  0.00  0.00    +0.000 A 
ATOM     23  C   UNL     1       0.391   9.986  19.392  0.00  0.00    +0.000 A 
ENDBRANCH  16  17
ENDBRANCH   3  16
TORSDOF 4
ENDMDL
MODEL 2
REMARK VINA RESULT:      -7.5      0.084      1.033
REMARK  Name = 
REMARK  4 active torsions:
REMARK  status: ('A' for Active; 'I' for Inactive)
REMARK    1  A    between atoms: C_2  and  C_12
REMARK    2  A    between atoms: N_3  and  C_4
REMARK    3  A    between atoms: C_4  and  C_5
REMARK    4  A    between atoms: C_12  and  C_13
REMARK                            x       y       z     vdW  Elec       q    Type
REMARK                         _______ _______ _______ _____ _____    ______ ____
ROOT
ATOM      1  O   UNL     1       4.392   7.342  17.244  0.00  0.00    +0.000 OA
ATOM      2  C   UNL     1       3.560   6.585  17.748  0.00  0.00    +0.000 C 
ATOM      3  N   UNL     1       2.356   7.060  18.220  0.00  0.00    +0.000 N 
ATOM      4  H   UNL     1       1.628   6.421  18.504  0.00  0.00    +0.000 HD
ENDROOT
BRANCH   2   5
ATOM      5  C   UNL     1       3.808   5.051  17.850  0.00  0.00    +0.000 C 
ATOM      6  C   UNL     1       2.550   4.219  17.502  0.00  0.00    +0.000 C 
ATOM      7  C   UNL     1       2.729   2.754  17.885  0.00  0.00    +0.000 C 
ATOM      8  O   UNL     1       2.961   2.643  19.285  0.00  0.00    +0.000 OA
ATOM      9  C   UNL     1       4.172   3.283  19.674  0.00  0.00    +0.000 C 
ATOM     10  C   UNL     1       4.123   4.769  19.350  0.00  0.00    +0.000 C 
BRANCH   5  11
ATOM     11  C   UNL     1       5.011   4.737  16.939  0.00  0.00    +0.000 A 
ATOM     12  C   UNL     1       5.016   4.354  15.604  0.00  0.00    +0.000 A 
ATOM     13  C   UNL     1       6.324   4.109  15.095  0.00  0.00    +0.000 A 
ATOM     14  C   UNL     1       7.294   4.310  16.047  0.00  0.00    +0.000 A 
ATOM     15  S   UNL     1       6.629   4.776  17.543  0.00  0.00    +0.000 S 
ENDBRANCH   5  11
ENDBRANCH   2   5
BRANCH   3  16
ATOM     16  C   UNL     1       2.038   8.472  18.204  0.00  0.00    +0.000 C 
BRANCH  16  17
ATOM     17  C   UNL     1       1.327   8.915  19.456  0.00  0.00    +0.000 A 
ATOM     18  C   UNL     1       0.496  10.044  19.452  0.00  0.00    +0.000 A 
ATOM     19  C   UNL     1      -0.170  10.444  20.612  0.00  0.00    +0.000 A 
ATOM     20  C   UNL     1      -0.000   9.717  21.794  0.00  0.00    +0.000 A 
ATOM     21 CL   UNL     1      -0.822  10.205  23.223  0.00  0.00    +0.000 Cl
ATOM     22  C   UNL     1       0.829   8.597  21.815  0.00  0.00    +0.000 A 
ATOM     23  C   UNL     1       1.495   8.203  20.655  0.00  0.00    +0.000 A 
ENDBRANCH  16  17
ENDBRANCH   3  16
TORSDOF 4
ENDMDL
MODEL 3
REMARK VINA RESULT:      -7.5      0.861      1.141
REMARK  Name = 
REMARK  4 active torsions:
REMARK  status: ('A' for Active; 'I' for Inactive)
REMARK    1  A    between atoms: C_2  and  C_12
REMARK    2  A    between atoms: N_3  and  C_4
REMARK    3  A    between atoms: C_4  and  C_5
REMARK    4  A    between atoms: C_12  and  C_13
REMARK                            x       y       z     vdW  Elec       q    Type
REMARK                         _______ _______ _______ _____ _____    ______ ____
ROOT
ATOM      1  O   UNL     1       3.963   7.275  17.134  0.00  0.00    +0.000 OA
ATOM      2  C   UNL     1       3.325   6.616  17.957  0.00  0.00    +0.000 C 
ATOM      3  N   UNL     1       2.298   7.181  18.681  0.00  0.00    +0.000 N 
ATOM      4  H   UNL     1       1.694   6.605  19.249  0.00  0.00    +0.000 HD
ENDROOT
BRANCH   2   5
ATOM      5  C   UNL     1       3.621   5.107  18.199  0.00  0.00    +0.000 C 
ATOM      6  C   UNL     1       2.650   4.178  17.429  0.00  0.00    +0.000 C 
ATOM      7  C   UNL     1       2.770   2.734  17.904  0.00  0.00    +0.000 C 
ATOM      8  O   UNL     1       2.459   2.650  19.290  0.00  0.00    +0.000 OA
ATOM      9  C   UNL     1       3.384   3.384  20.086  0.00  0.00    +0.000 C 
ATOM     10  C   UNL     1       3.360   4.859  19.715  0.00  0.00    +0.000 C 
BRANCH   5  11
ATOM     11  C   UNL     1       5.098   4.880  17.823  0.00  0.00    +0.000 A 
ATOM     12  C   UNL     1       6.233   5.056  18.602  0.00  0.00    +0.000 A 
ATOM     13  C   UNL     1       7.444   4.783  17.903  0.00  0.00    +0.000 A 
ATOM     14  C   UNL     1       7.213   4.402  16.603  0.00  0.00    +0.000 A 
ATOM     15  S   UNL     1       5.552   4.388  16.230  0.00  0.00    +0.000 S 
ENDBRANCH   5  11
ENDBRANCH   2   5
BRANCH   3  16
ATOM     16  C   UNL     1       1.963   8.583  18.557  0.00  0.00    +0.000 C 
BRANCH  16  17
ATOM     17  C   UNL     1       1.169   9.090  19.733  0.00  0.00    +0.000 A 
ATOM     18  C   UNL     1       1.281   8.486  20.992  0.00  0.00    +0.000 A 
ATOM     19  C   UNL     1       0.552   8.967  22.082  0.00  0.00    +0.000 A 
ATOM     20  C   UNL     1      -0.307  10.057  21.913  0.00  0.00    +0.000 A 
ATOM     21 CL   UNL     1      -1.203  10.653  23.254  0.00  0.00    +0.000 Cl
ATOM     22  C   UNL     1      -0.436  10.662  20.665  0.00  0.00    +0.000 A 
ATOM     23  C   UNL     1       0.293  10.176  19.579  0.00  0.00    +0.000 A 
ENDBRANCH  16  17
ENDBRANCH   3  16
TORSDOF 4
ENDMDL
MODEL 4
REMARK VINA RESULT:      -7.5      0.985      1.644
REMARK  Name = 
REMARK  4 active torsions:
REMARK  status: ('A' for Active; 'I' for Inactive)
REMARK    1  A    between atoms: C_2  and  C_12
REMARK    2  A    between atoms: N_3  and  C_4
REMARK    3  A    between atoms: C_4  and  C_5
REMARK    4  A    between atoms: C_12  and  C_13
REMARK                            x       y       z     vdW  Elec       q    Type
REMARK                         _______ _______ _______ _____ _____    ______ ____
ROOT
ATOM      1  O   UNL     1       4.003   7.309  17.154  0.00  0.00    +0.000 OA
ATOM      2  C   UNL     1       3.370   6.661  17.988  0.00  0.00    +0.000 C 
ATOM      3  N   UNL     1       2.313   7.219  18.674  0.00  0.00    +0.000 N 
ATOM      4  H   UNL     1       1.716   6.646  19.251  0.00  0.00    +0.000 HD
ENDROOT
BRANCH   2   5
ATOM      5  C   UNL     1       3.706   5.171  18.291  0.00  0.00    +0.000 C 
ATOM      6  C   UNL     1       2.876   4.186  17.430  0.00  0.00    +0.000 C 
ATOM      7  C   UNL     1       3.009   2.756  17.941  0.00  0.00    +0.000 C 
ATOM      8  O   UNL     1       2.543   2.674  19.284  0.00  0.00    +0.000 OA
ATOM      9  C   UNL     1       3.332   3.462  20.168  0.00  0.00    +0.000 C 
ATOM     10  C   UNL     1       3.282   4.930  19.770  0.00  0.00    +0.000 C 
BRANCH   5  11
ATOM     11  C   UNL     1       5.226   5.012  18.092  0.00  0.00    +0.000 A 
ATOM     12  C   UNL     1       6.257   5.323  18.968  0.00  0.00    +0.000 A 
ATOM     13  C   UNL     1       7.551   5.075  18.425  0.00  0.00    +0.000 A 
ATOM     14  C   UNL     1       7.486   4.577  17.146  0.00  0.00    +0.000 A 
ATOM     15  S   UNL     1       5.879   4.425  16.604  0.00  0.00    +0.000 S 
ENDBRANCH   5  11
ENDBRANCH   2   5
BRANCH   3  16
ATOM     16  C   UNL     1       1.938   8.605  18.493  0.00  0.00    +0.000 C 
BRANCH  16  17
ATOM     17  C   UNL     1       1.163   9.148  19.665  0.00  0.00    +0.000 A 
ATOM     18  C   UNL     1       0.390  10.311  19.541  0.00  0.00    +0.000 A 
ATOM     19  C   UNL     1      -0.336  10.803  20.628  0.00  0.00    +0.000 A 
ATOM     20  C   UNL     1      -0.284  10.137  21.855  0.00  0.00    +0.000 A 
ATOM     21 CL   UNL     1      -1.180  10.740  23.193  0.00  0.00    +0.000 Cl
ATOM     22  C   UNL     1       0.487   8.984  21.995  0.00  0.00    +0.000 A 
ATOM     23  C   UNL     1       1.212   8.497  20.908  0.00  0.00    +0.000 A 
ENDBRANCH  16  17
ENDBRANCH   3  16
TORSDOF 4
ENDMDL
MODEL 5
REMARK VINA RESULT:      -7.5      1.736      3.046
REMARK  Name = 
REMARK  4 active torsions:
REMARK  status: ('A' for Active; 'I' for Inactive)
REMARK    1  A    between atoms: C_2  and  C_12
REMARK    2  A    between atoms: N_3  and  C_4
REMARK    3  A    between atoms: C_4  and  C_5
REMARK    4  A    between atoms: C_12  and  C_13
REMARK                            x       y       z     vdW  Elec       q    Type
REMARK                         _______ _______ _______ _____ _____    ______ ____
ROOT
ATOM      1  O   UNL     1       4.409   7.460  15.757  0.00  0.00    +0.000 OA
ATOM      2  C   UNL     1       4.351   6.800  16.796  0.00  0.00    +0.000 C 
ATOM      3  N   UNL     1       3.472   7.131  17.804  0.00  0.00    +0.000 N 
ATOM      4  H   UNL     1       3.333   6.510  18.588  0.00  0.00    +0.000 HD
ENDROOT
BRANCH   2   5
ATOM      5  C   UNL     1       5.242   5.542  17.013  0.00  0.00    +0.000 C 
ATOM      6  C   UNL     1       6.492   5.839  17.878  0.00  0.00    +0.000 C 
ATOM      7  C   UNL     1       7.485   4.682  17.835  0.00  0.00    +0.000 C 
ATOM      8  O   UNL     1       7.914   4.460  16.496  0.00  0.00    +0.000 OA
ATOM      9  C   UNL     1       6.837   4.061  15.653  0.00  0.00    +0.000 C 
ATOM     10  C   UNL     1       5.767   5.141  15.602  0.00  0.00    +0.000 C 
BRANCH   5  11
ATOM     11  C   UNL     1       4.333   4.456  17.621  0.00  0.00    +0.000 A 
ATOM     12  C   UNL     1       3.383   3.662  16.993  0.00  0.00    +0.000 A 
ATOM     13  C   UNL     1       2.701   2.787  17.886  0.00  0.00    +0.000 A 
ATOM     14  C   UNL     1       3.142   2.926  19.180  0.00  0.00    +0.000 A 
ATOM     15  S   UNL     1       4.357   4.111  19.314  0.00  0.00    +0.000 S 
ENDBRANCH   5  11
ENDBRANCH   2   5
BRANCH   3  16
ATOM     16  C   UNL     1       2.623   8.299  17.717  0.00  0.00    +0.000 C 
BRANCH  16  17
ATOM     17  C   UNL     1       1.838   8.534  18.981  0.00  0.00    +0.000 A 
ATOM     18  C   UNL     1       1.928   7.645  20.061  0.00  0.00    +0.000 A 
ATOM     19  C   UNL     1       1.208   7.873  21.235  0.00  0.00    +0.000 A 
ATOM     20  C   UNL     1       0.380   8.995  21.333  0.00  0.00    +0.000 A 
ATOM     21 CL   UNL     1      -0.505   9.280  22.779  0.00  0.00    +0.000 Cl
ATOM     22  C   UNL     1       0.274   9.884  20.265  0.00  0.00    +0.000 A 
ATOM     23  C   UNL     1       0.993   9.650  19.093  0.00  0.00    +0.000 A 
ENDBRANCH  16  17
ENDBRANCH   3  16
TORSDOF 4
ENDMDL
MODEL 6
REMARK VINA RESULT:      -7.2      1.732      3.325
REMARK  Name = 
REMARK  4 active torsions:
REMARK  status: ('A' for Active; 'I' for Inactive)
REMARK    1  A    between atoms: C_2  and  C_12
REMARK    2  A    between atoms: N_3  and  C_4
REMARK    3  A    between atoms: C_4  and  C_5
REMARK    4  A    between atoms: C_12  and  C_13
REMARK                            x       y       z     vdW  Elec       q    Type
REMARK                         _______ _______ _______ _____ _____    ______ ____
ROOT
ATOM      1  O   UNL     1       4.464   7.554  15.938  0.00  0.00    +0.000 OA
ATOM      2  C   UNL     1       4.330   6.863  16.949  0.00  0.00    +0.000 C 
ATOM      3  N   UNL     1       3.343   7.130  17.872  0.00  0.00    +0.000 N 
ATOM      4  H   UNL     1       3.153   6.483  18.622  0.00  0.00    +0.000 HD
ENDROOT
BRANCH   2   5
ATOM      5  C   UNL     1       5.245   5.633  17.223  0.00  0.00    +0.000 C 
ATOM      6  C   UNL     1       6.567   6.019  17.932  0.00  0.00    +0.000 C 
ATOM      7  C   UNL     1       7.558   4.861  17.927  0.00  0.00    +0.000 C 
ATOM      8  O   UNL     1       7.865   4.489  16.587  0.00  0.00    +0.000 OA
ATOM      9  C   UNL     1       6.719   4.004  15.896  0.00  0.00    +0.000 C 
ATOM     10  C   UNL     1       5.641   5.076  15.823  0.00  0.00    +0.000 C 
BRANCH   5  11
ATOM     11  C   UNL     1       4.401   4.625  18.028  0.00  0.00    +0.000 A 
ATOM     12  C   UNL     1       4.415   4.370  19.393  0.00  0.00    +0.000 A 
ATOM     13  C   UNL     1       3.517   3.334  19.780  0.00  0.00    +0.000 A 
ATOM     14  C   UNL     1       2.833   2.816  18.707  0.00  0.00    +0.000 A 
ATOM     15  S   UNL     1       3.282   3.566  17.246  0.00  0.00    +0.000 S 
ENDBRANCH   5  11
ENDBRANCH   2   5
BRANCH   3  16
ATOM     16  C   UNL     1       2.460   8.268  17.730  0.00  0.00    +0.000 C 
BRANCH  16  17
ATOM     17  C   UNL     1       1.727   8.589  19.007  0.00  0.00    +0.000 A 
ATOM     18  C   UNL     1       0.873   9.697  19.089  0.00  0.00    +0.000 A 
ATOM     19  C   UNL     1       0.187   9.983  20.271  0.00  0.00    +0.000 A 
ATOM     20  C   UNL     1       0.361   9.162  21.389  0.00  0.00    +0.000 A 
ATOM     21 CL   UNL     1      -0.486   9.511  22.844  0.00  0.00    +0.000 Cl
ATOM     22  C   UNL     1       1.213   8.061  21.325  0.00  0.00    +0.000 A 
ATOM     23  C   UNL     1       1.898   7.781  20.143  0.00  0.00    +0.000 A 
ENDBRANCH  16  17
ENDBRANCH   3  16
TORSDOF 4
ENDMDL
MODEL 7
REMARK VINA RESULT:      -7.2      1.128      1.188
REMARK  Name = 
REMARK  4 active torsions:
REMARK  status: ('A' for Active; 'I' for Inactive)
REMARK    1  A    between atoms: C_2  and  C_12
REMARK    2  A    between atoms: N_3  and  C_4
REMARK    3  A    between atoms: C_4  and  C_5
REMARK    4  A    between atoms: C_12  and  C_13
REMARK                            x       y       z     vdW  Elec       q    Type
REMARK                         _______ _______ _______ _____ _____    ______ ____
ROOT
ATOM      1  O   UNL     1       1.499   5.403  17.484  0.00  0.00    +0.000 OA
ATOM      2  C   UNL     1       2.679   5.449  17.837  0.00  0.00    +0.000 C 
ATOM      3  N   UNL     1       3.305   6.653  18.077  0.00  0.00    +0.000 N 
ATOM      4  H   UNL     1       4.224   6.679  18.495  0.00  0.00    +0.000 HD
ENDROOT
BRANCH   2   5
ATOM      5  C   UNL     1       3.516   4.155  18.060  0.00  0.00    +0.000 C 
ATOM      6  C   UNL     1       2.756   2.874  17.637  0.00  0.00    +0.000 C 
ATOM      7  C   UNL     1       3.469   1.619  18.128  0.00  0.00    +0.000 C 
ATOM      8  O   UNL     1       3.556   1.634  19.548  0.00  0.00    +0.000 OA
ATOM      9  C   UNL     1       4.346   2.721  20.019  0.00  0.00    +0.000 C 
ATOM     10  C   UNL     1       3.736   4.050  19.598  0.00  0.00    +0.000 C 
BRANCH   5  11
ATOM     11  C   UNL     1       4.842   4.349  17.299  0.00  0.00    +0.000 A 
ATOM     12  C   UNL     1       5.100   4.191  15.944  0.00  0.00    +0.000 A 
ATOM     13  C   UNL     1       6.464   4.421  15.601  0.00  0.00    +0.000 A 
ATOM     14  C   UNL     1       7.222   4.753  16.698  0.00  0.00    +0.000 A 
ATOM     15  S   UNL     1       6.298   4.772  18.127  0.00  0.00    +0.000 S 
ENDBRANCH   5  11
ENDBRANCH   2   5
BRANCH   3  16
ATOM     16  C   UNL     1       2.629   7.915  17.868  0.00  0.00    +0.000 C 
BRANCH  16  17
ATOM     17  C   UNL     1       1.870   8.368  19.089  0.00  0.00    +0.000 A 
ATOM     18  C   UNL     1       1.911   7.629  20.279  0.00  0.00    +0.000 A 
ATOM     19  C   UNL     1       1.215   8.060  21.410  0.00  0.00    +0.000 A 
ATOM     20  C   UNL     1       0.461   9.236  21.354  0.00  0.00    +0.000 A 
ATOM     21 CL   UNL     1      -0.394   9.769  22.747  0.00  0.00    +0.000 Cl
ATOM     22  C   UNL     1       0.403   9.976  20.175  0.00  0.00    +0.000 A 
ATOM     23  C   UNL     1       1.098   9.540  19.046  0.00  0.00    +0.000 A 
ENDBRANCH  16  17
ENDBRANCH   3  16
TORSDOF 4
ENDMDL
MODEL 8
REMARK VINA RESULT:      -7.2      1.125      1.565
REMARK  Name = 
REMARK  4 active torsions:
REMARK  status: ('A' for Active; 'I' for Inactive)
REMARK    1  A    between atoms: C_2  and  C_12
REMARK    2  A    between atoms: N_3  and  C_4
REMARK    3  A    between atoms: C_4  and  C_5
REMARK    4  A    between atoms: C_12  and  C_13
REMARK                            x       y       z     vdW  Elec       q    Type
REMARK                         _______ _______ _______ _____ _____    ______ ____
ROOT
ATOM      1  O   UNL     1       1.492   5.427  17.459  0.00  0.00    +0.000 OA
ATOM      2  C   UNL     1       2.669   5.466  17.821  0.00  0.00    +0.000 C 
ATOM      3  N   UNL     1       3.300   6.666  18.070  0.00  0.00    +0.000 N 
ATOM      4  H   UNL     1       4.215   6.686  18.495  0.00  0.00    +0.000 HD
ENDROOT
BRANCH   2   5
ATOM      5  C   UNL     1       3.497   4.167  18.046  0.00  0.00    +0.000 C 
ATOM      6  C   UNL     1       2.734   2.891  17.613  0.00  0.00    +0.000 C 
ATOM      7  C   UNL     1       3.437   1.631  18.105  0.00  0.00    +0.000 C 
ATOM      8  O   UNL     1       3.514   1.640  19.526  0.00  0.00    +0.000 OA
ATOM      9  C   UNL     1       4.306   2.722  20.007  0.00  0.00    +0.000 C 
ATOM     10  C   UNL     1       3.706   4.056  19.586  0.00  0.00    +0.000 C 
BRANCH   5  11
ATOM     11  C   UNL     1       4.830   4.357  17.295  0.00  0.00    +0.000 A 
ATOM     12  C   UNL     1       5.095   4.212  15.940  0.00  0.00    +0.000 A 
ATOM     13  C   UNL     1       6.463   4.432  15.608  0.00  0.00    +0.000 A 
ATOM     14  C   UNL     1       7.218   4.744  16.713  0.00  0.00    +0.000 A 
ATOM     15  S   UNL     1       6.285   4.755  18.137  0.00  0.00    +0.000 S 
ENDBRANCH   5  11
ENDBRANCH   2   5
BRANCH   3  16
ATOM     16  C   UNL     1       2.632   7.932  17.861  0.00  0.00    +0.000 C 
BRANCH  16  17
ATOM     17  C   UNL     1       1.857   8.380  19.073  0.00  0.00    +0.000 A 
ATOM     18  C   UNL     1       1.064   9.535  19.035  0.00  0.00    +0.000 A 
ATOM     19  C   UNL     1       0.339   9.940  20.158  0.00  0.00    +0.000 A 
ATOM     20  C   UNL     1       0.410   9.190  21.336  0.00  0.00    +0.000 A 
ATOM     21 CL   UNL     1      -0.485   9.685  22.718  0.00  0.00    +0.000 Cl
ATOM     22  C   UNL     1       1.201   8.044  21.391  0.00  0.00    +0.000 A 
ATOM     23  C   UNL     1       1.926   7.645  20.267  0.00  0.00    +0.000 A 
ENDBRANCH  16  17
ENDBRANCH   3  16
TORSDOF 4
ENDMDL
MODEL 9
REMARK VINA RESULT:      -7.1      2.160      2.599
REMARK  Name = 
REMARK  4 active torsions:
REMARK  status: ('A' for Active; 'I' for Inactive)
REMARK    1  A    between atoms: C_2  and  C_12
REMARK    2  A    between atoms: N_3  and  C_4
REMARK    3  A    between atoms: C_4  and  C_5
REMARK    4  A    between atoms: C_12  and  C_13
REMARK                            x       y       z     vdW  Elec       q    Type
REMARK                         _______ _______ _______ _____ _____    ______ ____
ROOT
ATOM      1  O   UNL     1       2.184   4.968  21.334  0.00  0.00    +0.000 OA
ATOM      2  C   UNL     1       2.426   5.434  20.219  0.00  0.00    +0.000 C 
ATOM      3  N   UNL     1       2.227   6.770  19.945  0.00  0.00    +0.000 N 
ATOM      4  H   UNL     1       2.554   7.170  19.078  0.00  0.00    +0.000 HD
ENDROOT
BRANCH   2   5
ATOM      5  C   UNL     1       2.997   4.551  19.071  0.00  0.00    +0.000 C 
ATOM      6  C   UNL     1       1.929   4.187  18.010  0.00  0.00    +0.000 C 
ATOM      7  C   UNL     1       2.431   3.099  17.068  0.00  0.00    +0.000 C 
ATOM      8  O   UNL     1       2.742   1.922  17.805  0.00  0.00    +0.000 OA
ATOM      9  C   UNL     1       3.806   2.140  18.727  0.00  0.00    +0.000 C 
ATOM     10  C   UNL     1       3.429   3.211  19.739  0.00  0.00    +0.000 C 
BRANCH   5  11
ATOM     11  C   UNL     1       4.198   5.315  18.481  0.00  0.00    +0.000 A 
ATOM     12  C   UNL     1       4.238   6.160  17.379  0.00  0.00    +0.000 A 
ATOM     13  C   UNL     1       5.541   6.663  17.104  0.00  0.00    +0.000 A 
ATOM     14  C   UNL     1       6.474   6.197  17.999  0.00  0.00    +0.000 A 
ATOM     15  S   UNL     1       5.782   5.152  19.150  0.00  0.00    +0.000 S 
ENDBRANCH   5  11
ENDBRANCH   2   5
BRANCH   3  16
ATOM     16  C   UNL     1       1.669   7.671  20.930  0.00  0.00    +0.000 C 
BRANCH  16  17
ATOM     17  C   UNL     1       1.040   8.889  20.303  0.00  0.00    +0.000 A 
ATOM     18  C   UNL     1       1.337   9.254  18.983  0.00  0.00    +0.000 A 
ATOM     19  C   UNL     1       0.743  10.377  18.403  0.00  0.00    +0.000 A 
ATOM     20  C   UNL     1      -0.150  11.152  19.149  0.00  0.00    +0.000 A 
ATOM     21 CL   UNL     1      -0.885  12.532  18.435  0.00  0.00    +0.000 Cl
ATOM     22  C   UNL     1      -0.449  10.805  20.465  0.00  0.00    +0.000 A 
ATOM     23  C   UNL     1       0.149   9.684  21.041  0.00  0.00    +0.000 A 
ENDBRANCH  16  17
ENDBRANCH   3  16
TORSDOF 4
ENDMDL
