MODEL 1
REMARK VINA RESULT:      -7.3      0.000      0.000
REMARK  Name = 
REMARK  6 active torsions:
REMARK  status: ('A' for Active; 'I' for Inactive)
REMARK    1  A    between atoms: C_1  and  O_2
REMARK    2  A    between atoms: O_2  and  C_3
REMARK    3  A    between atoms: C_6  and  C_7
REMARK    4  A    between atoms: C_9  and  C_10
REMARK    5  A    between atoms: C_12  and  N_13
REMARK    6  A    between atoms: C_16  and  C_17
REMARK                            x       y       z     vdW  Elec       q    Type
REMARK                         _______ _______ _______ _____ _____    ______ ____
ROOT
ATOM      1  C   UNL     1       3.116   6.359  19.109  0.00  0.00    +0.000 A 
ATOM      2  N   UNL     1       3.179   5.298  19.889  0.00  0.00    +0.000 NA
ATOM      3  C   UNL     1       4.060   4.467  19.227  0.00  0.00    +0.000 A 
ATOM      4  C   UNL     1       4.513   5.059  18.060  0.00  0.00    +0.000 A 
ATOM      5  O   UNL     1       3.934   6.299  18.010  0.00  0.00    +0.000 OA
ENDROOT
BRANCH   4   6
ATOM      6  N   UNL     1       5.328   4.702  17.034  0.00  0.00    +0.000 N 
ATOM      7  C   UNL     1       6.780   4.715  17.205  0.00  0.00    +0.000 C 
ATOM      8  C   UNL     1       7.423   5.235  15.925  0.00  0.00    +0.000 C 
ATOM      9  C   UNL     1       6.964   4.441  14.690  0.00  0.00    +0.000 C 
ATOM     10  C   UNL     1       7.488   5.100  13.415  0.00  0.00    +0.000 C 
ATOM     11  C   UNL     1       5.430   4.321  14.645  0.00  0.00    +0.000 C 
ATOM     12  C   UNL     1       4.863   3.808  15.972  0.00  0.00    +0.000 C 
ENDBRANCH   4   6
BRANCH   1  16
ATOM     13  C   UNL     1       0.664   9.871  19.409  0.00  0.00    +0.000 A 
ATOM     14  C   UNL     1       1.252   9.507  18.196  0.00  0.00    +0.000 A 
ATOM     15  C   UNL     1       2.031   8.347  18.094  0.00  0.00    +0.000 A 
ATOM     16  C   UNL     1       2.255   7.537  19.214  0.00  0.00    +0.000 A 
ATOM     17  C   UNL     1       1.667   7.916  20.432  0.00  0.00    +0.000 A 
ATOM     18  C   UNL     1       0.884   9.079  20.532  0.00  0.00    +0.000 A 
BRANCH  13  20
ATOM     19  C   UNL     1      -1.215  11.029  18.530  0.00  0.00    +0.000 C 
ATOM     20  O   UNL     1      -0.068  11.024  19.374  0.00  0.00    +0.000 OA
ENDBRANCH  13  20
ENDBRANCH   1  16
BRANCH   3  21
ATOM     21  C   UNL     1       4.389   3.180  19.740  0.00  0.00    +0.000 C 
ATOM     22  N   UNL     1       4.711   2.136  20.149  0.00  0.00    +0.000 NA
ENDBRANCH   3  21
TORSDOF 4
ENDMDL
MODEL 2
REMARK VINA RESULT:      -7.2      0.214      1.047
REMARK  Name = 
REMARK  6 active torsions:
REMARK  status: ('A' for Active; 'I' for Inactive)
REMARK    1  A    between atoms: C_1  and  O_2
REMARK    2  A    between atoms: O_2  and  C_3
REMARK    3  A    between atoms: C_6  and  C_7
REMARK    4  A    between atoms: C_9  and  C_10
REMARK    5  A    between atoms: C_12  and  N_13
REMARK    6  A    between atoms: C_16  and  C_17
REMARK                            x       y       z     vdW  Elec       q    Type
REMARK                         _______ _______ _______ _____ _____    ______ ____
ROOT
ATOM      1  C   UNL     1       3.042   6.487  19.128  0.00  0.00    +0.000 A 
ATOM      2  N   UNL     1       3.043   5.419  19.902  0.00  0.00    +0.000 NA
ATOM      3  C   UNL     1       3.924   4.566  19.268  0.00  0.00    +0.000 A 
ATOM      4  C   UNL     1       4.439   5.152  18.124  0.00  0.00    +0.000 A 
ATOM      5  O   UNL     1       3.900   6.409  18.062  0.00  0.00    +0.000 OA
ENDROOT
BRANCH   4   6
ATOM      6  N   UNL     1       5.283   4.777  17.128  0.00  0.00    +0.000 N 
ATOM      7  C   UNL     1       6.730   4.811  17.333  0.00  0.00    +0.000 C 
ATOM      8  C   UNL     1       7.398   5.305  16.054  0.00  0.00    +0.000 C 
ATOM      9  C   UNL     1       6.977   4.473  14.831  0.00  0.00    +0.000 C 
ATOM     10  C   UNL     1       7.524   5.104  13.551  0.00  0.00    +0.000 C 
ATOM     11  C   UNL     1       5.446   4.333  14.754  0.00  0.00    +0.000 C 
ATOM     12  C   UNL     1       4.853   3.850  16.080  0.00  0.00    +0.000 C 
ENDBRANCH   4   6
BRANCH   1  16
ATOM     13  C   UNL     1       0.530   9.959  19.377  0.00  0.00    +0.000 A 
ATOM     14  C   UNL     1       0.781   9.172  20.503  0.00  0.00    +0.000 A 
ATOM     15  C   UNL     1       1.621   8.054  20.425  0.00  0.00    +0.000 A 
ATOM     16  C   UNL     1       2.212   7.689  19.209  0.00  0.00    +0.000 A 
ATOM     17  C   UNL     1       1.946   8.481  18.080  0.00  0.00    +0.000 A 
ATOM     18  C   UNL     1       1.104   9.604  18.161  0.00  0.00    +0.000 A 
BRANCH  13  20
ATOM     19  C   UNL     1      -1.604  10.935  19.001  0.00  0.00    +0.000 C 
ATOM     20  O   UNL     1      -0.309  11.018  19.587  0.00  0.00    +0.000 OA
ENDBRANCH  13  20
ENDBRANCH   1  16
BRANCH   3  21
ATOM     21  C   UNL     1       4.194   3.267  19.784  0.00  0.00    +0.000 C 
ATOM     22  N   UNL     1       4.466   2.205  20.183  0.00  0.00    +0.000 NA
ENDBRANCH   3  21
TORSDOF 4
ENDMDL
MODEL 3
REMARK VINA RESULT:      -6.9      1.527      2.027
REMARK  Name = 
REMARK  6 active torsions:
REMARK  status: ('A' for Active; 'I' for Inactive)
REMARK    1  A    between atoms: C_1  and  O_2
REMARK    2  A    between atoms: O_2  and  C_3
REMARK    3  A    between atoms: C_6  and  C_7
REMARK    4  A    between atoms: C_9  and  C_10
REMARK    5  A    between atoms: C_12  and  N_13
REMARK    6  A    between atoms: C_16  and  C_17
REMARK                            x       y       z     vdW  Elec       q    Type
REMARK                         _______ _______ _______ _____ _____    ______ ____
ROOT
ATOM      1  C   UNL     1       1.884   7.211  20.189  0.00  0.00    +0.000 A 
ATOM      2  N   UNL     1       1.547   6.223  20.994  0.00  0.00    +0.000 NA
ATOM      3  C   UNL     1       2.367   5.189  20.590  0.00  0.00    +0.000 A 
ATOM      4  C   UNL     1       3.187   5.589  19.549  0.00  0.00    +0.000 A 
ATOM      5  O   UNL     1       2.903   6.909  19.323  0.00  0.00    +0.000 OA
ENDROOT
BRANCH   4   6
ATOM      6  N   UNL     1       4.126   5.002  18.762  0.00  0.00    +0.000 N 
ATOM      7  C   UNL     1       5.525   4.961  19.184  0.00  0.00    +0.000 C 
ATOM      8  C   UNL     1       6.415   5.199  17.970  0.00  0.00    +0.000 C 
ATOM      9  C   UNL     1       6.096   4.220  16.827  0.00  0.00    +0.000 C 
ATOM     10  C   UNL     1       6.881   4.602  15.573  0.00  0.00    +0.000 C 
ATOM     11  C   UNL     1       4.586   4.183  16.531  0.00  0.00    +0.000 C 
ATOM     12  C   UNL     1       3.765   3.957  17.803  0.00  0.00    +0.000 C 
ENDBRANCH   4   6
BRANCH   1  16
ATOM     13  C   UNL     1       0.202  11.139  19.774  0.00  0.00    +0.000 A 
ATOM     14  C   UNL     1       0.903  10.543  18.723  0.00  0.00    +0.000 A 
ATOM     15  C   UNL     1       1.429   9.252  18.852  0.00  0.00    +0.000 A 
ATOM     16  C   UNL     1       1.281   8.536  20.047  0.00  0.00    +0.000 A 
ATOM     17  C   UNL     1       0.583   9.148  21.102  0.00  0.00    +0.000 A 
ATOM     18  C   UNL     1       0.054  10.443  20.970  0.00  0.00    +0.000 A 
BRANCH  13  20
ATOM     19  C   UNL     1      -0.910  12.607  18.271  0.00  0.00    +0.000 C 
ATOM     20  O   UNL     1      -0.257  12.402  19.520  0.00  0.00    +0.000 OA
ENDBRANCH  13  20
ENDBRANCH   1  16
BRANCH   3  21
ATOM     21  C   UNL     1       2.299   3.907  21.207  0.00  0.00    +0.000 C 
ATOM     22  N   UNL     1       2.199   2.875  21.741  0.00  0.00    +0.000 NA
ENDBRANCH   3  21
TORSDOF 4
ENDMDL
MODEL 4
REMARK VINA RESULT:      -6.9      1.380      1.990
REMARK  Name = 
REMARK  6 active torsions:
REMARK  status: ('A' for Active; 'I' for Inactive)
REMARK    1  A    between atoms: C_1  and  O_2
REMARK    2  A    between atoms: O_2  and  C_3
REMARK    3  A    between atoms: C_6  and  C_7
REMARK    4  A    between atoms: C_9  and  C_10
REMARK    5  A    between atoms: C_12  and  N_13
REMARK    6  A    between atoms: C_16  and  C_17
REMARK                            x       y       z     vdW  Elec       q    Type
REMARK                         _______ _______ _______ _____ _____    ______ ____
ROOT
ATOM      1  C   UNL     1       2.074   7.094  19.958  0.00  0.00    +0.000 A 
ATOM      2  N   UNL     1       1.753   6.080  20.737  0.00  0.00    +0.000 NA
ATOM      3  C   UNL     1       2.588   5.069  20.304  0.00  0.00    +0.000 A 
ATOM      4  C   UNL     1       3.399   5.509  19.273  0.00  0.00    +0.000 A 
ATOM      5  O   UNL     1       3.094   6.830  19.082  0.00  0.00    +0.000 OA
ENDROOT
BRANCH   4   6
ATOM      6  N   UNL     1       4.344   4.958  18.468  0.00  0.00    +0.000 N 
ATOM      7  C   UNL     1       5.747   4.939  18.879  0.00  0.00    +0.000 C 
ATOM      8  C   UNL     1       6.623   5.219  17.663  0.00  0.00    +0.000 C 
ATOM      9  C   UNL     1       6.317   4.254  16.505  0.00  0.00    +0.000 C 
ATOM     10  C   UNL     1       7.083   4.676  15.252  0.00  0.00    +0.000 C 
ATOM     11  C   UNL     1       4.806   4.189  16.218  0.00  0.00    +0.000 C 
ATOM     12  C   UNL     1       3.999   3.922  17.492  0.00  0.00    +0.000 C 
ENDBRANCH   4   6
BRANCH   1  16
ATOM     13  C   UNL     1       0.159  10.924  19.648  0.00  0.00    +0.000 A 
ATOM     14  C   UNL     1       0.085  10.178  20.825  0.00  0.00    +0.000 A 
ATOM     15  C   UNL     1       0.732   8.940  20.933  0.00  0.00    +0.000 A 
ATOM     16  C   UNL     1       1.451   8.414  19.853  0.00  0.00    +0.000 A 
ATOM     17  C   UNL     1       1.512   9.167  18.669  0.00  0.00    +0.000 A 
ATOM     18  C   UNL     1       0.864  10.411  18.564  0.00  0.00    +0.000 A 
BRANCH  13  20
ATOM     19  C   UNL     1      -0.842  12.690  18.412  0.00  0.00    +0.000 C 
ATOM     20  O   UNL     1      -0.517  12.112  19.672  0.00  0.00    +0.000 OA
ENDBRANCH  13  20
ENDBRANCH   1  16
BRANCH   3  21
ATOM     21  C   UNL     1       2.540   3.771  20.887  0.00  0.00    +0.000 C 
ATOM     22  N   UNL     1       2.475   2.690  21.320  0.00  0.00    +0.000 NA
ENDBRANCH   3  21
TORSDOF 4
ENDMDL
MODEL 5
REMARK VINA RESULT:      -6.9      1.336      1.896
REMARK  Name = 
REMARK  6 active torsions:
REMARK  status: ('A' for Active; 'I' for Inactive)
REMARK    1  A    between atoms: C_1  and  O_2
REMARK    2  A    between atoms: O_2  and  C_3
REMARK    3  A    between atoms: C_6  and  C_7
REMARK    4  A    between atoms: C_9  and  C_10
REMARK    5  A    between atoms: C_12  and  N_13
REMARK    6  A    between atoms: C_16  and  C_17
REMARK                            x       y       z     vdW  Elec       q    Type
REMARK                         _______ _______ _______ _____ _____    ______ ____
ROOT
ATOM      1  C   UNL     1       2.506   6.714  19.627  0.00  0.00    +0.000 A 
ATOM      2  N   UNL     1       2.411   5.490  20.109  0.00  0.00    +0.000 NA
ATOM      3  C   UNL     1       3.305   4.774  19.339  0.00  0.00    +0.000 A 
ATOM      4  C   UNL     1       3.924   5.596  18.412  0.00  0.00    +0.000 A 
ATOM      5  O   UNL     1       3.436   6.856  18.631  0.00  0.00    +0.000 OA
ENDROOT
BRANCH   4   6
ATOM      6  N   UNL     1       4.824   5.433  17.408  0.00  0.00    +0.000 N 
ATOM      7  C   UNL     1       5.049   6.502  16.436  0.00  0.00    +0.000 C 
ATOM      8  C   UNL     1       5.233   5.883  15.055  0.00  0.00    +0.000 C 
ATOM      9  C   UNL     1       6.339   4.815  15.050  0.00  0.00    +0.000 C 
ATOM     10  C   UNL     1       6.373   4.097  13.701  0.00  0.00    +0.000 C 
ATOM     11  C   UNL     1       6.144   3.805  16.195  0.00  0.00    +0.000 C 
ATOM     12  C   UNL     1       5.950   4.507  17.542  0.00  0.00    +0.000 C 
ENDBRANCH   4   6
BRANCH   1  16
ATOM     13  C   UNL     1       0.109  10.145  20.582  0.00  0.00    +0.000 A 
ATOM     14  C   UNL     1       0.287   9.114  21.507  0.00  0.00    +0.000 A 
ATOM     15  C   UNL     1       1.090   8.008  21.203  0.00  0.00    +0.000 A 
ATOM     16  C   UNL     1       1.716   7.901  19.954  0.00  0.00    +0.000 A 
ATOM     17  C   UNL     1       1.523   8.939  19.027  0.00  0.00    +0.000 A 
ATOM     18  C   UNL     1       0.719  10.050  19.335  0.00  0.00    +0.000 A 
BRANCH  13  20
ATOM     19  C   UNL     1      -0.952  11.247  22.401  0.00  0.00    +0.000 C 
ATOM     20  O   UNL     1      -0.700  11.164  21.002  0.00  0.00    +0.000 OA
ENDBRANCH  13  20
ENDBRANCH   1  16
BRANCH   3  21
ATOM     21  C   UNL     1       3.490   3.375  19.530  0.00  0.00    +0.000 C 
ATOM     22  N   UNL     1       3.670   2.228  19.639  0.00  0.00    +0.000 NA
ENDBRANCH   3  21
TORSDOF 4
ENDMDL
MODEL 6
REMARK VINA RESULT:      -6.8      1.174      1.406
REMARK  Name = 
REMARK  6 active torsions:
REMARK  status: ('A' for Active; 'I' for Inactive)
REMARK    1  A    between atoms: C_1  and  O_2
REMARK    2  A    between atoms: O_2  and  C_3
REMARK    3  A    between atoms: C_6  and  C_7
REMARK    4  A    between atoms: C_9  and  C_10
REMARK    5  A    between atoms: C_12  and  N_13
REMARK    6  A    between atoms: C_16  and  C_17
REMARK                            x       y       z     vdW  Elec       q    Type
REMARK                         _______ _______ _______ _____ _____    ______ ____
ROOT
ATOM      1  C   UNL     1       2.399   7.137  19.384  0.00  0.00    +0.000 A 
ATOM      2  N   UNL     1       2.288   6.005  20.050  0.00  0.00    +0.000 NA
ATOM      3  C   UNL     1       3.177   5.168  19.406  0.00  0.00    +0.000 A 
ATOM      4  C   UNL     1       3.808   5.827  18.365  0.00  0.00    +0.000 A 
ATOM      5  O   UNL     1       3.334   7.111  18.382  0.00  0.00    +0.000 OA
ENDROOT
BRANCH   4   6
ATOM      6  N   UNL     1       4.710   5.500  17.404  0.00  0.00    +0.000 N 
ATOM      7  C   UNL     1       5.203   6.516  16.476  0.00  0.00    +0.000 C 
ATOM      8  C   UNL     1       5.332   5.898  15.088  0.00  0.00    +0.000 C 
ATOM      9  C   UNL     1       6.193   4.624  15.107  0.00  0.00    +0.000 C 
ATOM     10  C   UNL     1       6.152   3.940  13.742  0.00  0.00    +0.000 C 
ATOM     11  C   UNL     1       5.730   3.656  16.211  0.00  0.00    +0.000 C 
ATOM     12  C   UNL     1       5.611   4.358  17.567  0.00  0.00    +0.000 C 
ENDBRANCH   4   6
BRANCH   1  16
ATOM     13  C   UNL     1       0.199  10.804  19.767  0.00  0.00    +0.000 A 
ATOM     14  C   UNL     1       0.783  10.441  18.552  0.00  0.00    +0.000 A 
ATOM     15  C   UNL     1       1.479   9.232  18.422  0.00  0.00    +0.000 A 
ATOM     16  C   UNL     1       1.622   8.370  19.516  0.00  0.00    +0.000 A 
ATOM     17  C   UNL     1       1.040   8.748  20.737  0.00  0.00    +0.000 A 
ATOM     18  C   UNL     1       0.340   9.961  20.865  0.00  0.00    +0.000 A 
BRANCH  13  20
ATOM     19  C   UNL     1      -0.869  12.502  18.493  0.00  0.00    +0.000 C 
ATOM     20  O   UNL     1      -0.447  12.008  19.760  0.00  0.00    +0.000 OA
ENDBRANCH  13  20
ENDBRANCH   1  16
BRANCH   3  21
ATOM     21  C   UNL     1       3.345   3.814  19.814  0.00  0.00    +0.000 C 
ATOM     22  N   UNL     1       3.513   2.696  20.104  0.00  0.00    +0.000 NA
ENDBRANCH   3  21
TORSDOF 4
ENDMDL
MODEL 7
REMARK VINA RESULT:      -6.7      2.019      2.888
REMARK  Name = 
REMARK  6 active torsions:
REMARK  status: ('A' for Active; 'I' for Inactive)
REMARK    1  A    between atoms: C_1  and  O_2
REMARK    2  A    between atoms: O_2  and  C_3
REMARK    3  A    between atoms: C_6  and  C_7
REMARK    4  A    between atoms: C_9  and  C_10
REMARK    5  A    between atoms: C_12  and  N_13
REMARK    6  A    between atoms: C_16  and  C_17
REMARK                            x       y       z     vdW  Elec       q    Type
REMARK                         _______ _______ _______ _____ _____    ______ ____
ROOT
ATOM      1  C   UNL     1       1.688   7.377  20.494  0.00  0.00    +0.000 A 
ATOM      2  N   UNL     1       1.608   6.186  21.054  0.00  0.00    +0.000 NA
ATOM      3  C   UNL     1       2.346   5.385  20.206  0.00  0.00    +0.000 A 
ATOM      4  C   UNL     1       2.859   6.124  19.153  0.00  0.00    +0.000 A 
ATOM      5  O   UNL     1       2.468   7.418  19.367  0.00  0.00    +0.000 OA
ENDROOT
BRANCH   4   6
ATOM      6  N   UNL     1       3.594   5.863  18.042  0.00  0.00    +0.000 N 
ATOM      7  C   UNL     1       3.386   4.625  17.292  0.00  0.00    +0.000 C 
ATOM      8  C   UNL     1       4.738   4.098  16.823  0.00  0.00    +0.000 C 
ATOM      9  C   UNL     1       5.524   5.160  16.037  0.00  0.00    +0.000 C 
ATOM     10  C   UNL     1       6.937   4.658  15.740  0.00  0.00    +0.000 C 
ATOM     11  C   UNL     1       5.575   6.495  16.802  0.00  0.00    +0.000 C 
ATOM     12  C   UNL     1       4.182   6.945  17.250  0.00  0.00    +0.000 C 
ENDBRANCH   4   6
BRANCH   1  16
ATOM     13  C   UNL     1      -0.381  10.976  21.589  0.00  0.00    +0.000 A 
ATOM     14  C   UNL     1      -0.054  10.016  22.548  0.00  0.00    +0.000 A 
ATOM     15  C   UNL     1       0.643   8.854  22.193  0.00  0.00    +0.000 A 
ATOM     16  C   UNL     1       1.010   8.620  20.861  0.00  0.00    +0.000 A 
ATOM     17  C   UNL     1       0.668   9.588  19.902  0.00  0.00    +0.000 A 
ATOM     18  C   UNL     1      -0.030  10.754  20.261  0.00  0.00    +0.000 A 
BRANCH  13  20
ATOM     19  C   UNL     1      -2.055  11.808  23.057  0.00  0.00    +0.000 C 
ATOM     20  O   UNL     1      -1.064  12.060  22.065  0.00  0.00    +0.000 OA
ENDBRANCH  13  20
ENDBRANCH   1  16
BRANCH   3  21
ATOM     21  C   UNL     1       2.492   3.990  20.449  0.00  0.00    +0.000 C 
ATOM     22  N   UNL     1       2.662   2.849  20.624  0.00  0.00    +0.000 NA
ENDBRANCH   3  21
TORSDOF 4
ENDMDL
MODEL 8
REMARK VINA RESULT:      -6.6      2.462      7.623
REMARK  Name = 
REMARK  6 active torsions:
REMARK  status: ('A' for Active; 'I' for Inactive)
REMARK    1  A    between atoms: C_1  and  O_2
REMARK    2  A    between atoms: O_2  and  C_3
REMARK    3  A    between atoms: C_6  and  C_7
REMARK    4  A    between atoms: C_9  and  C_10
REMARK    5  A    between atoms: C_12  and  N_13
REMARK    6  A    between atoms: C_16  and  C_17
REMARK                            x       y       z     vdW  Elec       q    Type
REMARK                         _______ _______ _______ _____ _____    ______ ____
ROOT
ATOM      1  C   UNL     1       2.555   7.162  18.751  0.00  0.00    +0.000 A 
ATOM      2  N   UNL     1       2.240   7.123  20.031  0.00  0.00    +0.000 NA
ATOM      3  C   UNL     1       1.585   8.320  20.235  0.00  0.00    +0.000 A 
ATOM      4  C   UNL     1       1.517   9.051  19.061  0.00  0.00    +0.000 A 
ATOM      5  O   UNL     1       2.106   8.280  18.096  0.00  0.00    +0.000 OA
ENDROOT
BRANCH   4   6
ATOM      6  N   UNL     1       1.043  10.269  18.693  0.00  0.00    +0.000 N 
ATOM      7  C   UNL     1       1.951  11.290  18.173  0.00  0.00    +0.000 C 
ATOM      8  C   UNL     1       1.533  12.649  18.722  0.00  0.00    +0.000 C 
ATOM      9  C   UNL     1       0.053  12.951  18.436  0.00  0.00    +0.000 C 
ATOM     10  C   UNL     1      -0.372  14.233  19.151  0.00  0.00    +0.000 C 
ATOM     11  C   UNL     1      -0.847  11.775  18.857  0.00  0.00    +0.000 C 
ATOM     12  C   UNL     1      -0.350  10.447  18.278  0.00  0.00    +0.000 C 
ENDBRANCH   4   6
BRANCH   1  16
ATOM     13  C   UNL     1       4.900   4.466  16.373  0.00  0.00    +0.000 A 
ATOM     14  C   UNL     1       5.209   5.826  16.430  0.00  0.00    +0.000 A 
ATOM     15  C   UNL     1       4.458   6.700  17.227  0.00  0.00    +0.000 A 
ATOM     16  C   UNL     1       3.366   6.230  17.968  0.00  0.00    +0.000 A 
ATOM     17  C   UNL     1       3.058   4.862  17.896  0.00  0.00    +0.000 A 
ATOM     18  C   UNL     1       3.814   3.986  17.098  0.00  0.00    +0.000 A 
BRANCH  13  20
ATOM     19  C   UNL     1       6.425   4.432  14.550  0.00  0.00    +0.000 C 
ATOM     20  O   UNL     1       5.708   3.724  15.557  0.00  0.00    +0.000 OA
ENDBRANCH  13  20
ENDBRANCH   1  16
BRANCH   3  21
ATOM     21  C   UNL     1       1.092   8.683  21.521  0.00  0.00    +0.000 C 
ATOM     22  N   UNL     1       0.663   9.023  22.552  0.00  0.00    +0.000 NA
ENDBRANCH   3  21
TORSDOF 4
ENDMDL
MODEL 9
REMARK VINA RESULT:      -6.6      1.920      2.528
REMARK  Name = 
REMARK  6 active torsions:
REMARK  status: ('A' for Active; 'I' for Inactive)
REMARK    1  A    between atoms: C_1  and  O_2
REMARK    2  A    between atoms: O_2  and  C_3
REMARK    3  A    between atoms: C_6  and  C_7
REMARK    4  A    between atoms: C_9  and  C_10
REMARK    5  A    between atoms: C_12  and  N_13
REMARK    6  A    between atoms: C_16  and  C_17
REMARK                            x       y       z     vdW  Elec       q    Type
REMARK                         _______ _______ _______ _____ _____    ______ ____
ROOT
ATOM      1  C   UNL     1       1.814   7.264  20.386  0.00  0.00    +0.000 A 
ATOM      2  N   UNL     1       1.771   6.076  20.956  0.00  0.00    +0.000 NA
ATOM      3  C   UNL     1       2.500   5.282  20.093  0.00  0.00    +0.000 A 
ATOM      4  C   UNL     1       2.971   6.022  19.022  0.00  0.00    +0.000 A 
ATOM      5  O   UNL     1       2.562   7.311  19.238  0.00  0.00    +0.000 OA
ENDROOT
BRANCH   4   6
ATOM      6  N   UNL     1       3.680   5.767  17.893  0.00  0.00    +0.000 N 
ATOM      7  C   UNL     1       3.470   4.524  17.153  0.00  0.00    +0.000 C 
ATOM      8  C   UNL     1       4.816   4.013  16.651  0.00  0.00    +0.000 C 
ATOM      9  C   UNL     1       5.567   5.082  15.841  0.00  0.00    +0.000 C 
ATOM     10  C   UNL     1       6.978   4.597  15.509  0.00  0.00    +0.000 C 
ATOM     11  C   UNL     1       5.621   6.421  16.600  0.00  0.00    +0.000 C 
ATOM     12  C   UNL     1       4.233   6.854  17.083  0.00  0.00    +0.000 C 
ENDBRANCH   4   6
BRANCH   1  16
ATOM     13  C   UNL     1      -0.130  10.932  21.482  0.00  0.00    +0.000 A 
ATOM     14  C   UNL     1       0.268  10.696  20.165  0.00  0.00    +0.000 A 
ATOM     15  C   UNL     1       0.879   9.489  19.804  0.00  0.00    +0.000 A 
ATOM     16  C   UNL     1       1.123   8.497  20.763  0.00  0.00    +0.000 A 
ATOM     17  C   UNL     1       0.728   8.747  22.087  0.00  0.00    +0.000 A 
ATOM     18  C   UNL     1       0.112   9.959  22.447  0.00  0.00    +0.000 A 
BRANCH  13  20
ATOM     19  C   UNL     1      -1.410  12.313  22.932  0.00  0.00    +0.000 C 
ATOM     20  O   UNL     1      -0.711  12.149  21.701  0.00  0.00    +0.000 OA
ENDBRANCH  13  20
ENDBRANCH   1  16
BRANCH   3  21
ATOM     21  C   UNL     1       2.678   3.892  20.341  0.00  0.00    +0.000 C 
ATOM     22  N   UNL     1       2.782   2.754  20.579  0.00  0.00    +0.000 NA
ENDBRANCH   3  21
TORSDOF 4
ENDMDL
