MODEL 1
REMARK VINA RESULT:      -3.8      0.000      0.000
REMARK  Name = 
REMARK  1 active torsions:
REMARK  status: ('A' for Active; 'I' for Inactive)
REMARK    1  A    between atoms: N_4  and  O_5
REMARK                            x       y       z     vdW  Elec       q    Type
REMARK                         _______ _______ _______ _____ _____    ______ ____
ROOT
ATOM      1  N   UNL     1       9.041   4.777  27.871  0.00  0.00    +0.000 N 
ATOM      2  C   UNL     1       7.721   4.648  27.606  0.00  0.00    +0.000 C 
ATOM      3  O   UNL     1       7.253   3.636  27.096  0.00  0.00    +0.000 OA
ATOM      4  N   UNL     1       6.969   5.727  27.952  0.00  0.00    +0.000 N 
ATOM      5  H   UNL     1       9.644   4.000  27.634  0.00  0.00    +0.000 HD
ATOM      6  H   UNL     1       9.444   5.600  28.291  0.00  0.00    +0.000 HD
ATOM      7  H   UNL     1       7.324   6.574  28.372  0.00  0.00    +0.000 HD
ENDROOT
BRANCH   4   8
ATOM      8  O   UNL     1       5.583   5.654  27.701  0.00  0.00    +0.000 OA
ATOM      9  H   UNL     1       5.269   5.098  28.448  0.00  0.00    +0.000 HD
ENDBRANCH   4   8
TORSDOF 1
ENDMDL
MODEL 2
REMARK VINA RESULT:      -3.7      1.254      1.382
REMARK  Name = 
REMARK  1 active torsions:
REMARK  status: ('A' for Active; 'I' for Inactive)
REMARK    1  A    between atoms: N_4  and  O_5
REMARK                            x       y       z     vdW  Elec       q    Type
REMARK                         _______ _______ _______ _____ _____    ______ ____
ROOT
ATOM      1  N   UNL     1       7.778   5.628  28.425  0.00  0.00    +0.000 N 
ATOM      2  C   UNL     1       6.866   4.736  27.976  0.00  0.00    +0.000 C 
ATOM      3  O   UNL     1       7.181   3.765  27.297  0.00  0.00    +0.000 OA
ATOM      4  N   UNL     1       5.584   5.009  28.340  0.00  0.00    +0.000 N 
ATOM      5  H   UNL     1       8.747   5.468  28.182  0.00  0.00    +0.000 HD
ATOM      6  H   UNL     1       7.539   6.430  28.986  0.00  0.00    +0.000 HD
ATOM      7  H   UNL     1       5.293   5.799  28.897  0.00  0.00    +0.000 HD
ENDROOT
BRANCH   4   8
ATOM      8  O   UNL     1       4.585   4.115  27.902  0.00  0.00    +0.000 OA
ATOM      9  H   UNL     1       4.907   3.258  28.259  0.00  0.00    +0.000 HD
ENDBRANCH   4   8
TORSDOF 1
ENDMDL
MODEL 3
REMARK VINA RESULT:      -3.7      1.735      1.735
REMARK  Name = 
REMARK  1 active torsions:
REMARK  status: ('A' for Active; 'I' for Inactive)
REMARK    1  A    between atoms: N_4  and  O_5
REMARK                            x       y       z     vdW  Elec       q    Type
REMARK                         _______ _______ _______ _____ _____    ______ ____
ROOT
ATOM      1  N   UNL     1       8.224   4.353  27.139  0.00  0.00    +0.000 N 
ATOM      2  C   UNL     1       7.122   4.808  27.779  0.00  0.00    +0.000 C 
ATOM      3  O   UNL     1       7.098   5.894  28.347  0.00  0.00    +0.000 OA
ATOM      4  N   UNL     1       6.057   3.964  27.737  0.00  0.00    +0.000 N 
ATOM      5  H   UNL     1       9.043   4.946  27.141  0.00  0.00    +0.000 HD
ATOM      6  H   UNL     1       8.262   3.465  26.666  0.00  0.00    +0.000 HD
ATOM      7  H   UNL     1       6.045   3.064  27.279  0.00  0.00    +0.000 HD
ENDROOT
BRANCH   4   8
ATOM      8  O   UNL     1       4.876   4.381  28.386  0.00  0.00    +0.000 OA
ATOM      9  H   UNL     1       4.702   3.630  28.995  0.00  0.00    +0.000 HD
ENDBRANCH   4   8
TORSDOF 1
ENDMDL
MODEL 4
REMARK VINA RESULT:      -3.6      1.478      1.478
REMARK  Name = 
REMARK  1 active torsions:
REMARK  status: ('A' for Active; 'I' for Inactive)
REMARK    1  A    between atoms: N_4  and  O_5
REMARK                            x       y       z     vdW  Elec       q    Type
REMARK                         _______ _______ _______ _____ _____    ______ ____
ROOT
ATOM      1  N   UNL     1       9.165   4.123  27.277  0.00  0.00    +0.000 N 
ATOM      2  C   UNL     1       8.190   4.946  27.728  0.00  0.00    +0.000 C 
ATOM      3  O   UNL     1       8.368   5.717  28.664  0.00  0.00    +0.000 OA
ATOM      4  N   UNL     1       7.011   4.843  27.059  0.00  0.00    +0.000 N 
ATOM      5  H   UNL     1      10.062   4.163  27.741  0.00  0.00    +0.000 HD
ATOM      6  H   UNL     1       9.038   3.484  26.509  0.00  0.00    +0.000 HD
ATOM      7  H   UNL     1       6.833   4.218  26.286  0.00  0.00    +0.000 HD
ENDROOT
BRANCH   4   8
ATOM      8  O   UNL     1       5.954   5.676  27.482  0.00  0.00    +0.000 OA
ATOM      9  H   UNL     1       5.622   5.198  28.273  0.00  0.00    +0.000 HD
ENDBRANCH   4   8
TORSDOF 1
ENDMDL
MODEL 5
REMARK VINA RESULT:      -3.5      1.312      2.491
REMARK  Name = 
REMARK  1 active torsions:
REMARK  status: ('A' for Active; 'I' for Inactive)
REMARK    1  A    between atoms: N_4  and  O_5
REMARK                            x       y       z     vdW  Elec       q    Type
REMARK                         _______ _______ _______ _____ _____    ______ ____
ROOT
ATOM      1  N   UNL     1       6.565   5.565  27.748  0.00  0.00    +0.000 N 
ATOM      2  C   UNL     1       7.589   4.703  27.552  0.00  0.00    +0.000 C 
ATOM      3  O   UNL     1       7.446   3.646  26.948  0.00  0.00    +0.000 OA
ATOM      4  N   UNL     1       8.776   5.110  28.076  0.00  0.00    +0.000 N 
ATOM      5  H   UNL     1       5.661   5.309  27.375  0.00  0.00    +0.000 HD
ATOM      6  H   UNL     1       6.663   6.439  28.240  0.00  0.00    +0.000 HD
ATOM      7  H   UNL     1       8.925   5.973  28.579  0.00  0.00    +0.000 HD
ENDROOT
BRANCH   4   8
ATOM      8  O   UNL     1       9.884   4.254  27.905  0.00  0.00    +0.000 OA
ATOM      9  H   UNL     1       9.605   3.711  27.135  0.00  0.00    +0.000 HD
ENDBRANCH   4   8
TORSDOF 1
ENDMDL
MODEL 6
REMARK VINA RESULT:      -3.5      1.934      2.205
REMARK  Name = 
REMARK  1 active torsions:
REMARK  status: ('A' for Active; 'I' for Inactive)
REMARK    1  A    between atoms: N_4  and  O_5
REMARK                            x       y       z     vdW  Elec       q    Type
REMARK                         _______ _______ _______ _____ _____    ______ ____
ROOT
ATOM      1  N   UNL     1      10.419   3.686  27.658  0.00  0.00    +0.000 N 
ATOM      2  C   UNL     1       9.335   4.494  27.697  0.00  0.00    +0.000 C 
ATOM      3  O   UNL     1       9.298   5.504  28.391  0.00  0.00    +0.000 OA
ATOM      4  N   UNL     1       8.304   4.094  26.905  0.00  0.00    +0.000 N 
ATOM      5  H   UNL     1      11.213   3.942  28.229  0.00  0.00    +0.000 HD
ATOM      6  H   UNL     1      10.469   2.854  27.092  0.00  0.00    +0.000 HD
ATOM      7  H   UNL     1       8.304   3.269  26.322  0.00  0.00    +0.000 HD
ENDROOT
BRANCH   4   8
ATOM      8  O   UNL     1       7.145   4.896  26.901  0.00  0.00    +0.000 OA
ATOM      9  H   UNL     1       6.528   4.367  27.453  0.00  0.00    +0.000 HD
ENDBRANCH   4   8
TORSDOF 1
ENDMDL
MODEL 7
REMARK VINA RESULT:      -3.5      2.226      2.740
REMARK  Name = 
REMARK  1 active torsions:
REMARK  status: ('A' for Active; 'I' for Inactive)
REMARK    1  A    between atoms: N_4  and  O_5
REMARK                            x       y       z     vdW  Elec       q    Type
REMARK                         _______ _______ _______ _____ _____    ______ ____
ROOT
ATOM      1  N   UNL     1       5.327   6.691  28.700  0.00  0.00    +0.000 N 
ATOM      2  C   UNL     1       6.158   5.687  28.337  0.00  0.00    +0.000 C 
ATOM      3  O   UNL     1       7.373   5.837  28.270  0.00  0.00    +0.000 OA
ATOM      4  N   UNL     1       5.534   4.511  28.058  0.00  0.00    +0.000 N 
ATOM      5  H   UNL     1       5.743   7.585  28.919  0.00  0.00    +0.000 HD
ATOM      6  H   UNL     1       4.327   6.586  28.762  0.00  0.00    +0.000 HD
ATOM      7  H   UNL     1       4.537   4.356  28.103  0.00  0.00    +0.000 HD
ENDROOT
BRANCH   4   8
ATOM      8  O   UNL     1       6.347   3.424  27.674  0.00  0.00    +0.000 OA
ATOM      9  H   UNL     1       7.065   3.460  28.344  0.00  0.00    +0.000 HD
ENDBRANCH   4   8
TORSDOF 1
ENDMDL
MODEL 8
REMARK VINA RESULT:      -3.5      9.454      9.681
REMARK  Name = 
REMARK  1 active torsions:
REMARK  status: ('A' for Active; 'I' for Inactive)
REMARK    1  A    between atoms: N_4  and  O_5
REMARK                            x       y       z     vdW  Elec       q    Type
REMARK                         _______ _______ _______ _____ _____    ______ ____
ROOT
ATOM      1  N   UNL     1       7.955   5.447  19.985  0.00  0.00    +0.000 N 
ATOM      2  C   UNL     1       7.839   5.566  18.642  0.00  0.00    +0.000 C 
ATOM      3  O   UNL     1       7.646   6.647  18.097  0.00  0.00    +0.000 OA
ATOM      4  N   UNL     1       7.953   4.395  17.960  0.00  0.00    +0.000 N 
ATOM      5  H   UNL     1       7.879   6.290  20.537  0.00  0.00    +0.000 HD
ATOM      6  H   UNL     1       8.115   4.568  20.451  0.00  0.00    +0.000 HD
ATOM      7  H   UNL     1       8.112   3.490  18.380  0.00  0.00    +0.000 HD
ENDROOT
BRANCH   4   8
ATOM      8  O   UNL     1       7.842   4.453  16.555  0.00  0.00    +0.000 OA
ATOM      9  H   UNL     1       7.428   3.586  16.348  0.00  0.00    +0.000 HD
ENDBRANCH   4   8
TORSDOF 1
ENDMDL
MODEL 9
REMARK VINA RESULT:      -3.4      8.383      8.557
REMARK  Name = 
REMARK  1 active torsions:
REMARK  status: ('A' for Active; 'I' for Inactive)
REMARK    1  A    between atoms: N_4  and  O_5
REMARK                            x       y       z     vdW  Elec       q    Type
REMARK                         _______ _______ _______ _____ _____    ______ ____
ROOT
ATOM      1  N   UNL     1       7.593   5.690  17.651  0.00  0.00    +0.000 N 
ATOM      2  C   UNL     1       7.330   5.515  18.966  0.00  0.00    +0.000 C 
ATOM      3  O   UNL     1       6.186   5.424  19.397  0.00  0.00    +0.000 OA
ATOM      4  N   UNL     1       8.434   5.449  19.758  0.00  0.00    +0.000 N 
ATOM      5  H   UNL     1       6.805   5.744  17.020  0.00  0.00    +0.000 HD
ATOM      6  H   UNL     1       8.526   5.765  17.278  0.00  0.00    +0.000 HD
ATOM      7  H   UNL     1       9.388   5.520  19.434  0.00  0.00    +0.000 HD
ENDROOT
BRANCH   4   8
ATOM      8  O   UNL     1       8.226   5.266  21.141  0.00  0.00    +0.000 OA
ATOM      9  H   UNL     1       8.045   6.183  21.443  0.00  0.00    +0.000 HD
ENDBRANCH   4   8
TORSDOF 1
ENDMDL
