MODEL 1
REMARK VINA RESULT:      -8.8      0.000      0.000
REMARK  Name = 
REMARK  5 active torsions:
REMARK  status: ('A' for Active; 'I' for Inactive)
REMARK    1  A    between atoms: C_1  and  O_2
REMARK    2  A    between atoms: O_2  and  C_3
REMARK    3  A    between atoms: C_11  and  C_12
REMARK    4  A    between atoms: N_15  and  C_16
REMARK    5  A    between atoms: C_16  and  C_17
REMARK                            x       y       z     vdW  Elec       q    Type
REMARK                         _______ _______ _______ _____ _____    ______ ____
ROOT
ATOM      1  C   UNL     1       1.569   8.937  19.201  0.00  0.00    +0.000 A 
ATOM      2  C   UNL     1       2.192   9.064  17.964  0.00  0.00    +0.000 A 
ATOM      3  C   UNL     1       3.024   8.049  17.513  0.00  0.00    +0.000 A 
ATOM      4  N   UNL     1       3.241   6.945  18.265  0.00  0.00    +0.000 N 
ATOM      5  C   UNL     1       2.705   6.843  19.505  0.00  0.00    +0.000 A 
ATOM      6  C   UNL     1       1.854   7.829  19.993  0.00  0.00    +0.000 A 
ENDROOT
BRANCH   1  15
ATOM      7  C   UNL     1      -3.727  10.394  15.591  0.00  0.00    +0.000 A 
ATOM      8  C   UNL     1      -4.250  11.389  16.443  0.00  0.00    +0.000 A 
ATOM      9  C   UNL     1      -3.607  11.722  17.643  0.00  0.00    +0.000 A 
ATOM     10  C   UNL     1      -2.450  11.037  17.949  0.00  0.00    +0.000 A 
ATOM     11  C   UNL     1      -1.921  10.062  17.109  0.00  0.00    +0.000 A 
ATOM     12  C   UNL     1      -2.543   9.724  15.928  0.00  0.00    +0.000 A 
ATOM     13  O   UNL     1      -0.757   9.506  17.587  0.00  0.00    +0.000 OA
ATOM     14  C   UNL     1      -0.508  10.140  18.803  0.00  0.00    +0.000 C 
ATOM     15  C   UNL     1       0.544   9.899  19.597  0.00  0.00    +0.000 C 
ATOM     16  C   UNL     1      -1.564  11.141  19.102  0.00  0.00    +0.000 C 
ATOM     17  O   UNL     1      -1.660  11.870  20.066  0.00  0.00    +0.000 OA
BRANCH   7  19
ATOM     18  C   UNL     1      -3.413   9.912  13.280  0.00  0.00    +0.000 C 
ATOM     19  O   UNL     1      -4.280   9.990  14.406  0.00  0.00    +0.000 OA
ENDBRANCH   7  19
ENDBRANCH   1  15
BRANCH   4  20
ATOM     20  C   UNL     1       4.016   5.810  17.698  0.00  0.00    +0.000 C 
BRANCH  20  21
ATOM     21  C   UNL     1       3.270   4.518  17.876  0.00  0.00    +0.000 A 
ATOM     22  C   UNL     1       1.867   4.487  17.828  0.00  0.00    +0.000 A 
ATOM     23  C   UNL     1       1.175   3.300  18.088  0.00  0.00    +0.000 A 
ATOM     24  C   UNL     1       1.875   2.136  18.397  0.00  0.00    +0.000 A 
ATOM     25  C   UNL     1       3.262   2.156  18.410  0.00  0.00    +0.000 A 
ATOM     26  F   UNL     1       3.943   1.042  18.698  0.00  0.00    +0.000 F 
ATOM     27  C   UNL     1       3.964   3.328  18.145  0.00  0.00    +0.000 A 
ENDBRANCH  20  21
ENDBRANCH   4  20
TORSDOF 4
ENDMDL
MODEL 2
REMARK VINA RESULT:      -8.7      2.182      3.059
REMARK  Name = 
REMARK  5 active torsions:
REMARK  status: ('A' for Active; 'I' for Inactive)
REMARK    1  A    between atoms: C_1  and  O_2
REMARK    2  A    between atoms: O_2  and  C_3
REMARK    3  A    between atoms: C_11  and  C_12
REMARK    4  A    between atoms: N_15  and  C_16
REMARK    5  A    between atoms: C_16  and  C_17
REMARK                            x       y       z     vdW  Elec       q    Type
REMARK                         _______ _______ _______ _____ _____    ______ ____
ROOT
ATOM      1  C   UNL     1       1.399   9.062  19.149  0.00  0.00    +0.000 A 
ATOM      2  C   UNL     1       2.065   9.136  17.930  0.00  0.00    +0.000 A 
ATOM      3  C   UNL     1       2.886   8.087  17.539  0.00  0.00    +0.000 A 
ATOM      4  N   UNL     1       3.048   7.001  18.330  0.00  0.00    +0.000 N 
ATOM      5  C   UNL     1       2.469   6.950  19.553  0.00  0.00    +0.000 A 
ATOM      6  C   UNL     1       1.629   7.971  19.983  0.00  0.00    +0.000 A 
ENDROOT
BRANCH   1  15
ATOM      7  C   UNL     1      -3.902  10.320  15.471  0.00  0.00    +0.000 A 
ATOM      8  C   UNL     1      -4.408  11.379  16.254  0.00  0.00    +0.000 A 
ATOM      9  C   UNL     1      -3.756  11.788  17.424  0.00  0.00    +0.000 A 
ATOM     10  C   UNL     1      -2.604  11.114  17.772  0.00  0.00    +0.000 A 
ATOM     11  C   UNL     1      -2.091  10.076  17.001  0.00  0.00    +0.000 A 
ATOM     12  C   UNL     1      -2.723   9.663  15.849  0.00  0.00    +0.000 A 
ATOM     13  O   UNL     1      -0.930   9.542  17.510  0.00  0.00    +0.000 OA
ATOM     14  C   UNL     1      -0.667  10.257  18.677  0.00  0.00    +0.000 C 
ATOM     15  C   UNL     1       0.387  10.060  19.481  0.00  0.00    +0.000 C 
ATOM     16  C   UNL     1      -1.711  11.288  18.911  0.00  0.00    +0.000 C 
ATOM     17  O   UNL     1      -1.794  12.085  19.821  0.00  0.00    +0.000 OA
BRANCH   7  19
ATOM     18  C   UNL     1      -3.716   9.993  13.120  0.00  0.00    +0.000 C 
ATOM     19  O   UNL     1      -4.466   9.841  14.320  0.00  0.00    +0.000 OA
ENDBRANCH   7  19
ENDBRANCH   1  15
BRANCH   4  20
ATOM     20  C   UNL     1       3.812   5.831  17.823  0.00  0.00    +0.000 C 
BRANCH  20  21
ATOM     21  C   UNL     1       5.278   5.989  18.115  0.00  0.00    +0.000 A 
ATOM     22  C   UNL     1       5.872   5.314  19.194  0.00  0.00    +0.000 A 
ATOM     23  C   UNL     1       7.214   5.538  19.518  0.00  0.00    +0.000 A 
ATOM     24  C   UNL     1       7.973   6.435  18.771  0.00  0.00    +0.000 A 
ATOM     25  C   UNL     1       7.398   7.076  17.684  0.00  0.00    +0.000 A 
ATOM     26  F   UNL     1       8.122   7.933  16.956  0.00  0.00    +0.000 F 
ATOM     27  C   UNL     1       6.067   6.856  17.344  0.00  0.00    +0.000 A 
ENDBRANCH  20  21
ENDBRANCH   4  20
TORSDOF 4
ENDMDL
MODEL 3
REMARK VINA RESULT:      -8.6      3.888      5.355
REMARK  Name = 
REMARK  5 active torsions:
REMARK  status: ('A' for Active; 'I' for Inactive)
REMARK    1  A    between atoms: C_1  and  O_2
REMARK    2  A    between atoms: O_2  and  C_3
REMARK    3  A    between atoms: C_11  and  C_12
REMARK    4  A    between atoms: N_15  and  C_16
REMARK    5  A    between atoms: C_16  and  C_17
REMARK                            x       y       z     vdW  Elec       q    Type
REMARK                         _______ _______ _______ _____ _____    ______ ____
ROOT
ATOM      1  C   UNL     1       0.798   9.865  19.052  0.00  0.00    +0.000 A 
ATOM      2  C   UNL     1       0.910   9.191  20.263  0.00  0.00    +0.000 A 
ATOM      3  C   UNL     1       1.669   8.031  20.329  0.00  0.00    +0.000 A 
ATOM      4  N   UNL     1       2.292   7.546  19.229  0.00  0.00    +0.000 N 
ATOM      5  C   UNL     1       2.127   8.148  18.027  0.00  0.00    +0.000 A 
ATOM      6  C   UNL     1       1.387   9.319  17.915  0.00  0.00    +0.000 A 
ENDROOT
BRANCH   1  15
ATOM      7  C   UNL     1       4.093  15.508  18.343  0.00  0.00    +0.000 A 
ATOM      8  C   UNL     1       2.984  16.372  18.456  0.00  0.00    +0.000 A 
ATOM      9  C   UNL     1       1.690  15.866  18.636  0.00  0.00    +0.000 A 
ATOM     10  C   UNL     1       1.553  14.495  18.699  0.00  0.00    +0.000 A 
ATOM     11  C   UNL     1       2.643  13.635  18.601  0.00  0.00    +0.000 A 
ATOM     12  C   UNL     1       3.920  14.120  18.422  0.00  0.00    +0.000 A 
ATOM     13  O   UNL     1       2.298  12.308  18.699  0.00  0.00    +0.000 OA
ATOM     14  C   UNL     1       0.915  12.288  18.865  0.00  0.00    +0.000 C 
ATOM     15  C   UNL     1       0.171  11.183  19.013  0.00  0.00    +0.000 C 
ATOM     16  C   UNL     1       0.365  13.668  18.871  0.00  0.00    +0.000 C 
ATOM     17  O   UNL     1      -0.789  14.020  18.997  0.00  0.00    +0.000 OA
BRANCH   7  19
ATOM     18  C   UNL     1       6.407  14.987  18.559  0.00  0.00    +0.000 C 
ATOM     19  O   UNL     1       5.392  15.900  18.158  0.00  0.00    +0.000 OA
ENDBRANCH   7  19
ENDBRANCH   1  15
BRANCH   4  20
ATOM     20  C   UNL     1       3.215   6.388  19.358  0.00  0.00    +0.000 C 
BRANCH  20  21
ATOM     21  C   UNL     1       2.444   5.099  19.397  0.00  0.00    +0.000 A 
ATOM     22  C   UNL     1       1.974   4.508  18.213  0.00  0.00    +0.000 A 
ATOM     23  C   UNL     1       1.178   3.359  18.262  0.00  0.00    +0.000 A 
ATOM     24  C   UNL     1       0.843   2.792  19.489  0.00  0.00    +0.000 A 
ATOM     25  C   UNL     1       1.335   3.354  20.658  0.00  0.00    +0.000 A 
ATOM     26  F   UNL     1       1.026   2.812  21.840  0.00  0.00    +0.000 F 
ATOM     27  C   UNL     1       2.136   4.492  20.624  0.00  0.00    +0.000 A 
ENDBRANCH  20  21
ENDBRANCH   4  20
TORSDOF 4
ENDMDL
MODEL 4
REMARK VINA RESULT:      -8.5      2.250      3.421
REMARK  Name = 
REMARK  5 active torsions:
REMARK  status: ('A' for Active; 'I' for Inactive)
REMARK    1  A    between atoms: C_1  and  O_2
REMARK    2  A    between atoms: O_2  and  C_3
REMARK    3  A    between atoms: C_11  and  C_12
REMARK    4  A    between atoms: N_15  and  C_16
REMARK    5  A    between atoms: C_16  and  C_17
REMARK                            x       y       z     vdW  Elec       q    Type
REMARK                         _______ _______ _______ _____ _____    ______ ____
ROOT
ATOM      1  C   UNL     1       1.955   7.257  19.934  0.00  0.00    +0.000 A 
ATOM      2  C   UNL     1       1.762   6.009  20.517  0.00  0.00    +0.000 A 
ATOM      3  C   UNL     1       2.212   4.873  19.858  0.00  0.00    +0.000 A 
ATOM      4  N   UNL     1       2.828   4.967  18.656  0.00  0.00    +0.000 N 
ATOM      5  C   UNL     1       2.952   6.167  18.041  0.00  0.00    +0.000 A 
ATOM      6  C   UNL     1       2.528   7.333  18.668  0.00  0.00    +0.000 A 
ENDROOT
BRANCH   1  15
ATOM      7  C   UNL     1      -2.718  11.606  18.365  0.00  0.00    +0.000 A 
ATOM      8  C   UNL     1      -2.450  12.528  19.398  0.00  0.00    +0.000 A 
ATOM      9  C   UNL     1      -1.438  12.288  20.336  0.00  0.00    +0.000 A 
ATOM     10  C   UNL     1      -0.720  11.117  20.203  0.00  0.00    +0.000 A 
ATOM     11  C   UNL     1      -0.969  10.207  19.180  0.00  0.00    +0.000 A 
ATOM     12  C   UNL     1      -1.963  10.430  18.253  0.00  0.00    +0.000 A 
ATOM     13  O   UNL     1      -0.139   9.111  19.214  0.00  0.00    +0.000 OA
ATOM     14  C   UNL     1       0.694   9.303  20.314  0.00  0.00    +0.000 C 
ATOM     15  C   UNL     1       1.666   8.465  20.702  0.00  0.00    +0.000 C 
ATOM     16  C   UNL     1       0.373  10.579  21.003  0.00  0.00    +0.000 C 
ATOM     17  O   UNL     1       0.897  11.059  21.985  0.00  0.00    +0.000 OA
BRANCH   7  19
ATOM     18  C   UNL     1      -3.536  10.970  16.221  0.00  0.00    +0.000 C 
ATOM     19  O   UNL     1      -3.686  11.742  17.407  0.00  0.00    +0.000 OA
ENDBRANCH   7  19
ENDBRANCH   1  15
BRANCH   4  20
ATOM     20  C   UNL     1       3.430   3.754  18.043  0.00  0.00    +0.000 C 
BRANCH  20  21
ATOM     21  C   UNL     1       4.832   4.034  17.583  0.00  0.00    +0.000 A 
ATOM     22  C   UNL     1       5.803   4.502  18.483  0.00  0.00    +0.000 A 
ATOM     23  C   UNL     1       7.080   4.851  18.032  0.00  0.00    +0.000 A 
ATOM     24  C   UNL     1       7.399   4.736  16.681  0.00  0.00    +0.000 A 
ATOM     25  C   UNL     1       6.453   4.240  15.796  0.00  0.00    +0.000 A 
ATOM     26  F   UNL     1       6.754   4.118  14.498  0.00  0.00    +0.000 F 
ATOM     27  C   UNL     1       5.182   3.881  16.232  0.00  0.00    +0.000 A 
ENDBRANCH  20  21
ENDBRANCH   4  20
TORSDOF 4
ENDMDL
MODEL 5
REMARK VINA RESULT:      -8.5      2.275      3.468
REMARK  Name = 
REMARK  5 active torsions:
REMARK  status: ('A' for Active; 'I' for Inactive)
REMARK    1  A    between atoms: C_1  and  O_2
REMARK    2  A    between atoms: O_2  and  C_3
REMARK    3  A    between atoms: C_11  and  C_12
REMARK    4  A    between atoms: N_15  and  C_16
REMARK    5  A    between atoms: C_16  and  C_17
REMARK                            x       y       z     vdW  Elec       q    Type
REMARK                         _______ _______ _______ _____ _____    ______ ____
ROOT
ATOM      1  C   UNL     1       1.926   7.249  20.020  0.00  0.00    +0.000 A 
ATOM      2  C   UNL     1       1.784   5.992  20.599  0.00  0.00    +0.000 A 
ATOM      3  C   UNL     1       2.264   4.876  19.928  0.00  0.00    +0.000 A 
ATOM      4  N   UNL     1       2.859   4.996  18.719  0.00  0.00    +0.000 N 
ATOM      5  C   UNL     1       2.933   6.202  18.107  0.00  0.00    +0.000 A 
ATOM      6  C   UNL     1       2.477   7.350  18.746  0.00  0.00    +0.000 A 
ENDROOT
BRANCH   1  15
ATOM      7  C   UNL     1      -2.719  11.599  18.373  0.00  0.00    +0.000 A 
ATOM      8  C   UNL     1      -2.489  12.506  19.429  0.00  0.00    +0.000 A 
ATOM      9  C   UNL     1      -1.505  12.256  20.395  0.00  0.00    +0.000 A 
ATOM     10  C   UNL     1      -0.778  11.091  20.265  0.00  0.00    +0.000 A 
ATOM     11  C   UNL     1      -0.990  10.196  19.221  0.00  0.00    +0.000 A 
ATOM     12  C   UNL     1      -1.954  10.429  18.266  0.00  0.00    +0.000 A 
ATOM     13  O   UNL     1      -0.155   9.104  19.263  0.00  0.00    +0.000 OA
ATOM     14  C   UNL     1       0.643   9.282  20.392  0.00  0.00    +0.000 C 
ATOM     15  C   UNL     1       1.606   8.443  20.797  0.00  0.00    +0.000 C 
ATOM     16  C   UNL     1       0.293  10.546  21.091  0.00  0.00    +0.000 C 
ATOM     17  O   UNL     1       0.783  11.012  22.097  0.00  0.00    +0.000 OA
BRANCH   7  19
ATOM     18  C   UNL     1      -5.001  11.412  17.718  0.00  0.00    +0.000 C 
ATOM     19  O   UNL     1      -3.657  11.746  17.388  0.00  0.00    +0.000 OA
ENDBRANCH   7  19
ENDBRANCH   1  15
BRANCH   4  20
ATOM     20  C   UNL     1       3.494   3.807  18.091  0.00  0.00    +0.000 C 
BRANCH  20  21
ATOM     21  C   UNL     1       4.825   4.171  17.496  0.00  0.00    +0.000 A 
ATOM     22  C   UNL     1       5.022   4.140  16.106  0.00  0.00    +0.000 A 
ATOM     23  C   UNL     1       6.287   4.387  15.563  0.00  0.00    +0.000 A 
ATOM     24  C   UNL     1       7.364   4.668  16.401  0.00  0.00    +0.000 A 
ATOM     25  C   UNL     1       7.163   4.734  17.772  0.00  0.00    +0.000 A 
ATOM     26  F   UNL     1       8.190   5.011  18.583  0.00  0.00    +0.000 F 
ATOM     27  C   UNL     1       5.908   4.499  18.325  0.00  0.00    +0.000 A 
ENDBRANCH  20  21
ENDBRANCH   4  20
TORSDOF 4
ENDMDL
MODEL 6
REMARK VINA RESULT:      -8.4      3.827      5.299
REMARK  Name = 
REMARK  5 active torsions:
REMARK  status: ('A' for Active; 'I' for Inactive)
REMARK    1  A    between atoms: C_1  and  O_2
REMARK    2  A    between atoms: O_2  and  C_3
REMARK    3  A    between atoms: C_11  and  C_12
REMARK    4  A    between atoms: N_15  and  C_16
REMARK    5  A    between atoms: C_16  and  C_17
REMARK                            x       y       z     vdW  Elec       q    Type
REMARK                         _______ _______ _______ _____ _____    ______ ____
ROOT
ATOM      1  C   UNL     1       0.830   9.866  19.002  0.00  0.00    +0.000 A 
ATOM      2  C   UNL     1       0.952   9.253  20.245  0.00  0.00    +0.000 A 
ATOM      3  C   UNL     1       1.688   8.081  20.357  0.00  0.00    +0.000 A 
ATOM      4  N   UNL     1       2.279   7.527  19.273  0.00  0.00    +0.000 N 
ATOM      5  C   UNL     1       2.103   8.069  18.043  0.00  0.00    +0.000 A 
ATOM      6  C   UNL     1       1.385   9.249  17.885  0.00  0.00    +0.000 A 
ENDROOT
BRANCH   1  15
ATOM      7  C   UNL     1       4.260  15.436  18.359  0.00  0.00    +0.000 A 
ATOM      8  C   UNL     1       3.162  16.321  18.398  0.00  0.00    +0.000 A 
ATOM      9  C   UNL     1       1.851  15.841  18.521  0.00  0.00    +0.000 A 
ATOM     10  C   UNL     1       1.686  14.474  18.603  0.00  0.00    +0.000 A 
ATOM     11  C   UNL     1       2.764  13.594  18.576  0.00  0.00    +0.000 A 
ATOM     12  C   UNL     1       4.057  14.053  18.454  0.00  0.00    +0.000 A 
ATOM     13  O   UNL     1       2.391  12.275  18.682  0.00  0.00    +0.000 OA
ATOM     14  C   UNL     1       1.000  12.282  18.776  0.00  0.00    +0.000 C 
ATOM     15  C   UNL     1       0.230  11.194  18.907  0.00  0.00    +0.000 C 
ATOM     16  C   UNL     1       0.476  13.671  18.729  0.00  0.00    +0.000 C 
ATOM     17  O   UNL     1      -0.676  14.045  18.789  0.00  0.00    +0.000 OA
BRANCH   7  19
ATOM     18  C   UNL     1       6.487  14.795  17.814  0.00  0.00    +0.000 C 
ATOM     19  O   UNL     1       5.573  15.802  18.233  0.00  0.00    +0.000 OA
ENDBRANCH   7  19
ENDBRANCH   1  15
BRANCH   4  20
ATOM     20  C   UNL     1       3.180   6.357  19.444  0.00  0.00    +0.000 C 
BRANCH  20  21
ATOM     21  C   UNL     1       2.409   5.074  19.319  0.00  0.00    +0.000 A 
ATOM     22  C   UNL     1       1.491   4.688  20.309  0.00  0.00    +0.000 A 
ATOM     23  C   UNL     1       0.847   3.449  20.234  0.00  0.00    +0.000 A 
ATOM     24  C   UNL     1       1.111   2.586  19.174  0.00  0.00    +0.000 A 
ATOM     25  C   UNL     1       1.992   2.980  18.176  0.00  0.00    +0.000 A 
ATOM     26  F   UNL     1       2.246   2.161  17.150  0.00  0.00    +0.000 F 
ATOM     27  C   UNL     1       2.633   4.214  18.233  0.00  0.00    +0.000 A 
ENDBRANCH  20  21
ENDBRANCH   4  20
TORSDOF 4
ENDMDL
MODEL 7
REMARK VINA RESULT:      -8.4      3.395      4.684
REMARK  Name = 
REMARK  5 active torsions:
REMARK  status: ('A' for Active; 'I' for Inactive)
REMARK    1  A    between atoms: C_1  and  O_2
REMARK    2  A    between atoms: O_2  and  C_3
REMARK    3  A    between atoms: C_11  and  C_12
REMARK    4  A    between atoms: N_15  and  C_16
REMARK    5  A    between atoms: C_16  and  C_17
REMARK                            x       y       z     vdW  Elec       q    Type
REMARK                         _______ _______ _______ _____ _____    ______ ____
ROOT
ATOM      1  C   UNL     1       1.018   9.343  19.013  0.00  0.00    +0.000 A 
ATOM      2  C   UNL     1       1.781   8.958  17.916  0.00  0.00    +0.000 A 
ATOM      3  C   UNL     1       2.618   7.856  18.021  0.00  0.00    +0.000 A 
ATOM      4  N   UNL     1       2.706   7.160  19.179  0.00  0.00    +0.000 N 
ATOM      5  C   UNL     1       2.030   7.570  20.279  0.00  0.00    +0.000 A 
ATOM      6  C   UNL     1       1.169   8.661  20.217  0.00  0.00    +0.000 A 
ENDROOT
BRANCH   1  15
ATOM      7  C   UNL     1       2.258  15.794  18.782  0.00  0.00    +0.000 A 
ATOM      8  C   UNL     1       0.917  16.226  18.702  0.00  0.00    +0.000 A 
ATOM      9  C   UNL     1      -0.138  15.304  18.676  0.00  0.00    +0.000 A 
ATOM     10  C   UNL     1       0.193  13.966  18.732  0.00  0.00    +0.000 A 
ATOM     11  C   UNL     1       1.512  13.531  18.822  0.00  0.00    +0.000 A 
ATOM     12  C   UNL     1       2.558  14.427  18.847  0.00  0.00    +0.000 A 
ATOM     13  O   UNL     1       1.631  12.163  18.880  0.00  0.00    +0.000 OA
ATOM     14  C   UNL     1       0.329  11.668  18.819  0.00  0.00    +0.000 C 
ATOM     15  C   UNL     1      -0.006  10.372  18.857  0.00  0.00    +0.000 C 
ATOM     16  C   UNL     1      -0.653  12.779  18.719  0.00  0.00    +0.000 C 
ATOM     17  O   UNL     1      -1.861  12.713  18.652  0.00  0.00    +0.000 OA
BRANCH   7  19
ATOM     18  C   UNL     1       4.597  16.015  19.167  0.00  0.00    +0.000 C 
ATOM     19  O   UNL     1       3.356  16.610  18.805  0.00  0.00    +0.000 OA
ENDBRANCH   7  19
ENDBRANCH   1  15
BRANCH   4  20
ATOM     20  C   UNL     1       3.495   5.901  19.221  0.00  0.00    +0.000 C 
BRANCH  20  21
ATOM     21  C   UNL     1       2.586   4.711  19.337  0.00  0.00    +0.000 A 
ATOM     22  C   UNL     1       1.971   4.163  18.200  0.00  0.00    +0.000 A 
ATOM     23  C   UNL     1       1.053   3.116  18.324  0.00  0.00    +0.000 A 
ATOM     24  C   UNL     1       0.742   2.605  19.582  0.00  0.00    +0.000 A 
ATOM     25  C   UNL     1       1.375   3.120  20.704  0.00  0.00    +0.000 A 
ATOM     26  F   UNL     1       1.089   2.630  21.915  0.00  0.00    +0.000 F 
ATOM     27  C   UNL     1       2.297   4.157  20.594  0.00  0.00    +0.000 A 
ENDBRANCH  20  21
ENDBRANCH   4  20
TORSDOF 4
ENDMDL
MODEL 8
REMARK VINA RESULT:      -8.4      3.570      4.795
REMARK  Name = 
REMARK  5 active torsions:
REMARK  status: ('A' for Active; 'I' for Inactive)
REMARK    1  A    between atoms: C_1  and  O_2
REMARK    2  A    between atoms: O_2  and  C_3
REMARK    3  A    between atoms: C_11  and  C_12
REMARK    4  A    between atoms: N_15  and  C_16
REMARK    5  A    between atoms: C_16  and  C_17
REMARK                            x       y       z     vdW  Elec       q    Type
REMARK                         _______ _______ _______ _____ _____    ______ ____
ROOT
ATOM      1  C   UNL     1       0.864   9.670  19.234  0.00  0.00    +0.000 A 
ATOM      2  C   UNL     1       1.444   9.345  18.012  0.00  0.00    +0.000 A 
ATOM      3  C   UNL     1       2.238   8.211  17.916  0.00  0.00    +0.000 A 
ATOM      4  N   UNL     1       2.459   7.425  18.996  0.00  0.00    +0.000 N 
ATOM      5  C   UNL     1       1.966   7.772  20.209  0.00  0.00    +0.000 A 
ATOM      6  C   UNL     1       1.154   8.893  20.351  0.00  0.00    +0.000 A 
ENDROOT
BRANCH   1  15
ATOM      7  C   UNL     1       2.245  16.040  18.385  0.00  0.00    +0.000 A 
ATOM      8  C   UNL     1       0.948  16.534  18.637  0.00  0.00    +0.000 A 
ATOM      9  C   UNL     1      -0.111  15.665  18.930  0.00  0.00    +0.000 A 
ATOM     10  C   UNL     1       0.172  14.315  18.961  0.00  0.00    +0.000 A 
ATOM     11  C   UNL     1       1.450  13.820  18.725  0.00  0.00    +0.000 A 
ATOM     12  C   UNL     1       2.500  14.663  18.434  0.00  0.00    +0.000 A 
ATOM     13  O   UNL     1       1.527  12.450  18.813  0.00  0.00    +0.000 OA
ATOM     14  C   UNL     1       0.237  12.018  19.116  0.00  0.00    +0.000 C 
ATOM     15  C   UNL     1      -0.126  10.742  19.302  0.00  0.00    +0.000 C 
ATOM     16  C   UNL     1      -0.693  13.171  19.224  0.00  0.00    +0.000 C 
ATOM     17  O   UNL     1      -1.879  13.163  19.476  0.00  0.00    +0.000 OA
BRANCH   7  19
ATOM     18  C   UNL     1       4.490  16.638  18.908  0.00  0.00    +0.000 C 
ATOM     19  O   UNL     1       3.342  16.802  18.083  0.00  0.00    +0.000 OA
ENDBRANCH   7  19
ENDBRANCH   1  15
BRANCH   4  20
ATOM     20  C   UNL     1       3.189   6.141  18.834  0.00  0.00    +0.000 C 
BRANCH  20  21
ATOM     21  C   UNL     1       2.433   5.016  19.484  0.00  0.00    +0.000 A 
ATOM     22  C   UNL     1       2.587   4.745  20.853  0.00  0.00    +0.000 A 
ATOM     23  C   UNL     1       1.955   3.641  21.433  0.00  0.00    +0.000 A 
ATOM     24  C   UNL     1       1.164   2.799  20.654  0.00  0.00    +0.000 A 
ATOM     25  C   UNL     1       0.982   3.086  19.308  0.00  0.00    +0.000 A 
ATOM     26  F   UNL     1       0.219   2.288  18.554  0.00  0.00    +0.000 F 
ATOM     27  C   UNL     1       1.598   4.186  18.720  0.00  0.00    +0.000 A 
ENDBRANCH  20  21
ENDBRANCH   4  20
TORSDOF 4
ENDMDL
MODEL 9
REMARK VINA RESULT:      -8.3      2.201      3.079
REMARK  Name = 
REMARK  5 active torsions:
REMARK  status: ('A' for Active; 'I' for Inactive)
REMARK    1  A    between atoms: C_1  and  O_2
REMARK    2  A    between atoms: O_2  and  C_3
REMARK    3  A    between atoms: C_11  and  C_12
REMARK    4  A    between atoms: N_15  and  C_16
REMARK    5  A    between atoms: C_16  and  C_17
REMARK                            x       y       z     vdW  Elec       q    Type
REMARK                         _______ _______ _______ _____ _____    ______ ____
ROOT
ATOM      1  C   UNL     1       2.026   7.584  20.110  0.00  0.00    +0.000 A 
ATOM      2  C   UNL     1       2.612   7.841  18.875  0.00  0.00    +0.000 A 
ATOM      3  C   UNL     1       3.007   6.777  18.075  0.00  0.00    +0.000 A 
ATOM      4  N   UNL     1       2.835   5.499  18.485  0.00  0.00    +0.000 N 
ATOM      5  C   UNL     1       2.339   5.235  19.717  0.00  0.00    +0.000 A 
ATOM      6  C   UNL     1       1.918   6.267  20.549  0.00  0.00    +0.000 A 
ENDROOT
BRANCH   1  15
ATOM      7  C   UNL     1      -2.771  11.469  17.852  0.00  0.00    +0.000 A 
ATOM      8  C   UNL     1      -2.843  12.325  18.972  0.00  0.00    +0.000 A 
ATOM      9  C   UNL     1      -2.017  12.126  20.086  0.00  0.00    +0.000 A 
ATOM     10  C   UNL     1      -1.138  11.064  20.038  0.00  0.00    +0.000 A 
ATOM     11  C   UNL     1      -1.053  10.222  18.933  0.00  0.00    +0.000 A 
ATOM     12  C   UNL     1      -1.859  10.405  17.832  0.00  0.00    +0.000 A 
ATOM     13  O   UNL     1      -0.108   9.233  19.076  0.00  0.00    +0.000 OA
ATOM     14  C   UNL     1       0.454   9.426  20.337  0.00  0.00    +0.000 C 
ATOM     15  C   UNL     1       1.430   8.679  20.870  0.00  0.00    +0.000 C 
ATOM     16  C   UNL     1      -0.167  10.592  21.017  0.00  0.00    +0.000 C 
ATOM     17  O   UNL     1       0.080  11.044  22.115  0.00  0.00    +0.000 OA
BRANCH   7  19
ATOM     18  C   UNL     1      -3.089  10.863  15.572  0.00  0.00    +0.000 C 
ATOM     19  O   UNL     1      -3.536  11.572  16.721  0.00  0.00    +0.000 OA
ENDBRANCH   7  19
ENDBRANCH   1  15
BRANCH   4  20
ATOM     20  C   UNL     1       3.131   4.382  17.551  0.00  0.00    +0.000 C 
BRANCH  20  21
ATOM     21  C   UNL     1       4.586   4.375  17.177  0.00  0.00    +0.000 A 
ATOM     22  C   UNL     1       5.581   4.474  18.163  0.00  0.00    +0.000 A 
ATOM     23  C   UNL     1       6.930   4.563  17.804  0.00  0.00    +0.000 A 
ATOM     24  C   UNL     1       7.297   4.553  16.461  0.00  0.00    +0.000 A 
ATOM     25  C   UNL     1       6.319   4.420  15.486  0.00  0.00    +0.000 A 
ATOM     26  F   UNL     1       6.663   4.402  14.194  0.00  0.00    +0.000 F 
ATOM     27  C   UNL     1       4.974   4.322  15.829  0.00  0.00    +0.000 A 
ENDBRANCH  20  21
ENDBRANCH   4  20
TORSDOF 4
ENDMDL
