MODEL 1
REMARK VINA RESULT:      -7.5      0.000      0.000
REMARK  Name = 
REMARK  11 active torsions:
REMARK  status: ('A' for Active; 'I' for Inactive)
REMARK    1  A    between atoms: C_1  and  C_2
REMARK    2  A    between atoms: C_2  and  C_3
REMARK    3  A    between atoms: C_2  and  C_4
REMARK    4  A    between atoms: C_2  and  N_5
REMARK    5  A    between atoms: N_5  and  C_6
REMARK    6  A    between atoms: C_6  and  C_7
REMARK    7  A    between atoms: N_9  and  C_10
REMARK    8  A    between atoms: C_12  and  C_13
REMARK    9  A    between atoms: C_13  and  O_14
REMARK   10  A    between atoms: C_16  and  N_17
REMARK   11  A    between atoms: N_17  and  C_18
REMARK                            x       y       z     vdW  Elec       q    Type
REMARK                         _______ _______ _______ _____ _____    ______ ____
ROOT
ATOM      1  C   UNL     1       1.599   8.115  20.203  0.00  0.00    +0.000 A 
ATOM      2  C   UNL     1       1.126   8.224  21.495  0.00  0.00    +0.000 A 
ATOM      3  C   UNL     1       0.365   9.339  21.856  0.00  0.00    +0.000 A 
ATOM      4  C   UNL     1       0.000  10.307  20.889  0.00  0.00    +0.000 A 
ATOM      5  C   UNL     1       0.419  10.178  19.562  0.00  0.00    +0.000 A 
ATOM      6  C   UNL     1       1.275   9.092  19.252  0.00  0.00    +0.000 A 
ENDROOT
BRANCH   1   9
ATOM      7  C   UNL     1       2.255   5.694  20.168  0.00  0.00    +0.000 C 
ATOM      8  O   UNL     1       1.201   5.215  20.578  0.00  0.00    +0.000 OA
ATOM      9  N   UNL     1       2.512   7.043  19.956  0.00  0.00    +0.000 N 
ATOM     10  H   UNL     1       3.213   7.218  19.242  0.00  0.00    +0.000 HD
BRANCH   7  11
ATOM     11  C   UNL     1       3.446   4.777  19.763  0.00  0.00    +0.000 C 
BRANCH  11  12
ATOM     12  N   UNL     1       3.087   3.350  19.909  0.00  0.00    +0.000 NA
ATOM     13  H   UNL     1       3.904   2.868  20.298  0.00  0.00    +0.000 HD
BRANCH  12  15
ATOM     14  C   UNL     1       1.185   2.282  18.658  0.00  0.00    +0.000 C 
ATOM     15  C   UNL     1       2.675   2.670  18.658  0.00  0.00    +0.000 C 
ATOM     16  C   UNL     1       3.536   1.423  18.389  0.00  0.00    +0.000 C 
ATOM     17  C   UNL     1       2.901   3.657  17.491  0.00  0.00    +0.000 C 
ENDBRANCH  12  15
ENDBRANCH  11  12
ENDBRANCH   7  11
ENDBRANCH   1   9
BRANCH   5  18
ATOM     18  N   UNL     1       0.366  11.225  18.571  0.00  0.00    +0.000 N 
ATOM     19  H   UNL     1       0.795  11.959  19.162  0.00  0.00    +0.000 HD
BRANCH  18  20
ATOM     20  C   UNL     1      -0.686  12.037  17.866  0.00  0.00    +0.000 A 
ATOM     21  C   UNL     1      -0.517  13.361  18.259  0.00  0.00    +0.000 A 
ATOM     22  C   UNL     1      -1.167  13.657  19.444  0.00  0.00    +0.000 A 
ATOM     23  N   UNL     1      -2.178  12.890  19.931  0.00  0.00    +0.000 NA
ATOM     24  C   UNL     1      -2.728  12.038  19.054  0.00  0.00    +0.000 A 
ATOM     25  C   UNL     1      -4.065  11.695  19.162  0.00  0.00    +0.000 A 
ATOM     26  C   UNL     1      -4.780  11.311  18.031  0.00  0.00    +0.000 A 
ATOM     27 CL   UNL     1      -6.469  10.999  18.159  0.00  0.00    +0.000 Cl
ATOM     28  C   UNL     1      -4.165  11.280  16.784  0.00  0.00    +0.000 A 
ATOM     29  C   UNL     1      -2.782  11.451  16.711  0.00  0.00    +0.000 A 
ATOM     30  C   UNL     1      -2.031  11.696  17.892  0.00  0.00    +0.000 A 
ENDBRANCH  18  20
ENDBRANCH   5  18
BRANCH   3  31
ATOM     31  C   UNL     1       0.071   9.489  23.326  0.00  0.00    +0.000 C 
BRANCH  31  32
ATOM     32  O   UNL     1      -1.178  10.156  23.468  0.00  0.00    +0.000 OA
ATOM     33  H   UNL     1      -1.081  10.783  24.204  0.00  0.00    +0.000 HD
ENDBRANCH  31  32
ENDBRANCH   3  31
TORSDOF 8
ENDMDL
MODEL 2
REMARK VINA RESULT:      -7.5      1.154      1.499
REMARK  Name = 
REMARK  11 active torsions:
REMARK  status: ('A' for Active; 'I' for Inactive)
REMARK    1  A    between atoms: C_1  and  C_2
REMARK    2  A    between atoms: C_2  and  C_3
REMARK    3  A    between atoms: C_2  and  C_4
REMARK    4  A    between atoms: C_2  and  N_5
REMARK    5  A    between atoms: N_5  and  C_6
REMARK    6  A    between atoms: C_6  and  C_7
REMARK    7  A    between atoms: N_9  and  C_10
REMARK    8  A    between atoms: C_12  and  C_13
REMARK    9  A    between atoms: C_13  and  O_14
REMARK   10  A    between atoms: C_16  and  N_17
REMARK   11  A    between atoms: N_17  and  C_18
REMARK                            x       y       z     vdW  Elec       q    Type
REMARK                         _______ _______ _______ _____ _____    ______ ____
ROOT
ATOM      1  C   UNL     1       1.575   8.028  20.216  0.00  0.00    +0.000 A 
ATOM      2  C   UNL     1       1.104   8.166  21.505  0.00  0.00    +0.000 A 
ATOM      3  C   UNL     1       0.360   9.299  21.847  0.00  0.00    +0.000 A 
ATOM      4  C   UNL     1       0.011  10.256  20.864  0.00  0.00    +0.000 A 
ATOM      5  C   UNL     1       0.428  10.098  19.539  0.00  0.00    +0.000 A 
ATOM      6  C   UNL     1       1.266   8.993  19.247  0.00  0.00    +0.000 A 
ENDROOT
BRANCH   1   9
ATOM      7  C   UNL     1       2.178   5.593  20.182  0.00  0.00    +0.000 C 
ATOM      8  O   UNL     1       1.102   5.135  20.558  0.00  0.00    +0.000 OA
ATOM      9  N   UNL     1       2.471   6.938  19.987  0.00  0.00    +0.000 N 
ATOM     10  H   UNL     1       3.195   7.102  19.294  0.00  0.00    +0.000 HD
BRANCH   7  11
ATOM     11  C   UNL     1       3.359   4.653  19.804  0.00  0.00    +0.000 C 
BRANCH  11  12
ATOM     12  N   UNL     1       4.534   5.434  19.361  0.00  0.00    +0.000 NA
ATOM     13  H   UNL     1       4.307   6.426  19.487  0.00  0.00    +0.000 HD
BRANCH  12  15
ATOM     14  C   UNL     1       4.072   4.164  17.240  0.00  0.00    +0.000 C 
ATOM     15  C   UNL     1       4.949   5.208  17.955  0.00  0.00    +0.000 C 
ATOM     16  C   UNL     1       6.428   4.791  17.868  0.00  0.00    +0.000 C 
ATOM     17  C   UNL     1       4.793   6.546  17.199  0.00  0.00    +0.000 C 
ENDBRANCH  12  15
ENDBRANCH  11  12
ENDBRANCH   7  11
ENDBRANCH   1   9
BRANCH   5  18
ATOM     18  N   UNL     1       0.391  11.129  18.531  0.00  0.00    +0.000 N 
ATOM     19  H   UNL     1       0.866  11.855  19.096  0.00  0.00    +0.000 HD
BRANCH  18  20
ATOM     20  C   UNL     1      -0.645  11.972  17.839  0.00  0.00    +0.000 A 
ATOM     21  C   UNL     1      -0.436  13.290  18.234  0.00  0.00    +0.000 A 
ATOM     22  C   UNL     1      -1.066  13.599  19.426  0.00  0.00    +0.000 A 
ATOM     23  N   UNL     1      -2.092  12.859  19.920  0.00  0.00    +0.000 NA
ATOM     24  C   UNL     1      -2.675  12.026  19.047  0.00  0.00    +0.000 A 
ATOM     25  C   UNL     1      -4.020  11.719  19.166  0.00  0.00    +0.000 A 
ATOM     26  C   UNL     1      -4.755  11.358  18.042  0.00  0.00    +0.000 A 
ATOM     27 CL   UNL     1      -6.451  11.092  18.185  0.00  0.00    +0.000 Cl
ATOM     28  C   UNL     1      -4.154  11.315  16.788  0.00  0.00    +0.000 A 
ATOM     29  C   UNL     1      -2.767  11.448  16.702  0.00  0.00    +0.000 A 
ATOM     30  C   UNL     1      -1.999  11.668  17.876  0.00  0.00    +0.000 A 
ENDBRANCH  18  20
ENDBRANCH   5  18
BRANCH   3  31
ATOM     31  C   UNL     1       0.068   9.478  23.314  0.00  0.00    +0.000 C 
BRANCH  31  32
ATOM     32  O   UNL     1      -0.820  10.581  23.464  0.00  0.00    +0.000 OA
ATOM     33  H   UNL     1      -1.548  10.282  24.032  0.00  0.00    +0.000 HD
ENDBRANCH  31  32
ENDBRANCH   3  31
TORSDOF 8
ENDMDL
MODEL 3
REMARK VINA RESULT:      -7.4      0.785      1.093
REMARK  Name = 
REMARK  11 active torsions:
REMARK  status: ('A' for Active; 'I' for Inactive)
REMARK    1  A    between atoms: C_1  and  C_2
REMARK    2  A    between atoms: C_2  and  C_3
REMARK    3  A    between atoms: C_2  and  C_4
REMARK    4  A    between atoms: C_2  and  N_5
REMARK    5  A    between atoms: N_5  and  C_6
REMARK    6  A    between atoms: C_6  and  C_7
REMARK    7  A    between atoms: N_9  and  C_10
REMARK    8  A    between atoms: C_12  and  C_13
REMARK    9  A    between atoms: C_13  and  O_14
REMARK   10  A    between atoms: C_16  and  N_17
REMARK   11  A    between atoms: N_17  and  C_18
REMARK                            x       y       z     vdW  Elec       q    Type
REMARK                         _______ _______ _______ _____ _____    ______ ____
ROOT
ATOM      1  C   UNL     1       1.602   8.128  20.163  0.00  0.00    +0.000 A 
ATOM      2  C   UNL     1       1.168   8.230  21.468  0.00  0.00    +0.000 A 
ATOM      3  C   UNL     1       0.327   9.285  21.833  0.00  0.00    +0.000 A 
ATOM      4  C   UNL     1      -0.154  10.193  20.859  0.00  0.00    +0.000 A 
ATOM      5  C   UNL     1       0.227  10.066  19.520  0.00  0.00    +0.000 A 
ATOM      6  C   UNL     1       1.161   9.048  19.202  0.00  0.00    +0.000 A 
ENDROOT
BRANCH   1   9
ATOM      7  C   UNL     1       2.452   5.768  20.136  0.00  0.00    +0.000 C 
ATOM      8  O   UNL     1       1.450   5.209  20.573  0.00  0.00    +0.000 OA
ATOM      9  N   UNL     1       2.594   7.131  19.905  0.00  0.00    +0.000 N 
ATOM     10  H   UNL     1       3.262   7.355  19.174  0.00  0.00    +0.000 HD
BRANCH   7  11
ATOM     11  C   UNL     1       3.705   4.947  19.713  0.00  0.00    +0.000 C 
BRANCH  11  12
ATOM     12  N   UNL     1       3.415   3.497  19.725  0.00  0.00    +0.000 NA
ATOM     13  H   UNL     1       4.173   3.038  20.240  0.00  0.00    +0.000 HD
BRANCH  12  15
ATOM     14  C   UNL     1       3.660   1.373  18.401  0.00  0.00    +0.000 C 
ATOM     15  C   UNL     1       3.287   2.867  18.389  0.00  0.00    +0.000 C 
ATOM     16  C   UNL     1       4.136   3.605  17.339  0.00  0.00    +0.000 C 
ATOM     17  C   UNL     1       1.807   2.975  17.958  0.00  0.00    +0.000 C 
ENDBRANCH  12  15
ENDBRANCH  11  12
ENDBRANCH   7  11
ENDBRANCH   1   9
BRANCH   5  18
ATOM     18  N   UNL     1       0.049  11.079  18.508  0.00  0.00    +0.000 N 
ATOM     19  H   UNL     1       0.681  11.777  18.938  0.00  0.00    +0.000 HD
BRANCH  18  20
ATOM     20  C   UNL     1      -1.050  11.983  18.021  0.00  0.00    +0.000 A 
ATOM     21  C   UNL     1      -0.568  13.288  18.083  0.00  0.00    +0.000 A 
ATOM     22  C   UNL     1      -0.729  13.861  19.331  0.00  0.00    +0.000 A 
ATOM     23  N   UNL     1      -1.616  13.383  20.243  0.00  0.00    +0.000 NA
ATOM     24  C   UNL     1      -2.548  12.550  19.758  0.00  0.00    +0.000 A 
ATOM     25  C   UNL     1      -3.805  12.498  20.337  0.00  0.00    +0.000 A 
ATOM     26  C   UNL     1      -4.907  12.117  19.577  0.00  0.00    +0.000 A 
ATOM     27 CL   UNL     1      -6.479  12.168  20.277  0.00  0.00    +0.000 Cl
ATOM     28  C   UNL     1      -4.761  11.799  18.231  0.00  0.00    +0.000 A 
ATOM     29  C   UNL     1      -3.474  11.680  17.703  0.00  0.00    +0.000 A 
ATOM     30  C   UNL     1      -2.342  11.924  18.525  0.00  0.00    +0.000 A 
ENDBRANCH  18  20
ENDBRANCH   5  18
BRANCH   3  31
ATOM     31  C   UNL     1       0.074   9.447  23.309  0.00  0.00    +0.000 C 
BRANCH  31  32
ATOM     32  O   UNL     1      -0.521  10.722  23.526  0.00  0.00    +0.000 OA
ATOM     33  H   UNL     1      -0.107  11.095  24.321  0.00  0.00    +0.000 HD
ENDBRANCH  31  32
ENDBRANCH   3  31
TORSDOF 8
ENDMDL
MODEL 4
REMARK VINA RESULT:      -7.4      3.527      5.273
REMARK  Name = 
REMARK  11 active torsions:
REMARK  status: ('A' for Active; 'I' for Inactive)
REMARK    1  A    between atoms: C_1  and  C_2
REMARK    2  A    between atoms: C_2  and  C_3
REMARK    3  A    between atoms: C_2  and  C_4
REMARK    4  A    between atoms: C_2  and  N_5
REMARK    5  A    between atoms: N_5  and  C_6
REMARK    6  A    between atoms: C_6  and  C_7
REMARK    7  A    between atoms: N_9  and  C_10
REMARK    8  A    between atoms: C_12  and  C_13
REMARK    9  A    between atoms: C_13  and  O_14
REMARK   10  A    between atoms: C_16  and  N_17
REMARK   11  A    between atoms: N_17  and  C_18
REMARK                            x       y       z     vdW  Elec       q    Type
REMARK                         _______ _______ _______ _____ _____    ______ ____
ROOT
ATOM      1  C   UNL     1       3.818   5.243  18.956  0.00  0.00    +0.000 A 
ATOM      2  C   UNL     1       3.312   4.253  19.773  0.00  0.00    +0.000 A 
ATOM      3  C   UNL     1       2.295   4.563  20.681  0.00  0.00    +0.000 A 
ATOM      4  C   UNL     1       1.720   5.856  20.704  0.00  0.00    +0.000 A 
ATOM      5  C   UNL     1       2.179   6.854  19.840  0.00  0.00    +0.000 A 
ATOM      6  C   UNL     1       3.279   6.536  19.004  0.00  0.00    +0.000 A 
ENDROOT
BRANCH   1   9
ATOM      7  C   UNL     1       6.290   5.014  18.600  0.00  0.00    +0.000 C 
ATOM      8  O   UNL     1       6.669   5.413  19.698  0.00  0.00    +0.000 OA
ATOM      9  N   UNL     1       4.969   4.895  18.184  0.00  0.00    +0.000 N 
ATOM     10  H   UNL     1       4.825   4.179  17.479  0.00  0.00    +0.000 HD
BRANCH   7  11
ATOM     11  C   UNL     1       7.309   4.513  17.536  0.00  0.00    +0.000 C 
BRANCH  11  12
ATOM     12  N   UNL     1       7.400   5.461  16.404  0.00  0.00    +0.000 NA
ATOM     13  H   UNL     1       7.060   6.369  16.739  0.00  0.00    +0.000 HD
BRANCH  12  15
ATOM     14  C   UNL     1       7.466   5.209  13.903  0.00  0.00    +0.000 C 
ATOM     15  C   UNL     1       6.636   5.075  15.194  0.00  0.00    +0.000 C 
ATOM     16  C   UNL     1       5.340   5.894  15.065  0.00  0.00    +0.000 C 
ATOM     17  C   UNL     1       6.240   3.589  15.342  0.00  0.00    +0.000 C 
ENDBRANCH  12  15
ENDBRANCH  11  12
ENDBRANCH   7  11
ENDBRANCH   1   9
BRANCH   5  18
ATOM     18  N   UNL     1       1.886   8.260  19.968  0.00  0.00    +0.000 N 
ATOM     19  H   UNL     1       1.863   8.275  21.003  0.00  0.00    +0.000 HD
BRANCH  18  20
ATOM     20  C   UNL     1       0.744   9.191  19.667  0.00  0.00    +0.000 A 
ATOM     21  C   UNL     1       0.775   9.454  18.301  0.00  0.00    +0.000 A 
ATOM     22  C   UNL     1       1.629  10.492  17.973  0.00  0.00    +0.000 A 
ATOM     23  N   UNL     1       2.047  11.406  18.887  0.00  0.00    +0.000 NA
ATOM     24  C   UNL     1       1.340  11.449  20.025  0.00  0.00    +0.000 A 
ATOM     25  C   UNL     1       1.206  12.640  20.718  0.00  0.00    +0.000 A 
ATOM     26  C   UNL     1       0.091  12.858  21.521  0.00  0.00    +0.000 A 
ATOM     27 CL   UNL     1      -0.119  14.387  22.285  0.00  0.00    +0.000 Cl
ATOM     28  C   UNL     1      -0.905  11.893  21.624  0.00  0.00    +0.000 A 
ATOM     29  C   UNL     1      -0.679  10.632  21.071  0.00  0.00    +0.000 A 
ATOM     30  C   UNL     1       0.531  10.365  20.377  0.00  0.00    +0.000 A 
ENDBRANCH  18  20
ENDBRANCH   5  18
BRANCH   3  31
ATOM     31  C   UNL     1       1.950   3.487  21.677  0.00  0.00    +0.000 C 
BRANCH  31  32
ATOM     32  O   UNL     1       0.806   2.786  21.203  0.00  0.00    +0.000 OA
ATOM     33  H   UNL     1       0.273   3.423  20.700  0.00  0.00    +0.000 HD
ENDBRANCH  31  32
ENDBRANCH   3  31
TORSDOF 8
ENDMDL
MODEL 5
REMARK VINA RESULT:      -7.4      3.108      5.415
REMARK  Name = 
REMARK  11 active torsions:
REMARK  status: ('A' for Active; 'I' for Inactive)
REMARK    1  A    between atoms: C_1  and  C_2
REMARK    2  A    between atoms: C_2  and  C_3
REMARK    3  A    between atoms: C_2  and  C_4
REMARK    4  A    between atoms: C_2  and  N_5
REMARK    5  A    between atoms: N_5  and  C_6
REMARK    6  A    between atoms: C_6  and  C_7
REMARK    7  A    between atoms: N_9  and  C_10
REMARK    8  A    between atoms: C_12  and  C_13
REMARK    9  A    between atoms: C_13  and  O_14
REMARK   10  A    between atoms: C_16  and  N_17
REMARK   11  A    between atoms: N_17  and  C_18
REMARK                            x       y       z     vdW  Elec       q    Type
REMARK                         _______ _______ _______ _____ _____    ______ ____
ROOT
ATOM      1  C   UNL     1       3.372   5.033  18.665  0.00  0.00    +0.000 A 
ATOM      2  C   UNL     1       2.707   3.831  18.788  0.00  0.00    +0.000 A 
ATOM      3  C   UNL     1       1.658   3.716  19.704  0.00  0.00    +0.000 A 
ATOM      4  C   UNL     1       1.215   4.843  20.437  0.00  0.00    +0.000 A 
ATOM      5  C   UNL     1       1.838   6.084  20.278  0.00  0.00    +0.000 A 
ATOM      6  C   UNL     1       2.963   6.142  19.418  0.00  0.00    +0.000 A 
ENDROOT
BRANCH   1   9
ATOM      7  C   UNL     1       5.813   4.638  18.243  0.00  0.00    +0.000 C 
ATOM      8  O   UNL     1       6.125   4.224  19.357  0.00  0.00    +0.000 OA
ATOM      9  N   UNL     1       4.541   5.025  17.841  0.00  0.00    +0.000 N 
ATOM     10  H   UNL     1       4.375   4.915  16.845  0.00  0.00    +0.000 HD
BRANCH   7  11
ATOM     11  C   UNL     1       6.861   4.709  17.095  0.00  0.00    +0.000 C 
BRANCH  11  12
ATOM     12  N   UNL     1       6.424   3.909  15.931  0.00  0.00    +0.000 NA
ATOM     13  H   UNL     1       7.110   3.158  15.801  0.00  0.00    +0.000 HD
BRANCH  12  15
ATOM     14  C   UNL     1       7.644   5.110  14.089  0.00  0.00    +0.000 C 
ATOM     15  C   UNL     1       6.286   4.663  14.662  0.00  0.00    +0.000 C 
ATOM     16  C   UNL     1       5.368   5.887  14.835  0.00  0.00    +0.000 C 
ATOM     17  C   UNL     1       5.628   3.725  13.626  0.00  0.00    +0.000 C 
ENDBRANCH  12  15
ENDBRANCH  11  12
ENDBRANCH   7  11
ENDBRANCH   1   9
BRANCH   5  18
ATOM     18  N   UNL     1       1.678   7.211  21.163  0.00  0.00    +0.000 N 
ATOM     19  H   UNL     1       0.671   7.065  21.349  0.00  0.00    +0.000 HD
BRANCH  18  20
ATOM     20  C   UNL     1       1.712   8.712  21.071  0.00  0.00    +0.000 A 
ATOM     21  C   UNL     1       1.539   9.209  22.359  0.00  0.00    +0.000 A 
ATOM     22  C   UNL     1       0.208   9.320  22.718  0.00  0.00    +0.000 A 
ATOM     23  N   UNL     1      -0.793   9.351  21.799  0.00  0.00    +0.000 NA
ATOM     24  C   UNL     1      -0.411   9.601  20.538  0.00  0.00    +0.000 A 
ATOM     25  C   UNL     1      -1.261  10.268  19.672  0.00  0.00    +0.000 A 
ATOM     26  C   UNL     1      -0.739  11.015  18.621  0.00  0.00    +0.000 A 
ATOM     27 CL   UNL     1      -1.800  11.932  17.621  0.00  0.00    +0.000 Cl
ATOM     28  C   UNL     1       0.636  11.111  18.437  0.00  0.00    +0.000 A 
ATOM     29  C   UNL     1       1.475  10.297  19.199  0.00  0.00    +0.000 A 
ATOM     30  C   UNL     1       0.926   9.421  20.173  0.00  0.00    +0.000 A 
ENDBRANCH  18  20
ENDBRANCH   5  18
BRANCH   3  31
ATOM     31  C   UNL     1       1.130   2.324  19.930  0.00  0.00    +0.000 C 
BRANCH  31  32
ATOM     32  O   UNL     1       1.619   1.483  18.891  0.00  0.00    +0.000 OA
ATOM     33  H   UNL     1       2.295   0.909  19.286  0.00  0.00    +0.000 HD
ENDBRANCH  31  32
ENDBRANCH   3  31
TORSDOF 8
ENDMDL
MODEL 6
REMARK VINA RESULT:      -7.3      8.637     10.281
REMARK  Name = 
REMARK  11 active torsions:
REMARK  status: ('A' for Active; 'I' for Inactive)
REMARK    1  A    between atoms: C_1  and  C_2
REMARK    2  A    between atoms: C_2  and  C_3
REMARK    3  A    between atoms: C_2  and  C_4
REMARK    4  A    between atoms: C_2  and  N_5
REMARK    5  A    between atoms: N_5  and  C_6
REMARK    6  A    between atoms: C_6  and  C_7
REMARK    7  A    between atoms: N_9  and  C_10
REMARK    8  A    between atoms: C_12  and  C_13
REMARK    9  A    between atoms: C_13  and  O_14
REMARK   10  A    between atoms: C_16  and  N_17
REMARK   11  A    between atoms: N_17  and  C_18
REMARK                            x       y       z     vdW  Elec       q    Type
REMARK                         _______ _______ _______ _____ _____    ______ ____
ROOT
ATOM      1  C   UNL     1       9.643  10.437  19.469  0.00  0.00    +0.000 A 
ATOM      2  C   UNL     1      10.347  11.058  18.458  0.00  0.00    +0.000 A 
ATOM      3  C   UNL     1      10.736  12.392  18.610  0.00  0.00    +0.000 A 
ATOM      4  C   UNL     1      10.495  13.079  19.823  0.00  0.00    +0.000 A 
ATOM      5  C   UNL     1       9.837  12.445  20.880  0.00  0.00    +0.000 A 
ATOM      6  C   UNL     1       9.365  11.127  20.657  0.00  0.00    +0.000 A 
ENDROOT
BRANCH   1   9
ATOM      7  C   UNL     1       8.183   8.843  18.197  0.00  0.00    +0.000 C 
ATOM      8  O   UNL     1       7.662   9.647  17.429  0.00  0.00    +0.000 OA
ATOM      9  N   UNL     1       9.129   9.137  19.172  0.00  0.00    +0.000 N 
ATOM     10  H   UNL     1       9.745   8.360  19.392  0.00  0.00    +0.000 HD
BRANCH   7  11
ATOM     11  C   UNL     1       7.863   7.323  18.100  0.00  0.00    +0.000 C 
BRANCH  11  12
ATOM     12  N   UNL     1       7.486   6.949  16.719  0.00  0.00    +0.000 NA
ATOM     13  H   UNL     1       6.858   7.678  16.367  0.00  0.00    +0.000 HD
BRANCH  12  15
ATOM     14  C   UNL     1       7.067   4.988  15.203  0.00  0.00    +0.000 C 
ATOM     15  C   UNL     1       6.823   5.631  16.580  0.00  0.00    +0.000 C 
ATOM     16  C   UNL     1       5.310   5.735  16.843  0.00  0.00    +0.000 C 
ATOM     17  C   UNL     1       7.421   4.688  17.649  0.00  0.00    +0.000 C 
ENDBRANCH  12  15
ENDBRANCH  11  12
ENDBRANCH   7  11
ENDBRANCH   1   9
BRANCH   5  18
ATOM     18  N   UNL     1       9.280  13.114  22.030  0.00  0.00    +0.000 N 
ATOM     19  H   UNL     1       9.717  12.499  22.739  0.00  0.00    +0.000 HD
BRANCH  18  20
ATOM     20  C   UNL     1       7.925  13.311  22.655  0.00  0.00    +0.000 A 
ATOM     21  C   UNL     1       7.775  14.674  22.892  0.00  0.00    +0.000 A 
ATOM     22  C   UNL     1       8.323  15.073  24.098  0.00  0.00    +0.000 A 
ATOM     23  N   UNL     1       8.587  14.197  25.103  0.00  0.00    +0.000 NA
ATOM     24  C   UNL     1       7.991  13.001  24.996  0.00  0.00    +0.000 A 
ATOM     25  C   UNL     1       7.636  12.296  26.134  0.00  0.00    +0.000 A 
ATOM     26  C   UNL     1       6.574  11.397  26.094  0.00  0.00    +0.000 A 
ATOM     27 CL   UNL     1       6.069  10.614  27.542  0.00  0.00    +0.000 Cl
ATOM     28  C   UNL     1       5.852  11.209  24.920  0.00  0.00    +0.000 A 
ATOM     29  C   UNL     1       6.325  11.783  23.739  0.00  0.00    +0.000 A 
ATOM     30  C   UNL     1       7.500  12.581  23.757  0.00  0.00    +0.000 A 
ENDBRANCH  18  20
ENDBRANCH   5  18
BRANCH   3  31
ATOM     31  C   UNL     1      11.308  13.055  17.384  0.00  0.00    +0.000 C 
BRANCH  31  32
ATOM     32  O   UNL     1      10.269  13.788  16.744  0.00  0.00    +0.000 OA
ATOM     33  H   UNL     1      10.059  14.541  17.319  0.00  0.00    +0.000 HD
ENDBRANCH  31  32
ENDBRANCH   3  31
TORSDOF 8
ENDMDL
MODEL 7
REMARK VINA RESULT:      -7.3      3.958      9.036
REMARK  Name = 
REMARK  11 active torsions:
REMARK  status: ('A' for Active; 'I' for Inactive)
REMARK    1  A    between atoms: C_1  and  C_2
REMARK    2  A    between atoms: C_2  and  C_3
REMARK    3  A    between atoms: C_2  and  C_4
REMARK    4  A    between atoms: C_2  and  N_5
REMARK    5  A    between atoms: N_5  and  C_6
REMARK    6  A    between atoms: C_6  and  C_7
REMARK    7  A    between atoms: N_9  and  C_10
REMARK    8  A    between atoms: C_12  and  C_13
REMARK    9  A    between atoms: C_13  and  O_14
REMARK   10  A    between atoms: C_16  and  N_17
REMARK   11  A    between atoms: N_17  and  C_18
REMARK                            x       y       z     vdW  Elec       q    Type
REMARK                         _______ _______ _______ _____ _____    ______ ____
ROOT
ATOM      1  C   UNL     1       2.577   6.664  19.443  0.00  0.00    +0.000 A 
ATOM      2  C   UNL     1       1.695   5.607  19.530  0.00  0.00    +0.000 A 
ATOM      3  C   UNL     1       2.189   4.300  19.551  0.00  0.00    +0.000 A 
ATOM      4  C   UNL     1       3.583   4.056  19.575  0.00  0.00    +0.000 A 
ATOM      5  C   UNL     1       4.490   5.118  19.550  0.00  0.00    +0.000 A 
ATOM      6  C   UNL     1       3.959   6.426  19.426  0.00  0.00    +0.000 A 
ENDROOT
BRANCH   1   9
ATOM      7  C   UNL     1       2.160   8.759  18.128  0.00  0.00    +0.000 C 
ATOM      8  O   UNL     1       2.809   8.476  17.125  0.00  0.00    +0.000 OA
ATOM      9  N   UNL     1       1.996   7.956  19.250  0.00  0.00    +0.000 N 
ATOM     10  H   UNL     1       1.130   8.128  19.753  0.00  0.00    +0.000 HD
BRANCH   7  11
ATOM     11  C   UNL     1       1.362  10.093  18.214  0.00  0.00    +0.000 C 
BRANCH  11  12
ATOM     12  N   UNL     1      -0.001   9.929  17.663  0.00  0.00    +0.000 NA
ATOM     13  H   UNL     1       0.014  10.279  16.700  0.00  0.00    +0.000 HD
BRANCH  12  15
ATOM     14  C   UNL     1      -2.480  10.122  18.039  0.00  0.00    +0.000 C 
ATOM     15  C   UNL     1      -1.074  10.625  18.414  0.00  0.00    +0.000 C 
ATOM     16  C   UNL     1      -0.997  12.149  18.215  0.00  0.00    +0.000 C 
ATOM     17  C   UNL     1      -0.859  10.336  19.916  0.00  0.00    +0.000 C 
ENDBRANCH  12  15
ENDBRANCH  11  12
ENDBRANCH   7  11
ENDBRANCH   1   9
BRANCH   5  18
ATOM     18  N   UNL     1       5.901   4.997  19.276  0.00  0.00    +0.000 N 
ATOM     19  H   UNL     1       6.164   5.934  19.628  0.00  0.00    +0.000 HD
BRANCH  18  20
ATOM     20  C   UNL     1       6.797   4.909  18.071  0.00  0.00    +0.000 A 
ATOM     21  C   UNL     1       7.608   6.040  18.076  0.00  0.00    +0.000 A 
ATOM     22  C   UNL     1       7.009   7.134  17.478  0.00  0.00    +0.000 A 
ATOM     23  N   UNL     1       5.958   7.011  16.625  0.00  0.00    +0.000 NA
ATOM     24  C   UNL     1       5.750   5.779  16.140  0.00  0.00    +0.000 A 
ATOM     25  C   UNL     1       5.209   5.610  14.877  0.00  0.00    +0.000 A 
ATOM     26  C   UNL     1       5.492   4.460  14.146  0.00  0.00    +0.000 A 
ATOM     27 CL   UNL     1       4.907   4.314  12.532  0.00  0.00    +0.000 Cl
ATOM     28  C   UNL     1       6.329   3.480  14.667  0.00  0.00    +0.000 A 
ATOM     29  C   UNL     1       6.723   3.572  16.003  0.00  0.00    +0.000 A 
ATOM     30  C   UNL     1       6.307   4.676  16.794  0.00  0.00    +0.000 A 
ENDBRANCH  18  20
ENDBRANCH   5  18
BRANCH   3  31
ATOM     31  C   UNL     1       1.161   3.205  19.431  0.00  0.00    +0.000 C 
BRANCH  31  32
ATOM     32  O   UNL     1       0.634   2.940  20.726  0.00  0.00    +0.000 OA
ATOM     33  H   UNL     1       1.289   3.257  21.368  0.00  0.00    +0.000 HD
ENDBRANCH  31  32
ENDBRANCH   3  31
TORSDOF 8
ENDMDL
MODEL 8
REMARK VINA RESULT:      -7.3      4.374      9.285
REMARK  Name = 
REMARK  11 active torsions:
REMARK  status: ('A' for Active; 'I' for Inactive)
REMARK    1  A    between atoms: C_1  and  C_2
REMARK    2  A    between atoms: C_2  and  C_3
REMARK    3  A    between atoms: C_2  and  C_4
REMARK    4  A    between atoms: C_2  and  N_5
REMARK    5  A    between atoms: N_5  and  C_6
REMARK    6  A    between atoms: C_6  and  C_7
REMARK    7  A    between atoms: N_9  and  C_10
REMARK    8  A    between atoms: C_12  and  C_13
REMARK    9  A    between atoms: C_13  and  O_14
REMARK   10  A    between atoms: C_16  and  N_17
REMARK   11  A    between atoms: N_17  and  C_18
REMARK                            x       y       z     vdW  Elec       q    Type
REMARK                         _______ _______ _______ _____ _____    ______ ____
ROOT
ATOM      1  C   UNL     1       2.304   6.322  20.049  0.00  0.00    +0.000 A 
ATOM      2  C   UNL     1       1.694   5.267  20.698  0.00  0.00    +0.000 A 
ATOM      3  C   UNL     1       2.004   3.957  20.321  0.00  0.00    +0.000 A 
ATOM      4  C   UNL     1       3.000   3.703  19.348  0.00  0.00    +0.000 A 
ATOM      5  C   UNL     1       3.671   4.759  18.726  0.00  0.00    +0.000 A 
ATOM      6  C   UNL     1       3.262   6.076  19.056  0.00  0.00    +0.000 A 
ENDROOT
BRANCH   1   9
ATOM      7  C   UNL     1       1.579   8.648  19.452  0.00  0.00    +0.000 C 
ATOM      8  O   UNL     1       1.742   8.582  18.237  0.00  0.00    +0.000 OA
ATOM      9  N   UNL     1       1.810   7.625  20.365  0.00  0.00    +0.000 N 
ATOM     10  H   UNL     1       1.238   7.688  21.203  0.00  0.00    +0.000 HD
BRANCH   7  11
ATOM     11  C   UNL     1       1.004   9.934  20.113  0.00  0.00    +0.000 C 
BRANCH  11  12
ATOM     12  N   UNL     1       0.291  10.765  19.119  0.00  0.00    +0.000 NA
ATOM     13  H   UNL     1       0.479  10.364  18.194  0.00  0.00    +0.000 HD
BRANCH  12  15
ATOM     14  C   UNL     1      -0.378  13.079  18.398  0.00  0.00    +0.000 C 
ATOM     15  C   UNL     1       0.666  12.199  19.109  0.00  0.00    +0.000 C 
ATOM     16  C   UNL     1       2.048  12.411  18.465  0.00  0.00    +0.000 C 
ATOM     17  C   UNL     1       0.754  12.672  20.577  0.00  0.00    +0.000 C 
ENDBRANCH  12  15
ENDBRANCH  11  12
ENDBRANCH   7  11
ENDBRANCH   1   9
BRANCH   5  18
ATOM     18  N   UNL     1       4.475   4.643  17.534  0.00  0.00    +0.000 N 
ATOM     19  H   UNL     1       5.161   3.976  17.928  0.00  0.00    +0.000 HD
BRANCH  18  20
ATOM     20  C   UNL     1       5.393   5.515  16.722  0.00  0.00    +0.000 A 
ATOM     21  C   UNL     1       6.145   4.675  15.906  0.00  0.00    +0.000 A 
ATOM     22  C   UNL     1       7.271   4.179  16.538  0.00  0.00    +0.000 A 
ATOM     23  N   UNL     1       7.801   4.763  17.645  0.00  0.00    +0.000 NA
ATOM     24  C   UNL     1       7.384   6.013  17.893  0.00  0.00    +0.000 A 
ATOM     25  C   UNL     1       8.226   6.916  18.519  0.00  0.00    +0.000 A 
ATOM     26  C   UNL     1       8.076   8.281  18.293  0.00  0.00    +0.000 A 
ATOM     27 CL   UNL     1       9.200   9.386  18.986  0.00  0.00    +0.000 Cl
ATOM     28  C   UNL     1       7.093   8.750  17.428  0.00  0.00    +0.000 A 
ATOM     29  C   UNL     1       6.139   7.853  16.944  0.00  0.00    +0.000 A 
ATOM     30  C   UNL     1       6.208   6.479  17.300  0.00  0.00    +0.000 A 
ENDBRANCH  18  20
ENDBRANCH   5  18
BRANCH   3  31
ATOM     31  C   UNL     1       1.144   2.878  20.925  0.00  0.00    +0.000 C 
BRANCH  31  32
ATOM     32  O   UNL     1       1.753   2.441  22.134  0.00  0.00    +0.000 OA
ATOM     33  H   UNL     1       1.603   1.484  22.197  0.00  0.00    +0.000 HD
ENDBRANCH  31  32
ENDBRANCH   3  31
TORSDOF 8
ENDMDL
MODEL 9
REMARK VINA RESULT:      -7.3      2.992      5.230
REMARK  Name = 
REMARK  11 active torsions:
REMARK  status: ('A' for Active; 'I' for Inactive)
REMARK    1  A    between atoms: C_1  and  C_2
REMARK    2  A    between atoms: C_2  and  C_3
REMARK    3  A    between atoms: C_2  and  C_4
REMARK    4  A    between atoms: C_2  and  N_5
REMARK    5  A    between atoms: N_5  and  C_6
REMARK    6  A    between atoms: C_6  and  C_7
REMARK    7  A    between atoms: N_9  and  C_10
REMARK    8  A    between atoms: C_12  and  C_13
REMARK    9  A    between atoms: C_13  and  O_14
REMARK   10  A    between atoms: C_16  and  N_17
REMARK   11  A    between atoms: N_17  and  C_18
REMARK                            x       y       z     vdW  Elec       q    Type
REMARK                         _______ _______ _______ _____ _____    ______ ____
ROOT
ATOM      1  C   UNL     1       3.494   4.944  18.926  0.00  0.00    +0.000 A 
ATOM      2  C   UNL     1       3.049   3.686  19.277  0.00  0.00    +0.000 A 
ATOM      3  C   UNL     1       2.068   3.554  20.264  0.00  0.00    +0.000 A 
ATOM      4  C   UNL     1       1.465   4.699  20.838  0.00  0.00    +0.000 A 
ATOM      5  C   UNL     1       1.861   5.981  20.448  0.00  0.00    +0.000 A 
ATOM      6  C   UNL     1       2.928   6.080  19.522  0.00  0.00    +0.000 A 
ENDROOT
BRANCH   1   9
ATOM      7  C   UNL     1       5.944   4.796  18.407  0.00  0.00    +0.000 C 
ATOM      8  O   UNL     1       6.352   4.532  19.534  0.00  0.00    +0.000 OA
ATOM      9  N   UNL     1       4.617   4.991  18.042  0.00  0.00    +0.000 N 
ATOM     10  H   UNL     1       4.421   4.765  17.072  0.00  0.00    +0.000 HD
BRANCH   7  11
ATOM     11  C   UNL     1       6.923   4.875  17.200  0.00  0.00    +0.000 C 
BRANCH  11  12
ATOM     12  N   UNL     1       6.482   3.986  16.103  0.00  0.00    +0.000 NA
ATOM     13  H   UNL     1       7.191   3.253  16.000  0.00  0.00    +0.000 HD
BRANCH  12  15
ATOM     14  C   UNL     1       5.578   3.741  13.769  0.00  0.00    +0.000 C 
ATOM     15  C   UNL     1       6.281   4.651  14.793  0.00  0.00    +0.000 C 
ATOM     16  C   UNL     1       7.614   5.154  14.211  0.00  0.00    +0.000 C 
ATOM     17  C   UNL     1       5.376   5.881  15.024  0.00  0.00    +0.000 C 
ENDBRANCH  12  15
ENDBRANCH  11  12
ENDBRANCH   7  11
ENDBRANCH   1   9
BRANCH   5  18
ATOM     18  N   UNL     1       1.542   7.197  21.155  0.00  0.00    +0.000 N 
ATOM     19  H   UNL     1       0.514   7.101  21.085  0.00  0.00    +0.000 HD
BRANCH  18  20
ATOM     20  C   UNL     1       1.682   8.679  20.938  0.00  0.00    +0.000 A 
ATOM     21  C   UNL     1       1.669   9.283  22.192  0.00  0.00    +0.000 A 
ATOM     22  C   UNL     1       0.389   9.531  22.656  0.00  0.00    +0.000 A 
ATOM     23  N   UNL     1      -0.688   9.577  21.829  0.00  0.00    +0.000 NA
ATOM     24  C   UNL     1      -0.408   9.700  20.524  0.00  0.00    +0.000 A 
ATOM     25  C   UNL     1      -1.282  10.369  19.684  0.00  0.00    +0.000 A 
ATOM     26  C   UNL     1      -0.806  10.990  18.533  0.00  0.00    +0.000 A 
ATOM     27 CL   UNL     1      -1.883  11.916  17.560  0.00  0.00    +0.000 Cl
ATOM     28  C   UNL     1       0.549  10.958  18.223  0.00  0.00    +0.000 A 
ATOM     29  C   UNL     1       1.392  10.135  18.972  0.00  0.00    +0.000 A 
ATOM     30  C   UNL     1       0.871   9.383  20.058  0.00  0.00    +0.000 A 
ENDBRANCH  18  20
ENDBRANCH   5  18
BRANCH   3  31
ATOM     31  C   UNL     1       1.794   2.150  20.737  0.00  0.00    +0.000 C 
BRANCH  31  32
ATOM     32  O   UNL     1       1.565   2.187  22.142  0.00  0.00    +0.000 OA
ATOM     33  H   UNL     1       2.068   1.452  22.529  0.00  0.00    +0.000 HD
ENDBRANCH  31  32
ENDBRANCH   3  31
TORSDOF 8
ENDMDL
