MODEL 1
REMARK VINA RESULT:      -7.0      0.000      0.000
REMARK  Name = 
REMARK  9 active torsions:
REMARK  status: ('A' for Active; 'I' for Inactive)
REMARK    1  A    between atoms: C_2  and  C_3
REMARK    2  A    between atoms: C_3  and  C_4
REMARK    3  A    between atoms: C_3  and  C_5
REMARK    4  A    between atoms: C_3  and  C_6
REMARK    5  A    between atoms: C_7  and  O_8
REMARK    6  A    between atoms: O_8  and  C_9
REMARK    7  A    between atoms: C_14  and  O_15
REMARK    8  A    between atoms: O_15  and  C_16
REMARK    9  A    between atoms: C_17  and  C_18
REMARK                            x       y       z     vdW  Elec       q    Type
REMARK                         _______ _______ _______ _____ _____    ______ ____
ROOT
ATOM      1  C   UNL     1       2.974   4.346  19.320  0.00  0.00    +0.000 A 
ATOM      2  C   UNL     1       3.657   4.675  18.199  0.00  0.00    +0.000 A 
ATOM      3  O   UNL     1       3.507   5.898  17.535  0.00  0.00    +0.000 OA
ATOM      4  C   UNL     1       2.849   6.928  18.147  0.00  0.00    +0.000 A 
ATOM      5  C   UNL     1       2.805   8.154  17.486  0.00  0.00    +0.000 A 
ATOM      6  C   UNL     1       2.139   9.239  18.067  0.00  0.00    +0.000 A 
ATOM      7  C   UNL     1       1.577   9.126  19.343  0.00  0.00    +0.000 A 
ATOM      8  C   UNL     1       1.656   7.902  20.033  0.00  0.00    +0.000 A 
ATOM      9  C   UNL     1       1.149   7.787  21.451  0.00  0.00    +0.000 C 
ATOM     10  C   UNL     1       2.225   6.788  19.372  0.00  0.00    +0.000 A 
ATOM     11  C   UNL     1       2.065   5.408  19.852  0.00  0.00    +0.000 A 
ATOM     12  O   UNL     1       1.138   5.147  20.610  0.00  0.00    +0.000 OA
ENDROOT
BRANCH   1  13
ATOM     13  C   UNL     1       2.943   2.977  20.075  0.00  0.00    +0.000 C 
ATOM     14  C   UNL     1       2.342   3.115  21.505  0.00  0.00    +0.000 C 
ATOM     15  C   UNL     1       4.353   2.370  20.306  0.00  0.00    +0.000 C 
BRANCH  13  17
ATOM     16  C   UNL     1       0.779   2.203  18.883  0.00  0.00    +0.000 C 
ATOM     17  C   UNL     1       2.042   2.012  19.292  0.00  0.00    +0.000 C 
ENDBRANCH  13  17
ENDBRANCH   1  13
BRANCH   2  18
ATOM     18  O   UNL     1       4.496   3.741  17.610  0.00  0.00    +0.000 OA
ATOM     19  C   UNL     1       5.126   4.187  16.411  0.00  0.00    +0.000 C 
ENDBRANCH   2  18
BRANCH   7  20
ATOM     20  O   UNL     1       0.930  10.140  19.999  0.00  0.00    +0.000 OA
ATOM     21  C   UNL     1      -0.228  10.698  19.396  0.00  0.00    +0.000 C 
ENDBRANCH   7  20
TORSDOF 4
ENDMDL
MODEL 2
REMARK VINA RESULT:      -6.7      1.598      3.911
REMARK  Name = 
REMARK  9 active torsions:
REMARK  status: ('A' for Active; 'I' for Inactive)
REMARK    1  A    between atoms: C_2  and  C_3
REMARK    2  A    between atoms: C_3  and  C_4
REMARK    3  A    between atoms: C_3  and  C_5
REMARK    4  A    between atoms: C_3  and  C_6
REMARK    5  A    between atoms: C_7  and  O_8
REMARK    6  A    between atoms: O_8  and  C_9
REMARK    7  A    between atoms: C_14  and  O_15
REMARK    8  A    between atoms: O_15  and  C_16
REMARK    9  A    between atoms: C_17  and  C_18
REMARK                            x       y       z     vdW  Elec       q    Type
REMARK                         _______ _______ _______ _____ _____    ______ ____
ROOT
ATOM      1  C   UNL     1       4.530   4.951  17.566  0.00  0.00    +0.000 A 
ATOM      2  C   UNL     1       4.064   4.029  18.440  0.00  0.00    +0.000 A 
ATOM      3  O   UNL     1       3.278   4.350  19.553  0.00  0.00    +0.000 OA
ATOM      4  C   UNL     1       2.722   5.594  19.657  0.00  0.00    +0.000 A 
ATOM      5  C   UNL     1       1.872   5.837  20.735  0.00  0.00    +0.000 A 
ATOM      6  C   UNL     1       1.282   7.097  20.890  0.00  0.00    +0.000 A 
ATOM      7  C   UNL     1       1.479   8.097  19.931  0.00  0.00    +0.000 A 
ATOM      8  C   UNL     1       2.303   7.842  18.819  0.00  0.00    +0.000 A 
ATOM      9  C   UNL     1       2.446   8.868  17.720  0.00  0.00    +0.000 C 
ATOM     10  C   UNL     1       2.985   6.604  18.751  0.00  0.00    +0.000 A 
ATOM     11  C   UNL     1       4.105   6.360  17.832  0.00  0.00    +0.000 A 
ATOM     12  O   UNL     1       4.716   7.318  17.373  0.00  0.00    +0.000 OA
ENDROOT
BRANCH   1  13
ATOM     13  C   UNL     1       5.522   4.748  16.374  0.00  0.00    +0.000 C 
ATOM     14  C   UNL     1       5.509   5.959  15.395  0.00  0.00    +0.000 C 
ATOM     15  C   UNL     1       5.170   3.527  15.482  0.00  0.00    +0.000 C 
BRANCH  13  17
ATOM     16  C   UNL     1       7.484   5.304  17.969  0.00  0.00    +0.000 C 
ATOM     17  C   UNL     1       6.944   4.634  16.941  0.00  0.00    +0.000 C 
ENDBRANCH  13  17
ENDBRANCH   1  13
BRANCH   2  18
ATOM     18  O   UNL     1       4.435   2.701  18.297  0.00  0.00    +0.000 OA
ATOM     19  C   UNL     1       3.345   1.782  18.283  0.00  0.00    +0.000 C 
ENDBRANCH   2  18
BRANCH   7  20
ATOM     20  O   UNL     1       0.922   9.347  19.988  0.00  0.00    +0.000 OA
ATOM     21  C   UNL     1       0.786   9.964  21.259  0.00  0.00    +0.000 C 
ENDBRANCH   7  20
TORSDOF 4
ENDMDL
MODEL 3
REMARK VINA RESULT:      -6.5      0.356      1.202
REMARK  Name = 
REMARK  9 active torsions:
REMARK  status: ('A' for Active; 'I' for Inactive)
REMARK    1  A    between atoms: C_2  and  C_3
REMARK    2  A    between atoms: C_3  and  C_4
REMARK    3  A    between atoms: C_3  and  C_5
REMARK    4  A    between atoms: C_3  and  C_6
REMARK    5  A    between atoms: C_7  and  O_8
REMARK    6  A    between atoms: O_8  and  C_9
REMARK    7  A    between atoms: C_14  and  O_15
REMARK    8  A    between atoms: O_15  and  C_16
REMARK    9  A    between atoms: C_17  and  C_18
REMARK                            x       y       z     vdW  Elec       q    Type
REMARK                         _______ _______ _______ _____ _____    ______ ____
ROOT
ATOM      1  C   UNL     1       3.031   4.438  19.197  0.00  0.00    +0.000 A 
ATOM      2  C   UNL     1       3.772   4.824  18.133  0.00  0.00    +0.000 A 
ATOM      3  O   UNL     1       3.638   6.071  17.512  0.00  0.00    +0.000 OA
ATOM      4  C   UNL     1       2.925   7.063  18.124  0.00  0.00    +0.000 A 
ATOM      5  C   UNL     1       2.897   8.315  17.512  0.00  0.00    +0.000 A 
ATOM      6  C   UNL     1       2.176   9.363  18.095  0.00  0.00    +0.000 A 
ATOM      7  C   UNL     1       1.542   9.188  19.330  0.00  0.00    +0.000 A 
ATOM      8  C   UNL     1       1.604   7.938  19.974  0.00  0.00    +0.000 A 
ATOM      9  C   UNL     1       1.017   7.756  21.353  0.00  0.00    +0.000 C 
ATOM     10  C   UNL     1       2.233   6.862  19.303  0.00  0.00    +0.000 A 
ATOM     11  C   UNL     1       2.072   5.461  19.717  0.00  0.00    +0.000 A 
ATOM     12  O   UNL     1       1.107   5.153  20.407  0.00  0.00    +0.000 OA
ENDROOT
BRANCH   1  13
ATOM     13  C   UNL     1       2.982   3.039  19.893  0.00  0.00    +0.000 C 
ATOM     14  C   UNL     1       4.393   2.390  19.995  0.00  0.00    +0.000 C 
ATOM     15  C   UNL     1       2.133   1.995  19.117  0.00  0.00    +0.000 C 
BRANCH  13  17
ATOM     16  C   UNL     1       1.613   2.446  22.009  0.00  0.00    +0.000 C 
ATOM     17  C   UNL     1       2.461   3.227  21.325  0.00  0.00    +0.000 C 
ENDBRANCH  13  17
ENDBRANCH   1  13
BRANCH   2  18
ATOM     18  O   UNL     1       4.662   3.930  17.559  0.00  0.00    +0.000 OA
ATOM     19  C   UNL     1       4.937   4.174  16.180  0.00  0.00    +0.000 C 
ENDBRANCH   2  18
BRANCH   7  20
ATOM     20  O   UNL     1       0.839  10.163  19.987  0.00  0.00    +0.000 OA
ATOM     21  C   UNL     1      -0.365  10.633  19.399  0.00  0.00    +0.000 C 
ENDBRANCH   7  20
TORSDOF 4
ENDMDL
MODEL 4
REMARK VINA RESULT:      -6.5      1.536      3.245
REMARK  Name = 
REMARK  9 active torsions:
REMARK  status: ('A' for Active; 'I' for Inactive)
REMARK    1  A    between atoms: C_2  and  C_3
REMARK    2  A    between atoms: C_3  and  C_4
REMARK    3  A    between atoms: C_3  and  C_5
REMARK    4  A    between atoms: C_3  and  C_6
REMARK    5  A    between atoms: C_7  and  O_8
REMARK    6  A    between atoms: O_8  and  C_9
REMARK    7  A    between atoms: C_14  and  O_15
REMARK    8  A    between atoms: O_15  and  C_16
REMARK    9  A    between atoms: C_17  and  C_18
REMARK                            x       y       z     vdW  Elec       q    Type
REMARK                         _______ _______ _______ _____ _____    ______ ____
ROOT
ATOM      1  C   UNL     1       2.897   5.494  19.067  0.00  0.00    +0.000 A 
ATOM      2  C   UNL     1       2.366   5.160  20.267  0.00  0.00    +0.000 A 
ATOM      3  O   UNL     1       1.821   6.093  21.155  0.00  0.00    +0.000 OA
ATOM      4  C   UNL     1       1.562   7.366  20.730  0.00  0.00    +0.000 A 
ATOM      5  C   UNL     1       0.934   8.233  21.623  0.00  0.00    +0.000 A 
ATOM      6  C   UNL     1       0.651   9.548  21.239  0.00  0.00    +0.000 A 
ATOM      7  C   UNL     1       0.927   9.983  19.938  0.00  0.00    +0.000 A 
ATOM      8  C   UNL     1       1.522   9.099  19.020  0.00  0.00    +0.000 A 
ATOM      9  C   UNL     1       1.733   9.513  17.583  0.00  0.00    +0.000 C 
ATOM     10  C   UNL     1       1.910   7.815  19.471  0.00  0.00    +0.000 A 
ATOM     11  C   UNL     1       2.820   6.945  18.714  0.00  0.00    +0.000 A 
ATOM     12  O   UNL     1       3.555   7.445  17.870  0.00  0.00    +0.000 OA
ENDROOT
BRANCH   1  13
ATOM     13  C   UNL     1       3.656   4.580  18.050  0.00  0.00    +0.000 C 
ATOM     14  C   UNL     1       4.752   3.720  18.745  0.00  0.00    +0.000 C 
ATOM     15  C   UNL     1       4.424   5.378  16.962  0.00  0.00    +0.000 C 
BRANCH  13  17
ATOM     16  C   UNL     1       2.578   2.278  17.557  0.00  0.00    +0.000 C 
ATOM     17  C   UNL     1       2.645   3.611  17.421  0.00  0.00    +0.000 C 
ENDBRANCH  13  17
ENDBRANCH   1  13
BRANCH   2  18
ATOM     18  O   UNL     1       2.424   3.843  20.698  0.00  0.00    +0.000 OA
ATOM     19  C   UNL     1       1.153   3.217  20.855  0.00  0.00    +0.000 C 
ENDBRANCH   2  18
BRANCH   7  20
ATOM     20  O   UNL     1       0.661  11.242  19.468  0.00  0.00    +0.000 OA
ATOM     21  C   UNL     1       1.161  12.351  20.200  0.00  0.00    +0.000 C 
ENDBRANCH   7  20
TORSDOF 4
ENDMDL
MODEL 5
REMARK VINA RESULT:      -6.4      1.533      3.576
REMARK  Name = 
REMARK  9 active torsions:
REMARK  status: ('A' for Active; 'I' for Inactive)
REMARK    1  A    between atoms: C_2  and  C_3
REMARK    2  A    between atoms: C_3  and  C_4
REMARK    3  A    between atoms: C_3  and  C_5
REMARK    4  A    between atoms: C_3  and  C_6
REMARK    5  A    between atoms: C_7  and  O_8
REMARK    6  A    between atoms: O_8  and  C_9
REMARK    7  A    between atoms: C_14  and  O_15
REMARK    8  A    between atoms: O_15  and  C_16
REMARK    9  A    between atoms: C_17  and  C_18
REMARK                            x       y       z     vdW  Elec       q    Type
REMARK                         _______ _______ _______ _____ _____    ______ ____
ROOT
ATOM      1  C   UNL     1       3.155   5.508  18.955  0.00  0.00    +0.000 A 
ATOM      2  C   UNL     1       2.532   5.061  20.070  0.00  0.00    +0.000 A 
ATOM      3  O   UNL     1       1.849   5.898  20.960  0.00  0.00    +0.000 OA
ATOM      4  C   UNL     1       1.556   7.182  20.596  0.00  0.00    +0.000 A 
ATOM      5  C   UNL     1       0.794   7.948  21.477  0.00  0.00    +0.000 A 
ATOM      6  C   UNL     1       0.472   9.271  21.154  0.00  0.00    +0.000 A 
ATOM      7  C   UNL     1       0.845   9.812  19.919  0.00  0.00    +0.000 A 
ATOM      8  C   UNL     1       1.577   9.029  19.008  0.00  0.00    +0.000 A 
ATOM      9  C   UNL     1       1.900   9.555  17.630  0.00  0.00    +0.000 C 
ATOM     10  C   UNL     1       1.997   7.738  19.410  0.00  0.00    +0.000 A 
ATOM     11  C   UNL     1       3.026   6.974  18.692  0.00  0.00    +0.000 A 
ATOM     12  O   UNL     1       3.807   7.572  17.961  0.00  0.00    +0.000 OA
ENDROOT
BRANCH   1  13
ATOM     13  C   UNL     1       4.061   4.711  17.960  0.00  0.00    +0.000 C 
ATOM     14  C   UNL     1       4.422   5.552  16.701  0.00  0.00    +0.000 C 
ATOM     15  C   UNL     1       3.379   3.438  17.391  0.00  0.00    +0.000 C 
BRANCH  13  17
ATOM     16  C   UNL     1       6.268   5.207  19.220  0.00  0.00    +0.000 C 
ATOM     17  C   UNL     1       5.377   4.367  18.673  0.00  0.00    +0.000 C 
ENDBRANCH  13  17
ENDBRANCH   1  13
BRANCH   2  18
ATOM     18  O   UNL     1       2.628   3.722  20.417  0.00  0.00    +0.000 OA
ATOM     19  C   UNL     1       1.386   3.113  20.767  0.00  0.00    +0.000 C 
ENDBRANCH   2  18
BRANCH   7  20
ATOM     20  O   UNL     1       0.550  11.086  19.508  0.00  0.00    +0.000 OA
ATOM     21  C   UNL     1       0.813  12.157  20.402  0.00  0.00    +0.000 C 
ENDBRANCH   7  20
TORSDOF 4
ENDMDL
MODEL 6
REMARK VINA RESULT:      -6.3      3.256      4.777
REMARK  Name = 
REMARK  9 active torsions:
REMARK  status: ('A' for Active; 'I' for Inactive)
REMARK    1  A    between atoms: C_2  and  C_3
REMARK    2  A    between atoms: C_3  and  C_4
REMARK    3  A    between atoms: C_3  and  C_5
REMARK    4  A    between atoms: C_3  and  C_6
REMARK    5  A    between atoms: C_7  and  O_8
REMARK    6  A    between atoms: O_8  and  C_9
REMARK    7  A    between atoms: C_14  and  O_15
REMARK    8  A    between atoms: O_15  and  C_16
REMARK    9  A    between atoms: C_17  and  C_18
REMARK                            x       y       z     vdW  Elec       q    Type
REMARK                         _______ _______ _______ _____ _____    ______ ____
ROOT
ATOM      1  C   UNL     1       3.693   3.812  18.744  0.00  0.00    +0.000 A 
ATOM      2  C   UNL     1       4.502   3.429  19.760  0.00  0.00    +0.000 A 
ATOM      3  O   UNL     1       5.816   3.885  19.912  0.00  0.00    +0.000 OA
ATOM      4  C   UNL     1       6.256   4.951  19.179  0.00  0.00    +0.000 A 
ATOM      5  C   UNL     1       7.541   5.427  19.433  0.00  0.00    +0.000 A 
ATOM      6  C   UNL     1       8.041   6.514  18.705  0.00  0.00    +0.000 A 
ATOM      7  C   UNL     1       7.234   7.176  17.774  0.00  0.00    +0.000 A 
ATOM      8  C   UNL     1       5.920   6.726  17.545  0.00  0.00    +0.000 A 
ATOM      9  C   UNL     1       4.998   7.487  16.623  0.00  0.00    +0.000 C 
ATOM     10  C   UNL     1       5.484   5.551  18.203  0.00  0.00    +0.000 A 
ATOM     11  C   UNL     1       4.279   4.813  17.800  0.00  0.00    +0.000 A 
ATOM     12  O   UNL     1       3.835   4.973  16.669  0.00  0.00    +0.000 OA
ENDROOT
BRANCH   1  13
ATOM     13  C   UNL     1       2.269   3.279  18.381  0.00  0.00    +0.000 C 
ATOM     14  C   UNL     1       2.332   1.932  17.604  0.00  0.00    +0.000 C 
ATOM     15  C   UNL     1       1.479   4.229  17.441  0.00  0.00    +0.000 C 
BRANCH  13  17
ATOM     16  C   UNL     1       0.873   3.908  20.469  0.00  0.00    +0.000 C 
ATOM     17  C   UNL     1       1.501   3.020  19.685  0.00  0.00    +0.000 C 
ENDBRANCH  13  17
ENDBRANCH   1  13
BRANCH   2  18
ATOM     18  O   UNL     1       4.060   2.476  20.665  0.00  0.00    +0.000 OA
ATOM     19  C   UNL     1       4.941   1.367  20.832  0.00  0.00    +0.000 C 
ENDBRANCH   2  18
BRANCH   7  20
ATOM     20  O   UNL     1       7.629   8.261  17.037  0.00  0.00    +0.000 OA
ATOM     21  C   UNL     1       8.151   9.387  17.728  0.00  0.00    +0.000 C 
ENDBRANCH   7  20
TORSDOF 4
ENDMDL
MODEL 7
REMARK VINA RESULT:      -6.3      0.440      1.393
REMARK  Name = 
REMARK  9 active torsions:
REMARK  status: ('A' for Active; 'I' for Inactive)
REMARK    1  A    between atoms: C_2  and  C_3
REMARK    2  A    between atoms: C_3  and  C_4
REMARK    3  A    between atoms: C_3  and  C_5
REMARK    4  A    between atoms: C_3  and  C_6
REMARK    5  A    between atoms: C_7  and  O_8
REMARK    6  A    between atoms: O_8  and  C_9
REMARK    7  A    between atoms: C_14  and  O_15
REMARK    8  A    between atoms: O_15  and  C_16
REMARK    9  A    between atoms: C_17  and  C_18
REMARK                            x       y       z     vdW  Elec       q    Type
REMARK                         _______ _______ _______ _____ _____    ______ ____
ROOT
ATOM      1  C   UNL     1       2.954   4.299  19.253  0.00  0.00    +0.000 A 
ATOM      2  C   UNL     1       3.662   4.640  18.151  0.00  0.00    +0.000 A 
ATOM      3  O   UNL     1       3.534   5.874  17.504  0.00  0.00    +0.000 OA
ATOM      4  C   UNL     1       2.872   6.899  18.119  0.00  0.00    +0.000 A 
ATOM      5  C   UNL     1       2.850   8.136  17.476  0.00  0.00    +0.000 A 
ATOM      6  C   UNL     1       2.180   9.216  18.061  0.00  0.00    +0.000 A 
ATOM      7  C   UNL     1       1.592   9.088  19.325  0.00  0.00    +0.000 A 
ATOM      8  C   UNL     1       1.648   7.853  19.997  0.00  0.00    +0.000 A 
ATOM      9  C   UNL     1       1.113   7.720  21.402  0.00  0.00    +0.000 C 
ATOM     10  C   UNL     1       2.222   6.745  19.329  0.00  0.00    +0.000 A 
ATOM     11  C   UNL     1       2.043   5.359  19.784  0.00  0.00    +0.000 A 
ATOM     12  O   UNL     1       1.099   5.093  20.520  0.00  0.00    +0.000 OA
ENDROOT
BRANCH   1  13
ATOM     13  C   UNL     1       2.898   2.918  19.986  0.00  0.00    +0.000 C 
ATOM     14  C   UNL     1       1.843   1.965  19.351  0.00  0.00    +0.000 C 
ATOM     15  C   UNL     1       2.472   3.029  21.475  0.00  0.00    +0.000 C 
BRANCH  13  17
ATOM     16  C   UNL     1       4.965   1.578  20.783  0.00  0.00    +0.000 C 
ATOM     17  C   UNL     1       4.269   2.240  19.848  0.00  0.00    +0.000 C 
ENDBRANCH  13  17
ENDBRANCH   1  13
BRANCH   2  18
ATOM     18  O   UNL     1       4.505   3.709  17.565  0.00  0.00    +0.000 OA
ATOM     19  C   UNL     1       5.041   4.109  16.305  0.00  0.00    +0.000 C 
ENDBRANCH   2  18
BRANCH   7  20
ATOM     20  O   UNL     1       0.940  10.097  19.984  0.00  0.00    +0.000 OA
ATOM     21  C   UNL     1       1.084  11.421  19.492  0.00  0.00    +0.000 C 
ENDBRANCH   7  20
TORSDOF 4
ENDMDL
MODEL 8
REMARK VINA RESULT:      -6.3      1.726      3.969
REMARK  Name = 
REMARK  9 active torsions:
REMARK  status: ('A' for Active; 'I' for Inactive)
REMARK    1  A    between atoms: C_2  and  C_3
REMARK    2  A    between atoms: C_3  and  C_4
REMARK    3  A    between atoms: C_3  and  C_5
REMARK    4  A    between atoms: C_3  and  C_6
REMARK    5  A    between atoms: C_7  and  O_8
REMARK    6  A    between atoms: O_8  and  C_9
REMARK    7  A    between atoms: C_14  and  O_15
REMARK    8  A    between atoms: O_15  and  C_16
REMARK    9  A    between atoms: C_17  and  C_18
REMARK                            x       y       z     vdW  Elec       q    Type
REMARK                         _______ _______ _______ _____ _____    ______ ____
ROOT
ATOM      1  C   UNL     1       4.480   5.123  17.229  0.00  0.00    +0.000 A 
ATOM      2  C   UNL     1       4.019   4.052  17.917  0.00  0.00    +0.000 A 
ATOM      3  O   UNL     1       3.243   4.157  19.077  0.00  0.00    +0.000 OA
ATOM      4  C   UNL     1       2.692   5.359  19.421  0.00  0.00    +0.000 A 
ATOM      5  C   UNL     1       1.852   5.393  20.533  0.00  0.00    +0.000 A 
ATOM      6  C   UNL     1       1.267   6.601  20.930  0.00  0.00    +0.000 A 
ATOM      7  C   UNL     1       1.458   7.764  20.177  0.00  0.00    +0.000 A 
ATOM      8  C   UNL     1       2.271   7.725  19.029  0.00  0.00    +0.000 A 
ATOM      9  C   UNL     1       2.407   8.941  18.144  0.00  0.00    +0.000 C 
ATOM     10  C   UNL     1       2.949   6.522  18.721  0.00  0.00    +0.000 A 
ATOM     11  C   UNL     1       4.060   6.456  17.762  0.00  0.00    +0.000 A 
ATOM     12  O   UNL     1       4.670   7.484  17.488  0.00  0.00    +0.000 OA
ENDROOT
BRANCH   1  13
ATOM     13  C   UNL     1       5.460   5.150  16.011  0.00  0.00    +0.000 C 
ATOM     14  C   UNL     1       6.947   5.026  16.459  0.00  0.00    +0.000 C 
ATOM     15  C   UNL     1       5.408   6.478  15.209  0.00  0.00    +0.000 C 
BRANCH  13  17
ATOM     16  C   UNL     1       5.528   3.737  13.843  0.00  0.00    +0.000 C 
ATOM     17  C   UNL     1       5.152   3.944  15.114  0.00  0.00    +0.000 C 
ENDBRANCH  13  17
ENDBRANCH   1  13
BRANCH   2  18
ATOM     18  O   UNL     1       4.386   2.775  17.520  0.00  0.00    +0.000 OA
ATOM     19  C   UNL     1       3.564   1.735  18.047  0.00  0.00    +0.000 C 
ENDBRANCH   2  18
BRANCH   7  20
ATOM     20  O   UNL     1       0.904   8.982  20.475  0.00  0.00    +0.000 OA
ATOM     21  C   UNL     1      -0.123   9.029  21.454  0.00  0.00    +0.000 C 
ENDBRANCH   7  20
TORSDOF 4
ENDMDL
MODEL 9
REMARK VINA RESULT:      -6.2      1.508      3.510
REMARK  Name = 
REMARK  9 active torsions:
REMARK  status: ('A' for Active; 'I' for Inactive)
REMARK    1  A    between atoms: C_2  and  C_3
REMARK    2  A    between atoms: C_3  and  C_4
REMARK    3  A    between atoms: C_3  and  C_5
REMARK    4  A    between atoms: C_3  and  C_6
REMARK    5  A    between atoms: C_7  and  O_8
REMARK    6  A    between atoms: O_8  and  C_9
REMARK    7  A    between atoms: C_14  and  O_15
REMARK    8  A    between atoms: O_15  and  C_16
REMARK    9  A    between atoms: C_17  and  C_18
REMARK                            x       y       z     vdW  Elec       q    Type
REMARK                         _______ _______ _______ _____ _____    ______ ____
ROOT
ATOM      1  C   UNL     1       3.058   5.467  18.955  0.00  0.00    +0.000 A 
ATOM      2  C   UNL     1       2.444   5.036  20.082  0.00  0.00    +0.000 A 
ATOM      3  O   UNL     1       1.799   5.890  20.984  0.00  0.00    +0.000 OA
ATOM      4  C   UNL     1       1.532   7.182  20.625  0.00  0.00    +0.000 A 
ATOM      5  C   UNL     1       0.806   7.967  21.520  0.00  0.00    +0.000 A 
ATOM      6  C   UNL     1       0.512   9.298  21.203  0.00  0.00    +0.000 A 
ATOM      7  C   UNL     1       0.876   9.829  19.961  0.00  0.00    +0.000 A 
ATOM      8  C   UNL     1       1.572   9.027  19.037  0.00  0.00    +0.000 A 
ATOM      9  C   UNL     1       1.883   9.546  17.653  0.00  0.00    +0.000 C 
ATOM     10  C   UNL     1       1.965   7.727  19.432  0.00  0.00    +0.000 A 
ATOM     11  C   UNL     1       2.961   6.937  18.694  0.00  0.00    +0.000 A 
ATOM     12  O   UNL     1       3.744   7.515  17.949  0.00  0.00    +0.000 OA
ENDROOT
BRANCH   1  13
ATOM     13  C   UNL     1       3.925   4.648  17.945  0.00  0.00    +0.000 C 
ATOM     14  C   UNL     1       3.102   3.523  17.251  0.00  0.00    +0.000 C 
ATOM     15  C   UNL     1       5.110   3.902  18.615  0.00  0.00    +0.000 C 
BRANCH  13  17
ATOM     16  C   UNL     1       5.285   5.346  15.855  0.00  0.00    +0.000 C 
ATOM     17  C   UNL     1       4.415   5.600  16.844  0.00  0.00    +0.000 C 
ENDBRANCH  13  17
ENDBRANCH   1  13
BRANCH   2  18
ATOM     18  O   UNL     1       2.512   3.695  20.427  0.00  0.00    +0.000 OA
ATOM     19  C   UNL     1       1.262   3.120  20.805  0.00  0.00    +0.000 C 
ENDBRANCH   2  18
BRANCH   7  20
ATOM     20  O   UNL     1       0.606  11.110  19.555  0.00  0.00    +0.000 OA
ATOM     21  C   UNL     1       1.006  12.179  20.400  0.00  0.00    +0.000 C 
ENDBRANCH   7  20
TORSDOF 4
ENDMDL
