MODEL 1
REMARK VINA RESULT:      -8.1      0.000      0.000
REMARK  Name = 
REMARK  7 active torsions:
REMARK  status: ('A' for Active; 'I' for Inactive)
REMARK    1  A    between atoms: C_1  and  C_2
REMARK    2  A    between atoms: C_2  and  N_3
REMARK    3  A    between atoms: C_2  and  C_13
REMARK    4  A    between atoms: N_3  and  C_4
REMARK    5  A    between atoms: C_4  and  C_5
REMARK    6  A    between atoms: C_4  and  C_6
REMARK    7  A    between atoms: N_18  and  C_19
REMARK                            x       y       z     vdW  Elec       q    Type
REMARK                         _______ _______ _______ _____ _____    ______ ____
ROOT
ATOM      1  C   UNL     1       7.397   4.905  18.273  0.00  0.00    +0.000 C 
ATOM      2  C   UNL     1       5.936   4.721  17.848  0.00  0.00    +0.000 C 
ENDROOT
BRANCH   2   3
ATOM      3  C   UNL     1       5.877   4.476  16.337  0.00  0.00    +0.000 C 
ATOM      4  O   UNL     1       5.026   3.735  15.844  0.00  0.00    +0.000 OA
ATOM      5  N   UNL     1       6.790   5.183  15.580  0.00  0.00    +0.000 N 
ATOM      6  C   UNL     1       7.040   4.969  14.235  0.00  0.00    +0.000 C 
ATOM      7  O   UNL     1       7.974   5.540  13.675  0.00  0.00    +0.000 OA
ATOM      8  N   UNL     1       6.194   4.079  13.633  0.00  0.00    +0.000 N 
ATOM      9  H   UNL     1       7.482   5.731  16.059  0.00  0.00    +0.000 HD
ATOM     10  H   UNL     1       5.546   3.599  14.252  0.00  0.00    +0.000 HD
BRANCH   8  11
ATOM     11  C   UNL     1       6.211   3.667  12.274  0.00  0.00    +0.000 C 
ATOM     12  C   UNL     1       5.977   2.207  11.973  0.00  0.00    +0.000 C 
ATOM     13  C   UNL     1       4.950   3.229  11.586  0.00  0.00    +0.000 C 
ENDBRANCH   8  11
ENDBRANCH   2   3
BRANCH   2  14
ATOM     14  N   UNL     1       4.998   5.764  18.314  0.00  0.00    +0.000 NA
ATOM     15  H   UNL     1       4.544   6.141  17.479  0.00  0.00    +0.000 HD
BRANCH  14  16
ATOM     16  C   UNL     1       3.924   5.392  19.267  0.00  0.00    +0.000 C 
ATOM     17  C   UNL     1       2.841   6.474  19.400  0.00  0.00    +0.000 C 
BRANCH  16  18
ATOM     18  C   UNL     1       3.269   4.075  18.750  0.00  0.00    +0.000 C 
ATOM     19  C   UNL     1       1.785   4.211  18.318  0.00  0.00    +0.000 C 
ATOM     20  C   UNL     1       1.086   3.084  19.087  0.00  0.00    +0.000 C 
ATOM     21  C   UNL     1       1.042   3.477  20.575  0.00  0.00    +0.000 C 
ATOM     22  C   UNL     1       2.484   3.224  21.038  0.00  0.00    +0.000 C 
ATOM     23  C   UNL     1       3.207   2.866  19.731  0.00  0.00    +0.000 C 
ATOM     24  C   UNL     1       2.144   1.987  19.059  0.00  0.00    +0.000 C 
ENDBRANCH  16  18
ENDBRANCH  14  16
ENDBRANCH   2  14
TORSDOF 5
ENDMDL
MODEL 2
REMARK VINA RESULT:      -7.9      1.014      1.983
REMARK  Name = 
REMARK  7 active torsions:
REMARK  status: ('A' for Active; 'I' for Inactive)
REMARK    1  A    between atoms: C_1  and  C_2
REMARK    2  A    between atoms: C_2  and  N_3
REMARK    3  A    between atoms: C_2  and  C_13
REMARK    4  A    between atoms: N_3  and  C_4
REMARK    5  A    between atoms: C_4  and  C_5
REMARK    6  A    between atoms: C_4  and  C_6
REMARK    7  A    between atoms: N_18  and  C_19
REMARK                            x       y       z     vdW  Elec       q    Type
REMARK                         _______ _______ _______ _____ _____    ______ ____
ROOT
ATOM      1  C   UNL     1       5.212   6.023  18.228  0.00  0.00    +0.000 C 
ATOM      2  C   UNL     1       5.954   4.722  17.899  0.00  0.00    +0.000 C 
ENDROOT
BRANCH   2   3
ATOM      3  C   UNL     1       5.896   4.476  16.389  0.00  0.00    +0.000 C 
ATOM      4  O   UNL     1       5.052   3.726  15.896  0.00  0.00    +0.000 OA
ATOM      5  N   UNL     1       6.802   5.191  15.630  0.00  0.00    +0.000 N 
ATOM      6  C   UNL     1       7.054   4.978  14.286  0.00  0.00    +0.000 C 
ATOM      7  O   UNL     1       7.981   5.558  13.724  0.00  0.00    +0.000 OA
ATOM      8  N   UNL     1       6.216   4.080  13.685  0.00  0.00    +0.000 N 
ATOM      9  H   UNL     1       7.489   5.746  16.109  0.00  0.00    +0.000 HD
ATOM     10  H   UNL     1       5.573   3.594  14.304  0.00  0.00    +0.000 HD
BRANCH   8  11
ATOM     11  C   UNL     1       6.237   3.667  12.326  0.00  0.00    +0.000 C 
ATOM     12  C   UNL     1       5.996   2.208  12.025  0.00  0.00    +0.000 C 
ATOM     13  C   UNL     1       4.976   3.235  11.633  0.00  0.00    +0.000 C 
ENDBRANCH   8  11
ENDBRANCH   2   3
BRANCH   2  14
ATOM     14  N   UNL     1       5.566   3.545  18.704  0.00  0.00    +0.000 NA
ATOM     15  H   UNL     1       5.716   3.799  19.683  0.00  0.00    +0.000 HD
BRANCH  14  16
ATOM     16  C   UNL     1       4.182   3.022  18.595  0.00  0.00    +0.000 C 
ATOM     17  C   UNL     1       4.103   1.497  18.762  0.00  0.00    +0.000 C 
BRANCH  16  18
ATOM     18  C   UNL     1       3.330   3.703  19.708  0.00  0.00    +0.000 C 
ATOM     19  C   UNL     1       2.680   2.724  20.721  0.00  0.00    +0.000 C 
ATOM     20  C   UNL     1       1.205   3.142  20.725  0.00  0.00    +0.000 C 
ATOM     21  C   UNL     1       0.583   2.705  19.386  0.00  0.00    +0.000 C 
ATOM     22  C   UNL     1       1.125   3.749  18.399  0.00  0.00    +0.000 C 
ATOM     23  C   UNL     1       2.107   4.557  19.261  0.00  0.00    +0.000 C 
ATOM     24  C   UNL     1       1.312   4.655  20.569  0.00  0.00    +0.000 C 
ENDBRANCH  16  18
ENDBRANCH  14  16
ENDBRANCH   2  14
TORSDOF 5
ENDMDL
MODEL 3
REMARK VINA RESULT:      -7.6      0.803      1.499
REMARK  Name = 
REMARK  7 active torsions:
REMARK  status: ('A' for Active; 'I' for Inactive)
REMARK    1  A    between atoms: C_1  and  C_2
REMARK    2  A    between atoms: C_2  and  N_3
REMARK    3  A    between atoms: C_2  and  C_13
REMARK    4  A    between atoms: N_3  and  C_4
REMARK    5  A    between atoms: C_4  and  C_5
REMARK    6  A    between atoms: C_4  and  C_6
REMARK    7  A    between atoms: N_18  and  C_19
REMARK                            x       y       z     vdW  Elec       q    Type
REMARK                         _______ _______ _______ _____ _____    ______ ____
ROOT
ATOM      1  C   UNL     1       6.992   5.650  18.437  0.00  0.00    +0.000 C 
ATOM      2  C   UNL     1       6.272   4.352  18.055  0.00  0.00    +0.000 C 
ENDROOT
BRANCH   2   3
ATOM      3  C   UNL     1       6.124   4.285  16.532  0.00  0.00    +0.000 C 
ATOM      4  O   UNL     1       5.204   3.655  16.008  0.00  0.00    +0.000 OA
ATOM      5  N   UNL     1       7.043   5.019  15.808  0.00  0.00    +0.000 N 
ATOM      6  C   UNL     1       7.212   4.945  14.436  0.00  0.00    +0.000 C 
ATOM      7  O   UNL     1       8.152   5.521  13.891  0.00  0.00    +0.000 OA
ATOM      8  N   UNL     1       6.282   4.181  13.787  0.00  0.00    +0.000 N 
ATOM      9  H   UNL     1       7.791   5.467  16.306  0.00  0.00    +0.000 HD
ATOM     10  H   UNL     1       5.636   3.671  14.384  0.00  0.00    +0.000 HD
BRANCH   8  11
ATOM     11  C   UNL     1       6.207   3.926  12.392  0.00  0.00    +0.000 C 
ATOM     12  C   UNL     1       6.419   2.509  11.918  0.00  0.00    +0.000 C 
ATOM     13  C   UNL     1       5.064   3.143  11.813  0.00  0.00    +0.000 C 
ENDBRANCH   8  11
ENDBRANCH   2   3
BRANCH   2  14
ATOM     14  N   UNL     1       5.015   4.080  18.783  0.00  0.00    +0.000 NA
ATOM     15  H   UNL     1       5.258   3.472  19.567  0.00  0.00    +0.000 HD
BRANCH  14  16
ATOM     16  C   UNL     1       4.243   5.220  19.336  0.00  0.00    +0.000 C 
ATOM     17  C   UNL     1       3.714   6.167  18.247  0.00  0.00    +0.000 C 
BRANCH  16  18
ATOM     18  C   UNL     1       3.038   4.634  20.131  0.00  0.00    +0.000 C 
ATOM     19  C   UNL     1       3.150   3.123  20.466  0.00  0.00    +0.000 C 
ATOM     20  C   UNL     1       1.819   2.548  19.968  0.00  0.00    +0.000 C 
ATOM     21  C   UNL     1       1.842   2.557  18.428  0.00  0.00    +0.000 C 
ATOM     22  C   UNL     1       1.606   4.035  18.090  0.00  0.00    +0.000 C 
ATOM     23  C   UNL     1       1.630   4.711  19.469  0.00  0.00    +0.000 C 
ATOM     24  C   UNL     1       0.851   3.680  20.296  0.00  0.00    +0.000 C 
ENDBRANCH  16  18
ENDBRANCH  14  16
ENDBRANCH   2  14
TORSDOF 5
ENDMDL
MODEL 4
REMARK VINA RESULT:      -7.5      0.882      1.200
REMARK  Name = 
REMARK  7 active torsions:
REMARK  status: ('A' for Active; 'I' for Inactive)
REMARK    1  A    between atoms: C_1  and  C_2
REMARK    2  A    between atoms: C_2  and  N_3
REMARK    3  A    between atoms: C_2  and  C_13
REMARK    4  A    between atoms: N_3  and  C_4
REMARK    5  A    between atoms: C_4  and  C_5
REMARK    6  A    between atoms: C_4  and  C_6
REMARK    7  A    between atoms: N_18  and  C_19
REMARK                            x       y       z     vdW  Elec       q    Type
REMARK                         _______ _______ _______ _____ _____    ______ ____
ROOT
ATOM      1  C   UNL     1       6.401   5.975  18.632  0.00  0.00    +0.000 C 
ATOM      2  C   UNL     1       5.137   5.248  18.157  0.00  0.00    +0.000 C 
ENDROOT
BRANCH   2   3
ATOM      3  C   UNL     1       5.355   4.735  16.730  0.00  0.00    +0.000 C 
ATOM      4  O   UNL     1       4.611   3.887  16.236  0.00  0.00    +0.000 OA
ATOM      5  N   UNL     1       6.389   5.328  16.032  0.00  0.00    +0.000 N 
ATOM      6  C   UNL     1       6.881   4.887  14.816  0.00  0.00    +0.000 C 
ATOM      7  O   UNL     1       7.899   5.382  14.337  0.00  0.00    +0.000 OA
ATOM      8  N   UNL     1       6.161   3.874  14.245  0.00  0.00    +0.000 N 
ATOM      9  H   UNL     1       6.981   5.978  16.520  0.00  0.00    +0.000 HD
ATOM     10  H   UNL     1       5.413   3.488  14.815  0.00  0.00    +0.000 HD
BRANCH   8  11
ATOM     11  C   UNL     1       6.428   3.227  13.009  0.00  0.00    +0.000 C 
ATOM     12  C   UNL     1       5.351   3.247  11.951  0.00  0.00    +0.000 C 
ATOM     13  C   UNL     1       6.620   4.021  11.749  0.00  0.00    +0.000 C 
ENDBRANCH   8  11
ENDBRANCH   2   3
BRANCH   2  14
ATOM     14  N   UNL     1       3.870   5.989  18.330  0.00  0.00    +0.000 NA
ATOM     15  H   UNL     1       3.277   5.741  17.536  0.00  0.00    +0.000 HD
BRANCH  14  16
ATOM     16  C   UNL     1       3.071   5.768  19.560  0.00  0.00    +0.000 C 
ATOM     17  C   UNL     1       2.277   7.012  19.990  0.00  0.00    +0.000 C 
BRANCH  16  18
ATOM     18  C   UNL     1       2.077   4.602  19.275  0.00  0.00    +0.000 C 
ATOM     19  C   UNL     1       0.970   4.412  20.347  0.00  0.00    +0.000 C 
ATOM     20  C   UNL     1       1.064   2.922  20.695  0.00  0.00    +0.000 C 
ATOM     21  C   UNL     1       2.357   2.701  21.501  0.00  0.00    +0.000 C 
ATOM     22  C   UNL     1       3.448   2.764  20.423  0.00  0.00    +0.000 C 
ATOM     23  C   UNL     1       2.664   3.163  19.164  0.00  0.00    +0.000 C 
ATOM     24  C   UNL     1       1.402   2.308  19.340  0.00  0.00    +0.000 C 
ENDBRANCH  16  18
ENDBRANCH  14  16
ENDBRANCH   2  14
TORSDOF 5
ENDMDL
MODEL 5
REMARK VINA RESULT:      -7.4      1.060      1.552
REMARK  Name = 
REMARK  7 active torsions:
REMARK  status: ('A' for Active; 'I' for Inactive)
REMARK    1  A    between atoms: C_1  and  C_2
REMARK    2  A    between atoms: C_2  and  N_3
REMARK    3  A    between atoms: C_2  and  C_13
REMARK    4  A    between atoms: N_3  and  C_4
REMARK    5  A    between atoms: C_4  and  C_5
REMARK    6  A    between atoms: C_4  and  C_6
REMARK    7  A    between atoms: N_18  and  C_19
REMARK                            x       y       z     vdW  Elec       q    Type
REMARK                         _______ _______ _______ _____ _____    ______ ____
ROOT
ATOM      1  C   UNL     1       5.851   6.173  17.622  0.00  0.00    +0.000 C 
ATOM      2  C   UNL     1       6.099   4.671  17.441  0.00  0.00    +0.000 C 
ENDROOT
BRANCH   2   3
ATOM      3  C   UNL     1       6.057   4.328  15.949  0.00  0.00    +0.000 C 
ATOM      4  O   UNL     1       5.348   3.415  15.524  0.00  0.00    +0.000 OA
ATOM      5  N   UNL     1       6.810   5.142  15.126  0.00  0.00    +0.000 N 
ATOM      6  C   UNL     1       7.070   4.895  13.789  0.00  0.00    +0.000 C 
ATOM      7  O   UNL     1       7.871   5.592  13.169  0.00  0.00    +0.000 OA
ATOM      8  N   UNL     1       6.390   3.831  13.264  0.00  0.00    +0.000 N 
ATOM      9  H   UNL     1       7.399   5.835  15.553  0.00  0.00    +0.000 HD
ATOM     10  H   UNL     1       5.854   3.279  13.928  0.00  0.00    +0.000 HD
BRANCH   8  11
ATOM     11  C   UNL     1       6.458   3.347  11.930  0.00  0.00    +0.000 C 
ATOM     12  C   UNL     1       6.666   1.866  11.723  0.00  0.00    +0.000 C 
ATOM     13  C   UNL     1       5.355   2.499  11.362  0.00  0.00    +0.000 C 
ENDBRANCH   8  11
ENDBRANCH   2   3
BRANCH   2  14
ATOM     14  N   UNL     1       5.264   3.780  18.275  0.00  0.00    +0.000 NA
ATOM     15  H   UNL     1       5.773   3.641  19.151  0.00  0.00    +0.000 HD
BRANCH  14  16
ATOM     16  C   UNL     1       3.889   4.207  18.630  0.00  0.00    +0.000 C 
ATOM     17  C   UNL     1       2.880   3.978  17.493  0.00  0.00    +0.000 C 
BRANCH  16  18
ATOM     18  C   UNL     1       3.446   3.387  19.878  0.00  0.00    +0.000 C 
ATOM     19  C   UNL     1       2.363   2.311  19.600  0.00  0.00    +0.000 C 
ATOM     20  C   UNL     1       1.287   2.609  20.652  0.00  0.00    +0.000 C 
ATOM     21  C   UNL     1       0.577   3.915  20.250  0.00  0.00    +0.000 C 
ATOM     22  C   UNL     1       1.597   4.994  20.639  0.00  0.00    +0.000 C 
ATOM     23  C   UNL     1       2.820   4.169  21.071  0.00  0.00    +0.000 C 
ATOM     24  C   UNL     1       2.132   3.039  21.846  0.00  0.00    +0.000 C 
ENDBRANCH  16  18
ENDBRANCH  14  16
ENDBRANCH   2  14
TORSDOF 5
ENDMDL
MODEL 6
REMARK VINA RESULT:      -7.3      1.175      2.094
REMARK  Name = 
REMARK  7 active torsions:
REMARK  status: ('A' for Active; 'I' for Inactive)
REMARK    1  A    between atoms: C_1  and  C_2
REMARK    2  A    between atoms: C_2  and  N_3
REMARK    3  A    between atoms: C_2  and  C_13
REMARK    4  A    between atoms: N_3  and  C_4
REMARK    5  A    between atoms: C_4  and  C_5
REMARK    6  A    between atoms: C_4  and  C_6
REMARK    7  A    between atoms: N_18  and  C_19
REMARK                            x       y       z     vdW  Elec       q    Type
REMARK                         _______ _______ _______ _____ _____    ______ ____
ROOT
ATOM      1  C   UNL     1       3.788   7.018  17.742  0.00  0.00    +0.000 C 
ATOM      2  C   UNL     1       5.049   6.154  17.863  0.00  0.00    +0.000 C 
ENDROOT
BRANCH   2   3
ATOM      3  C   UNL     1       5.290   5.423  16.539  0.00  0.00    +0.000 C 
ATOM      4  O   UNL     1       4.473   4.613  16.099  0.00  0.00    +0.000 OA
ATOM      5  N   UNL     1       6.437   5.780  15.858  0.00  0.00    +0.000 N 
ATOM      6  C   UNL     1       6.945   5.115  14.755  0.00  0.00    +0.000 C 
ATOM      7  O   UNL     1       8.049   5.408  14.303  0.00  0.00    +0.000 OA
ATOM      8  N   UNL     1       6.135   4.129  14.263  0.00  0.00    +0.000 N 
ATOM      9  H   UNL     1       7.077   6.413  16.305  0.00  0.00    +0.000 HD
ATOM     10  H   UNL     1       5.306   3.922  14.814  0.00  0.00    +0.000 HD
BRANCH   8  11
ATOM     11  C   UNL     1       6.394   3.286  13.149  0.00  0.00    +0.000 C 
ATOM     12  C   UNL     1       5.379   3.256  12.032  0.00  0.00    +0.000 C 
ATOM     13  C   UNL     1       6.729   3.868  11.805  0.00  0.00    +0.000 C 
ENDBRANCH   8  11
ENDBRANCH   2   3
BRANCH   2  14
ATOM     14  N   UNL     1       5.105   5.267  19.045  0.00  0.00    +0.000 NA
ATOM     15  H   UNL     1       4.806   5.829  19.844  0.00  0.00    +0.000 HD
BRANCH  14  16
ATOM     16  C   UNL     1       4.291   4.027  19.052  0.00  0.00    +0.000 C 
ATOM     17  C   UNL     1       5.068   2.805  19.566  0.00  0.00    +0.000 C 
BRANCH  16  18
ATOM     18  C   UNL     1       3.060   4.274  19.976  0.00  0.00    +0.000 C 
ATOM     19  C   UNL     1       2.658   3.067  20.864  0.00  0.00    +0.000 C 
ATOM     20  C   UNL     1       1.160   2.903  20.585  0.00  0.00    +0.000 C 
ATOM     21  C   UNL     1       0.999   2.343  19.159  0.00  0.00    +0.000 C 
ATOM     22  C   UNL     1       1.275   3.568  18.276  0.00  0.00    +0.000 C 
ATOM     23  C   UNL     1       1.706   4.634  19.294  0.00  0.00    +0.000 C 
ATOM     24  C   UNL     1       0.713   4.353  20.429  0.00  0.00    +0.000 C 
ENDBRANCH  16  18
ENDBRANCH  14  16
ENDBRANCH   2  14
TORSDOF 5
ENDMDL
MODEL 7
REMARK VINA RESULT:      -7.1      1.058      1.537
REMARK  Name = 
REMARK  7 active torsions:
REMARK  status: ('A' for Active; 'I' for Inactive)
REMARK    1  A    between atoms: C_1  and  C_2
REMARK    2  A    between atoms: C_2  and  N_3
REMARK    3  A    between atoms: C_2  and  C_13
REMARK    4  A    between atoms: N_3  and  C_4
REMARK    5  A    between atoms: C_4  and  C_5
REMARK    6  A    between atoms: C_4  and  C_6
REMARK    7  A    between atoms: N_18  and  C_19
REMARK                            x       y       z     vdW  Elec       q    Type
REMARK                         _______ _______ _______ _____ _____    ______ ____
ROOT
ATOM      1  C   UNL     1       6.927   5.541  18.519  0.00  0.00    +0.000 C 
ATOM      2  C   UNL     1       6.217   4.236  18.138  0.00  0.00    +0.000 C 
ENDROOT
BRANCH   2   3
ATOM      3  C   UNL     1       6.106   4.148  16.613  0.00  0.00    +0.000 C 
ATOM      4  O   UNL     1       5.289   3.399  16.075  0.00  0.00    +0.000 OA
ATOM      5  N   UNL     1       6.931   4.998  15.903  0.00  0.00    +0.000 N 
ATOM      6  C   UNL     1       7.134   4.945  14.534  0.00  0.00    +0.000 C 
ATOM      7  O   UNL     1       7.998   5.642  14.004  0.00  0.00    +0.000 OA
ATOM      8  N   UNL     1       6.327   4.062  13.872  0.00  0.00    +0.000 N 
ATOM      9  H   UNL     1       7.603   5.544  16.412  0.00  0.00    +0.000 HD
ATOM     10  H   UNL     1       5.745   3.471  14.460  0.00  0.00    +0.000 HD
BRANCH   8  11
ATOM     11  C   UNL     1       6.313   3.797  12.477  0.00  0.00    +0.000 C 
ATOM     12  C   UNL     1       6.297   2.356  12.029  0.00  0.00    +0.000 C 
ATOM     13  C   UNL     1       5.093   3.223  11.815  0.00  0.00    +0.000 C 
ENDBRANCH   8  11
ENDBRANCH   2   3
BRANCH   2  14
ATOM     14  N   UNL     1       4.941   3.975  18.838  0.00  0.00    +0.000 NA
ATOM     15  H   UNL     1       4.208   4.425  18.285  0.00  0.00    +0.000 HD
BRANCH  14  16
ATOM     16  C   UNL     1       4.520   2.571  19.066  0.00  0.00    +0.000 C 
ATOM     17  C   UNL     1       4.589   2.158  20.545  0.00  0.00    +0.000 C 
BRANCH  16  18
ATOM     18  C   UNL     1       3.051   2.431  18.565  0.00  0.00    +0.000 C 
ATOM     19  C   UNL     1       2.525   3.635  17.740  0.00  0.00    +0.000 C 
ATOM     20  C   UNL     1       1.204   3.992  18.431  0.00  0.00    +0.000 C 
ATOM     21  C   UNL     1       1.536   4.633  19.791  0.00  0.00    +0.000 C 
ATOM     22  C   UNL     1       1.938   3.426  20.650  0.00  0.00    +0.000 C 
ATOM     23  C   UNL     1       1.934   2.269  19.639  0.00  0.00    +0.000 C 
ATOM     24  C   UNL     1       0.680   2.615  18.827  0.00  0.00    +0.000 C 
ENDBRANCH  16  18
ENDBRANCH  14  16
ENDBRANCH   2  14
TORSDOF 5
ENDMDL
MODEL 8
REMARK VINA RESULT:      -7.0      5.010      8.484
REMARK  Name = 
REMARK  7 active torsions:
REMARK  status: ('A' for Active; 'I' for Inactive)
REMARK    1  A    between atoms: C_1  and  C_2
REMARK    2  A    between atoms: C_2  and  N_3
REMARK    3  A    between atoms: C_2  and  C_13
REMARK    4  A    between atoms: N_3  and  C_4
REMARK    5  A    between atoms: C_4  and  C_5
REMARK    6  A    between atoms: C_4  and  C_6
REMARK    7  A    between atoms: N_18  and  C_19
REMARK                            x       y       z     vdW  Elec       q    Type
REMARK                         _______ _______ _______ _____ _____    ______ ____
ROOT
ATOM      1  C   UNL     1       2.554   8.390  18.190  0.00  0.00    +0.000 C 
ATOM      2  C   UNL     1       1.826   7.755  19.380  0.00  0.00    +0.000 C 
ENDROOT
BRANCH   2   3
ATOM      3  C   UNL     1       1.033   8.835  20.122  0.00  0.00    +0.000 C 
ATOM      4  O   UNL     1       0.418   9.709  19.509  0.00  0.00    +0.000 OA
ATOM      5  N   UNL     1       1.007   8.720  21.498  0.00  0.00    +0.000 N 
ATOM      6  C   UNL     1       0.522   9.683  22.365  0.00  0.00    +0.000 C 
ATOM      7  O   UNL     1       0.673   9.563  23.580  0.00  0.00    +0.000 OA
ATOM      8  N   UNL     1      -0.093  10.741  21.755  0.00  0.00    +0.000 N 
ATOM      9  H   UNL     1       1.571   8.007  21.926  0.00  0.00    +0.000 HD
ATOM     10  H   UNL     1      -0.037  10.759  20.740  0.00  0.00    +0.000 HD
BRANCH   8  11
ATOM     11  C   UNL     1      -0.680  11.870  22.386  0.00  0.00    +0.000 C 
ATOM     12  C   UNL     1      -1.892  12.494  21.738  0.00  0.00    +0.000 C 
ATOM     13  C   UNL     1      -2.027  11.770  23.044  0.00  0.00    +0.000 C 
ENDBRANCH   8  11
ENDBRANCH   2   3
BRANCH   2  14
ATOM     14  N   UNL     1       2.662   6.921  20.270  0.00  0.00    +0.000 NA
ATOM     15  H   UNL     1       2.380   7.144  21.227  0.00  0.00    +0.000 HD
BRANCH  14  16
ATOM     16  C   UNL     1       2.611   5.446  20.129  0.00  0.00    +0.000 C 
ATOM     17  C   UNL     1       1.240   4.857  20.496  0.00  0.00    +0.000 C 
BRANCH  16  18
ATOM     18  C   UNL     1       2.934   5.100  18.644  0.00  0.00    +0.000 C 
ATOM     19  C   UNL     1       1.818   4.319  17.900  0.00  0.00    +0.000 C 
ATOM     20  C   UNL     1       2.563   3.121  17.299  0.00  0.00    +0.000 C 
ATOM     21  C   UNL     1       2.936   2.166  18.449  0.00  0.00    +0.000 C 
ATOM     22  C   UNL     1       4.122   2.877  19.115  0.00  0.00    +0.000 C 
ATOM     23  C   UNL     1       4.185   4.216  18.363  0.00  0.00    +0.000 C 
ATOM     24  C   UNL     1       3.906   3.743  16.931  0.00  0.00    +0.000 C 
ENDBRANCH  16  18
ENDBRANCH  14  16
ENDBRANCH   2  14
TORSDOF 5
ENDMDL
MODEL 9
REMARK VINA RESULT:      -7.0      1.050      1.667
REMARK  Name = 
REMARK  7 active torsions:
REMARK  status: ('A' for Active; 'I' for Inactive)
REMARK    1  A    between atoms: C_1  and  C_2
REMARK    2  A    between atoms: C_2  and  N_3
REMARK    3  A    between atoms: C_2  and  C_13
REMARK    4  A    between atoms: N_3  and  C_4
REMARK    5  A    between atoms: C_4  and  C_5
REMARK    6  A    between atoms: C_4  and  C_6
REMARK    7  A    between atoms: N_18  and  C_19
REMARK                            x       y       z     vdW  Elec       q    Type
REMARK                         _______ _______ _______ _____ _____    ______ ____
ROOT
ATOM      1  C   UNL     1       7.564   6.637  17.425  0.00  0.00    +0.000 C 
ATOM      2  C   UNL     1       6.695   5.374  17.384  0.00  0.00    +0.000 C 
ENDROOT
BRANCH   2   3
ATOM      3  C   UNL     1       6.471   4.962  15.926  0.00  0.00    +0.000 C 
ATOM      4  O   UNL     1       5.536   4.225  15.608  0.00  0.00    +0.000 OA
ATOM      5  N   UNL     1       7.339   5.517  15.007  0.00  0.00    +0.000 N 
ATOM      6  C   UNL     1       7.440   5.135  13.680  0.00  0.00    +0.000 C 
ATOM      7  O   UNL     1       8.341   5.577  12.969  0.00  0.00    +0.000 OA
ATOM      8  N   UNL     1       6.491   4.238  13.272  0.00  0.00    +0.000 N 
ATOM      9  H   UNL     1       8.104   6.071  15.349  0.00  0.00    +0.000 HD
ATOM     10  H   UNL     1       5.885   3.874  14.003  0.00  0.00    +0.000 HD
BRANCH   8  11
ATOM     11  C   UNL     1       6.350   3.672  11.977  0.00  0.00    +0.000 C 
ATOM     12  C   UNL     1       6.162   2.179  11.872  0.00  0.00    +0.000 C 
ATOM     13  C   UNL     1       5.035   3.104  11.524  0.00  0.00    +0.000 C 
ENDBRANCH   8  11
ENDBRANCH   2   3
BRANCH   2  14
ATOM     14  N   UNL     1       5.451   5.428  18.180  0.00  0.00    +0.000 NA
ATOM     15  H   UNL     1       4.811   6.047  17.678  0.00  0.00    +0.000 HD
BRANCH  14  16
ATOM     16  C   UNL     1       4.717   4.169  18.455  0.00  0.00    +0.000 C 
ATOM     17  C   UNL     1       5.007   3.601  19.854  0.00  0.00    +0.000 C 
BRANCH  16  18
ATOM     18  C   UNL     1       3.194   4.472  18.333  0.00  0.00    +0.000 C 
ATOM     19  C   UNL     1       2.394   4.335  19.656  0.00  0.00    +0.000 C 
ATOM     20  C   UNL     1       1.228   3.417  19.274  0.00  0.00    +0.000 C 
ATOM     21  C   UNL     1       1.787   1.997  19.068  0.00  0.00    +0.000 C 
ATOM     22  C   UNL     1       2.474   2.094  17.698  0.00  0.00    +0.000 C 
ATOM     23  C   UNL     1       2.357   3.588  17.361  0.00  0.00    +0.000 C 
ATOM     24  C   UNL     1       0.930   3.871  17.849  0.00  0.00    +0.000 C 
ENDBRANCH  16  18
ENDBRANCH  14  16
ENDBRANCH   2  14
TORSDOF 5
ENDMDL
