MODEL 1
REMARK VINA RESULT:      -8.5      0.000      0.000
REMARK  Name = 
REMARK  2 active torsions:
REMARK  status: ('A' for Active; 'I' for Inactive)
REMARK    1  A    between atoms: C_1  and  C_2
REMARK    2  A    between atoms: N_14  and  C_15
REMARK                            x       y       z     vdW  Elec       q    Type
REMARK                         _______ _______ _______ _____ _____    ______ ____
ROOT
ATOM      1  C   UNL     1       4.419   3.993  17.886  0.00  0.00    +0.000 C 
ATOM      2  C   UNL     1       3.507   4.653  18.880  0.00  0.00    +0.000 A 
ATOM      3  C   UNL     1       3.070   3.952  20.004  0.00  0.00    +0.000 A 
ATOM      4  C   UNL     1       2.246   4.557  20.950  0.00  0.00    +0.000 A 
ATOM      5  C   UNL     1       1.872   5.888  20.736  0.00  0.00    +0.000 A 
ATOM      6  N   UNL     1       1.098   6.705  21.537  0.00  0.00    +0.000 N 
ATOM      7  C   UNL     1       0.967   7.970  21.004  0.00  0.00    +0.000 A 
ATOM      8  C   UNL     1       0.355   9.138  21.481  0.00  0.00    +0.000 A 
ATOM      9  C   UNL     1      -0.159   9.036  22.776  0.00  0.00    +0.000 A 
ATOM     10  C   UNL     1      -0.671  10.154  23.386  0.00  0.00    +0.000 A 
ATOM     11  C   UNL     1      -0.857  11.319  22.636  0.00  0.00    +0.000 A 
ATOM     12  C   UNL     1      -1.445  12.533  23.049  0.00  0.00    +0.000 A 
ATOM     13  C   UNL     1      -1.898  13.080  21.891  0.00  0.00    +0.000 A 
ATOM     14  N   UNL     1      -1.014  12.652  20.913  0.00  0.00    +0.000 N 
ATOM     15  C   UNL     1      -0.728  13.620  19.881  0.00  0.00    +0.000 C 
ATOM     16  C   UNL     1      -0.460  11.416  21.266  0.00  0.00    +0.000 A 
ATOM     17  C   UNL     1       0.314  10.340  20.682  0.00  0.00    +0.000 A 
ATOM     18  C   UNL     1       1.046  10.216  19.466  0.00  0.00    +0.000 A 
ATOM     19  C   UNL     1       1.712   9.012  18.997  0.00  0.00    +0.000 A 
ATOM     20  C   UNL     1       1.641   7.874  19.822  0.00  0.00    +0.000 A 
ATOM     21  C   UNL     1       2.262   6.631  19.612  0.00  0.00    +0.000 A 
ATOM     22  C   UNL     1       3.103   5.990  18.677  0.00  0.00    +0.000 A 
ATOM     23  C   UNL     1       2.372   9.260  17.754  0.00  0.00    +0.000 C 
ATOM     24  O   UNL     1       3.130   8.621  17.034  0.00  0.00    +0.000 OA
ATOM     25  N   UNL     1       2.018  10.546  17.479  0.00  0.00    +0.000 N 
ATOM     26  C   UNL     1       1.417  11.229  18.507  0.00  0.00    +0.000 C 
ATOM     27  O   UNL     1       1.406  12.450  18.507  0.00  0.00    +0.000 OA
ATOM     28  H   UNL     1       0.705   6.398  22.420  0.00  0.00    +0.000 HD
ATOM     29  H   UNL     1       2.471  11.028  16.740  0.00  0.00    +0.000 HD
ENDROOT
TORSDOF 0
ENDMDL
MODEL 2
REMARK VINA RESULT:      -7.5      2.325      4.435
REMARK  Name = 
REMARK  2 active torsions:
REMARK  status: ('A' for Active; 'I' for Inactive)
REMARK    1  A    between atoms: C_1  and  C_2
REMARK    2  A    between atoms: N_14  and  C_15
REMARK                            x       y       z     vdW  Elec       q    Type
REMARK                         _______ _______ _______ _____ _____    ______ ____
ROOT
ATOM      1  C   UNL     1       2.261   5.349  19.801  0.00  0.00    +0.000 C 
ATOM      2  C   UNL     1       2.145   6.788  19.387  0.00  0.00    +0.000 A 
ATOM      3  C   UNL     1       2.725   7.224  18.195  0.00  0.00    +0.000 A 
ATOM      4  C   UNL     1       2.604   8.548  17.782  0.00  0.00    +0.000 A 
ATOM      5  C   UNL     1       1.885   9.426  18.600  0.00  0.00    +0.000 A 
ATOM      6  N   UNL     1       1.602  10.762  18.393  0.00  0.00    +0.000 N 
ATOM      7  C   UNL     1       0.842  11.289  19.414  0.00  0.00    +0.000 A 
ATOM      8  C   UNL     1       0.257  12.550  19.603  0.00  0.00    +0.000 A 
ATOM      9  C   UNL     1       0.403  13.425  18.524  0.00  0.00    +0.000 A 
ATOM     10  C   UNL     1      -0.234  14.641  18.554  0.00  0.00    +0.000 A 
ATOM     11  C   UNL     1      -0.842  15.067  19.739  0.00  0.00    +0.000 A 
ATOM     12  C   UNL     1      -1.463  16.307  19.998  0.00  0.00    +0.000 A 
ATOM     13  C   UNL     1      -1.358  16.441  21.347  0.00  0.00    +0.000 A 
ATOM     14  N   UNL     1      -1.401  15.150  21.848  0.00  0.00    +0.000 N 
ATOM     15  C   UNL     1      -2.104  15.003  23.101  0.00  0.00    +0.000 C 
ATOM     16  C   UNL     1      -0.894  14.246  20.907  0.00  0.00    +0.000 A 
ATOM     17  C   UNL     1      -0.460  12.867  20.816  0.00  0.00    +0.000 A 
ATOM     18  C   UNL     1      -0.589  11.746  21.686  0.00  0.00    +0.000 A 
ATOM     19  C   UNL     1      -0.014  10.430  21.464  0.00  0.00    +0.000 A 
ATOM     20  C   UNL     1       0.722  10.241  20.278  0.00  0.00    +0.000 A 
ATOM     21  C   UNL     1       1.303   9.046  19.819  0.00  0.00    +0.000 A 
ATOM     22  C   UNL     1       1.438   7.695  20.204  0.00  0.00    +0.000 A 
ATOM     23  C   UNL     1      -0.370   9.543  22.526  0.00  0.00    +0.000 C 
ATOM     24  O   UNL     1      -0.227   8.346  22.740  0.00  0.00    +0.000 OA
ATOM     25  N   UNL     1      -1.056  10.357  23.376  0.00  0.00    +0.000 N 
ATOM     26  C   UNL     1      -1.393  11.590  22.875  0.00  0.00    +0.000 C 
ATOM     27  O   UNL     1      -2.301  12.229  23.381  0.00  0.00    +0.000 OA
ATOM     28  H   UNL     1       1.906  11.267  17.567  0.00  0.00    +0.000 HD
ATOM     29  H   UNL     1      -1.558   9.958  24.133  0.00  0.00    +0.000 HD
ENDROOT
TORSDOF 0
ENDMDL
MODEL 3
REMARK VINA RESULT:      -7.5      1.032      1.165
REMARK  Name = 
REMARK  2 active torsions:
REMARK  status: ('A' for Active; 'I' for Inactive)
REMARK    1  A    between atoms: C_1  and  C_2
REMARK    2  A    between atoms: N_14  and  C_15
REMARK                            x       y       z     vdW  Elec       q    Type
REMARK                         _______ _______ _______ _____ _____    ______ ____
ROOT
ATOM      1  C   UNL     1       4.598   5.662  17.130  0.00  0.00    +0.000 C 
ATOM      2  C   UNL     1       3.607   6.049  18.189  0.00  0.00    +0.000 A 
ATOM      3  C   UNL     1       3.189   5.112  19.135  0.00  0.00    +0.000 A 
ATOM      4  C   UNL     1       2.290   5.461  20.141  0.00  0.00    +0.000 A 
ATOM      5  C   UNL     1       1.821   6.779  20.170  0.00  0.00    +0.000 A 
ATOM      6  N   UNL     1       0.960   7.368  21.076  0.00  0.00    +0.000 N 
ATOM      7  C   UNL     1       0.749   8.699  20.791  0.00  0.00    +0.000 A 
ATOM      8  C   UNL     1       0.033   9.706  21.456  0.00  0.00    +0.000 A 
ATOM      9  C   UNL     1      -0.513   9.317  22.681  0.00  0.00    +0.000 A 
ATOM     10  C   UNL     1      -1.129  10.256  23.471  0.00  0.00    +0.000 A 
ATOM     11  C   UNL     1      -1.381  11.529  22.952  0.00  0.00    +0.000 A 
ATOM     12  C   UNL     1      -2.074  12.595  23.564  0.00  0.00    +0.000 A 
ATOM     13  C   UNL     1      -2.531  13.325  22.513  0.00  0.00    +0.000 A 
ATOM     14  N   UNL     1      -1.585  13.159  21.513  0.00  0.00    +0.000 N 
ATOM     15  C   UNL     1      -1.342  14.328  20.701  0.00  0.00    +0.000 C 
ATOM     16  C   UNL     1      -0.949  11.920  21.647  0.00  0.00    +0.000 A 
ATOM     17  C   UNL     1      -0.075  11.035  20.903  0.00  0.00    +0.000 A 
ATOM     18  C   UNL     1       0.703  11.204  19.721  0.00  0.00    +0.000 A 
ATOM     19  C   UNL     1       1.475  10.164  19.061  0.00  0.00    +0.000 A 
ATOM     20  C   UNL     1       1.466   8.884  19.647  0.00  0.00    +0.000 A 
ATOM     21  C   UNL     1       2.189   7.753  19.230  0.00  0.00    +0.000 A 
ATOM     22  C   UNL     1       3.107   7.368  18.229  0.00  0.00    +0.000 A 
ATOM     23  C   UNL     1       2.154  10.696  17.921  0.00  0.00    +0.000 C 
ATOM     24  O   UNL     1       2.982  10.265  17.127  0.00  0.00    +0.000 OA
ATOM     25  N   UNL     1       1.710  11.983  17.882  0.00  0.00    +0.000 N 
ATOM     26  C   UNL     1       1.025  12.407  18.994  0.00  0.00    +0.000 C 
ATOM     27  O   UNL     1       0.920  13.601  19.229  0.00  0.00    +0.000 OA
ATOM     28  H   UNL     1       0.564   6.867  21.864  0.00  0.00    +0.000 HD
ATOM     29  H   UNL     1       2.148  12.630  17.272  0.00  0.00    +0.000 HD
ENDROOT
TORSDOF 0
ENDMDL
MODEL 4
REMARK VINA RESULT:      -7.5      9.243     11.154
REMARK  Name = 
REMARK  2 active torsions:
REMARK  status: ('A' for Active; 'I' for Inactive)
REMARK    1  A    between atoms: C_1  and  C_2
REMARK    2  A    between atoms: N_14  and  C_15
REMARK                            x       y       z     vdW  Elec       q    Type
REMARK                         _______ _______ _______ _____ _____    ______ ____
ROOT
ATOM      1  C   UNL     1       6.261  14.595  27.640  0.00  0.00    +0.000 C 
ATOM      2  C   UNL     1       6.804  13.716  26.551  0.00  0.00    +0.000 A 
ATOM      3  C   UNL     1       6.631  12.333  26.614  0.00  0.00    +0.000 A 
ATOM      4  C   UNL     1       7.104  11.504  25.599  0.00  0.00    +0.000 A 
ATOM      5  C   UNL     1       7.760  12.104  24.518  0.00  0.00    +0.000 A 
ATOM      6  N   UNL     1       8.283  11.506  23.388  0.00  0.00    +0.000 N 
ATOM      7  C   UNL     1       8.834  12.431  22.527  0.00  0.00    +0.000 A 
ATOM      8  C   UNL     1       9.400  12.313  21.249  0.00  0.00    +0.000 A 
ATOM      9  C   UNL     1       9.333  11.030  20.702  0.00  0.00    +0.000 A 
ATOM     10  C   UNL     1       9.749  10.829  19.409  0.00  0.00    +0.000 A 
ATOM     11  C   UNL     1      10.417  11.856  18.736  0.00  0.00    +0.000 A 
ATOM     12  C   UNL     1      10.996  11.819  17.450  0.00  0.00    +0.000 A 
ATOM     13  C   UNL     1      11.959  12.776  17.504  0.00  0.00    +0.000 A 
ATOM     14  N   UNL     1      11.474  13.734  18.381  0.00  0.00    +0.000 N 
ATOM     15  C   UNL     1      11.795  15.098  18.035  0.00  0.00    +0.000 C 
ATOM     16  C   UNL     1      10.619  13.145  19.320  0.00  0.00    +0.000 A 
ATOM     17  C   UNL     1       9.964  13.457  20.574  0.00  0.00    +0.000 A 
ATOM     18  C   UNL     1       9.764  14.672  21.290  0.00  0.00    +0.000 A 
ATOM     19  C   UNL     1       9.139  14.791  22.597  0.00  0.00    +0.000 A 
ATOM     20  C   UNL     1       8.677  13.606  23.201  0.00  0.00    +0.000 A 
ATOM     21  C   UNL     1       7.983  13.486  24.417  0.00  0.00    +0.000 A 
ATOM     22  C   UNL     1       7.482  14.296  25.458  0.00  0.00    +0.000 A 
ATOM     23  C   UNL     1       9.079  16.162  22.999  0.00  0.00    +0.000 C 
ATOM     24  O   UNL     1       8.570  16.769  23.933  0.00  0.00    +0.000 OA
ATOM     25  N   UNL     1       9.732  16.798  21.987  0.00  0.00    +0.000 N 
ATOM     26  C   UNL     1       9.987  16.035  20.874  0.00  0.00    +0.000 C 
ATOM     27  O   UNL     1      10.210  16.575  19.801  0.00  0.00    +0.000 OA
ATOM     28  H   UNL     1       8.234  10.507  23.221  0.00  0.00    +0.000 HD
ATOM     29  H   UNL     1       9.701  17.787  21.934  0.00  0.00    +0.000 HD
ENDROOT
TORSDOF 0
ENDMDL
MODEL 5
REMARK VINA RESULT:      -7.5      5.569      7.198
REMARK  Name = 
REMARK  2 active torsions:
REMARK  status: ('A' for Active; 'I' for Inactive)
REMARK    1  A    between atoms: C_1  and  C_2
REMARK    2  A    between atoms: N_14  and  C_15
REMARK                            x       y       z     vdW  Elec       q    Type
REMARK                         _______ _______ _______ _____ _____    ______ ____
ROOT
ATOM      1  C   UNL     1       3.933  14.288  21.232  0.00  0.00    +0.000 C 
ATOM      2  C   UNL     1       2.799  13.855  20.348  0.00  0.00    +0.000 A 
ATOM      3  C   UNL     1       3.032  13.554  19.006  0.00  0.00    +0.000 A 
ATOM      4  C   UNL     1       1.997  13.124  18.178  0.00  0.00    +0.000 A 
ATOM      5  C   UNL     1       0.720  13.007  18.735  0.00  0.00    +0.000 A 
ATOM      6  N   UNL     1      -0.447  12.576  18.134  0.00  0.00    +0.000 N 
ATOM      7  C   UNL     1      -1.507  12.572  19.015  0.00  0.00    +0.000 A 
ATOM      8  C   UNL     1      -2.839  12.151  18.889  0.00  0.00    +0.000 A 
ATOM      9  C   UNL     1      -3.144  11.550  17.666  0.00  0.00    +0.000 A 
ATOM     10  C   UNL     1      -4.386  10.993  17.483  0.00  0.00    +0.000 A 
ATOM     11  C   UNL     1      -5.384  11.215  18.435  0.00  0.00    +0.000 A 
ATOM     12  C   UNL     1      -6.735  10.810  18.389  0.00  0.00    +0.000 A 
ATOM     13  C   UNL     1      -7.367  11.711  19.185  0.00  0.00    +0.000 A 
ATOM     14  N   UNL     1      -6.437  12.063  20.150  0.00  0.00    +0.000 N 
ATOM     15  C   UNL     1      -6.980  12.288  21.469  0.00  0.00    +0.000 C 
ATOM     16  C   UNL     1      -5.139  11.941  19.642  0.00  0.00    +0.000 A 
ATOM     17  C   UNL     1      -3.778  12.310  19.974  0.00  0.00    +0.000 A 
ATOM     18  C   UNL     1      -3.168  12.811  21.160  0.00  0.00    +0.000 A 
ATOM     19  C   UNL     1      -1.775  13.207  21.294  0.00  0.00    +0.000 A 
ATOM     20  C   UNL     1      -0.955  13.071  20.158  0.00  0.00    +0.000 A 
ATOM     21  C   UNL     1       0.425  13.320  20.071  0.00  0.00    +0.000 A 
ATOM     22  C   UNL     1       1.498  13.744  20.884  0.00  0.00    +0.000 A 
ATOM     23  C   UNL     1      -1.504  13.633  22.631  0.00  0.00    +0.000 C 
ATOM     24  O   UNL     1      -0.496  13.949  23.251  0.00  0.00    +0.000 OA
ATOM     25  N   UNL     1      -2.729  13.564  23.221  0.00  0.00    +0.000 N 
ATOM     26  C   UNL     1      -3.701  12.917  22.497  0.00  0.00    +0.000 C 
ATOM     27  O   UNL     1      -4.689  12.473  23.060  0.00  0.00    +0.000 OA
ATOM     28  H   UNL     1      -0.489  12.277  17.165  0.00  0.00    +0.000 HD
ATOM     29  H   UNL     1      -2.802  13.658  24.205  0.00  0.00    +0.000 HD
ENDROOT
TORSDOF 0
ENDMDL
MODEL 6
REMARK VINA RESULT:      -7.4      1.314      1.838
REMARK  Name = 
REMARK  2 active torsions:
REMARK  status: ('A' for Active; 'I' for Inactive)
REMARK    1  A    between atoms: C_1  and  C_2
REMARK    2  A    between atoms: N_14  and  C_15
REMARK                            x       y       z     vdW  Elec       q    Type
REMARK                         _______ _______ _______ _____ _____    ______ ____
ROOT
ATOM      1  C   UNL     1       3.962   5.844  18.009  0.00  0.00    +0.000 C 
ATOM      2  C   UNL     1       2.961   6.435  18.959  0.00  0.00    +0.000 A 
ATOM      3  C   UNL     1       2.419   5.656  19.982  0.00  0.00    +0.000 A 
ATOM      4  C   UNL     1       1.510   6.195  20.889  0.00  0.00    +0.000 A 
ATOM      5  C   UNL     1       1.157   7.540  20.739  0.00  0.00    +0.000 A 
ATOM      6  N   UNL     1       0.311   8.302  21.522  0.00  0.00    +0.000 N 
ATOM      7  C   UNL     1       0.230   9.603  21.074  0.00  0.00    +0.000 A 
ATOM      8  C   UNL     1      -0.424  10.737  21.577  0.00  0.00    +0.000 A 
ATOM      9  C   UNL     1      -1.058  10.543  22.806  0.00  0.00    +0.000 A 
ATOM     10  C   UNL     1      -1.625  11.617  23.447  0.00  0.00    +0.000 A 
ATOM     11  C   UNL     1      -1.740  12.835  22.771  0.00  0.00    +0.000 A 
ATOM     12  C   UNL     1      -2.364  14.020  23.216  0.00  0.00    +0.000 A 
ATOM     13  C   UNL     1      -2.706  14.654  22.064  0.00  0.00    +0.000 A 
ATOM     14  N   UNL     1      -1.734  14.293  21.144  0.00  0.00    +0.000 N 
ATOM     15  C   UNL     1      -1.352  15.332  20.218  0.00  0.00    +0.000 C 
ATOM     16  C   UNL     1      -1.215  13.030  21.456  0.00  0.00    +0.000 A 
ATOM     17  C   UNL     1      -0.390  11.995  20.869  0.00  0.00    +0.000 A 
ATOM     18  C   UNL     1       0.454  11.957  19.722  0.00  0.00    +0.000 A 
ATOM     19  C   UNL     1       1.162  10.786  19.229  0.00  0.00    +0.000 A 
ATOM     20  C   UNL     1       1.013   9.590  19.957  0.00  0.00    +0.000 A 
ATOM     21  C   UNL     1       1.652   8.362  19.715  0.00  0.00    +0.000 A 
ATOM     22  C   UNL     1       2.578   7.786  18.819  0.00  0.00    +0.000 A 
ATOM     23  C   UNL     1       1.937  11.120  18.076  0.00  0.00    +0.000 C 
ATOM     24  O   UNL     1       2.758  10.531  17.385  0.00  0.00    +0.000 OA
ATOM     25  N   UNL     1       1.610  12.425  17.864  0.00  0.00    +0.000 N 
ATOM     26  C   UNL     1       0.914  13.034  18.879  0.00  0.00    +0.000 C 
ATOM     27  O   UNL     1       0.903  14.252  18.969  0.00  0.00    +0.000 OA
ATOM     28  H   UNL     1      -0.164   7.933  22.339  0.00  0.00    +0.000 HD
ATOM     29  H   UNL     1       2.130  12.957  17.209  0.00  0.00    +0.000 HD
ENDROOT
TORSDOF 0
ENDMDL
MODEL 7
REMARK VINA RESULT:      -7.3      3.975      6.898
REMARK  Name = 
REMARK  2 active torsions:
REMARK  status: ('A' for Active; 'I' for Inactive)
REMARK    1  A    between atoms: C_1  and  C_2
REMARK    2  A    between atoms: N_14  and  C_15
REMARK                            x       y       z     vdW  Elec       q    Type
REMARK                         _______ _______ _______ _____ _____    ______ ____
ROOT
ATOM      1  C   UNL     1       1.042   9.440  18.188  0.00  0.00    +0.000 C 
ATOM      2  C   UNL     1      -0.283  10.140  18.275  0.00  0.00    +0.000 A 
ATOM      3  C   UNL     1      -1.248   9.941  17.287  0.00  0.00    +0.000 A 
ATOM      4  C   UNL     1      -2.493  10.561  17.366  0.00  0.00    +0.000 A 
ATOM      5  C   UNL     1      -2.742  11.390  18.465  0.00  0.00    +0.000 A 
ATOM      6  N   UNL     1      -3.896  12.081  18.780  0.00  0.00    +0.000 N 
ATOM      7  C   UNL     1      -3.772  12.774  19.964  0.00  0.00    +0.000 A 
ATOM      8  C   UNL     1      -4.680  13.538  20.712  0.00  0.00    +0.000 A 
ATOM      9  C   UNL     1      -5.984  13.543  20.211  0.00  0.00    +0.000 A 
ATOM     10  C   UNL     1      -6.977  14.159  20.931  0.00  0.00    +0.000 A 
ATOM     11  C   UNL     1      -6.637  14.940  22.039  0.00  0.00    +0.000 A 
ATOM     12  C   UNL     1      -7.492  15.718  22.848  0.00  0.00    +0.000 A 
ATOM     13  C   UNL     1      -6.670  16.673  23.358  0.00  0.00    +0.000 A 
ATOM     14  N   UNL     1      -5.429  16.065  23.468  0.00  0.00    +0.000 N 
ATOM     15  C   UNL     1      -4.658  16.455  24.625  0.00  0.00    +0.000 C 
ATOM     16  C   UNL     1      -5.291  15.062  22.502  0.00  0.00    +0.000 A 
ATOM     17  C   UNL     1      -4.269  14.218  21.917  0.00  0.00    +0.000 A 
ATOM     18  C   UNL     1      -2.925  13.921  22.285  0.00  0.00    +0.000 A 
ATOM     19  C   UNL     1      -2.002  13.095  21.524  0.00  0.00    +0.000 A 
ATOM     20  C   UNL     1      -2.481  12.527  20.329  0.00  0.00    +0.000 A 
ATOM     21  C   UNL     1      -1.800  11.644  19.473  0.00  0.00    +0.000 A 
ATOM     22  C   UNL     1      -0.552  10.993  19.367  0.00  0.00    +0.000 A 
ATOM     23  C   UNL     1      -0.749  12.989  22.205  0.00  0.00    +0.000 C 
ATOM     24  O   UNL     1       0.277  12.344  22.033  0.00  0.00    +0.000 OA
ATOM     25  N   UNL     1      -0.925  13.805  23.281  0.00  0.00    +0.000 N 
ATOM     26  C   UNL     1      -2.214  14.226  23.503  0.00  0.00    +0.000 C 
ATOM     27  O   UNL     1      -2.545  14.626  24.608  0.00  0.00    +0.000 OA
ATOM     28  H   UNL     1      -4.732  12.046  18.206  0.00  0.00    +0.000 HD
ATOM     29  H   UNL     1      -0.257  13.796  24.013  0.00  0.00    +0.000 HD
ENDROOT
TORSDOF 0
ENDMDL
MODEL 8
REMARK VINA RESULT:      -7.2      4.089      5.933
REMARK  Name = 
REMARK  2 active torsions:
REMARK  status: ('A' for Active; 'I' for Inactive)
REMARK    1  A    between atoms: C_1  and  C_2
REMARK    2  A    between atoms: N_14  and  C_15
REMARK                            x       y       z     vdW  Elec       q    Type
REMARK                         _______ _______ _______ _____ _____    ______ ____
ROOT
ATOM      1  C   UNL     1       1.946   8.600  17.682  0.00  0.00    +0.000 C 
ATOM      2  C   UNL     1       1.112   9.411  18.632  0.00  0.00    +0.000 A 
ATOM      3  C   UNL     1       1.607   9.740  19.894  0.00  0.00    +0.000 A 
ATOM      4  C   UNL     1       0.858  10.515  20.777  0.00  0.00    +0.000 A 
ATOM      5  C   UNL     1      -0.404  10.950  20.358  0.00  0.00    +0.000 A 
ATOM      6  N   UNL     1      -1.309  11.746  21.032  0.00  0.00    +0.000 N 
ATOM      7  C   UNL     1      -2.441  11.983  20.282  0.00  0.00    +0.000 A 
ATOM      8  C   UNL     1      -3.574  12.779  20.507  0.00  0.00    +0.000 A 
ATOM      9  C   UNL     1      -3.526  13.539  21.677  0.00  0.00    +0.000 A 
ATOM     10  C   UNL     1      -4.528  14.443  21.933  0.00  0.00    +0.000 A 
ATOM     11  C   UNL     1      -5.673  14.441  21.132  0.00  0.00    +0.000 A 
ATOM     12  C   UNL     1      -6.840  15.220  21.283  0.00  0.00    +0.000 A 
ATOM     13  C   UNL     1      -7.802  14.477  20.676  0.00  0.00    +0.000 A 
ATOM     14  N   UNL     1      -7.151  13.795  19.660  0.00  0.00    +0.000 N 
ATOM     15  C   UNL     1      -7.916  13.630  18.447  0.00  0.00    +0.000 C 
ATOM     16  C   UNL     1      -5.810  13.580  20.000  0.00  0.00    +0.000 A 
ATOM     17  C   UNL     1      -4.665  12.808  19.562  0.00  0.00    +0.000 A 
ATOM     18  C   UNL     1      -4.391  12.059  18.382  0.00  0.00    +0.000 A 
ATOM     19  C   UNL     1      -3.195  11.269  18.140  0.00  0.00    +0.000 A 
ATOM     20  C   UNL     1      -2.216  11.255  19.151  0.00  0.00    +0.000 A 
ATOM     21  C   UNL     1      -0.959  10.627  19.110  0.00  0.00    +0.000 A 
ATOM     22  C   UNL     1      -0.171   9.848  18.237  0.00  0.00    +0.000 A 
ATOM     23  C   UNL     1      -3.243  10.676  16.840  0.00  0.00    +0.000 C 
ATOM     24  O   UNL     1      -2.460  10.034  16.151  0.00  0.00    +0.000 OA
ATOM     25  N   UNL     1      -4.473  11.047  16.388  0.00  0.00    +0.000 N 
ATOM     26  C   UNL     1      -5.116  12.003  17.136  0.00  0.00    +0.000 C 
ATOM     27  O   UNL     1      -6.014  12.665  16.640  0.00  0.00    +0.000 OA
ATOM     28  H   UNL     1      -1.130  12.121  21.958  0.00  0.00    +0.000 HD
ATOM     29  H   UNL     1      -4.707  10.898  15.437  0.00  0.00    +0.000 HD
ENDROOT
TORSDOF 0
ENDMDL
MODEL 9
REMARK VINA RESULT:      -7.1      9.648     10.416
REMARK  Name = 
REMARK  2 active torsions:
REMARK  status: ('A' for Active; 'I' for Inactive)
REMARK    1  A    between atoms: C_1  and  C_2
REMARK    2  A    between atoms: N_14  and  C_15
REMARK                            x       y       z     vdW  Elec       q    Type
REMARK                         _______ _______ _______ _____ _____    ______ ____
ROOT
ATOM      1  C   UNL     1      12.222  13.378  16.722  0.00  0.00    +0.000 C 
ATOM      2  C   UNL     1      11.339  12.862  17.821  0.00  0.00    +0.000 A 
ATOM      3  C   UNL     1      10.779  11.587  17.731  0.00  0.00    +0.000 A 
ATOM      4  C   UNL     1       9.980  11.082  18.754  0.00  0.00    +0.000 A 
ATOM      5  C   UNL     1       9.757  11.894  19.871  0.00  0.00    +0.000 A 
ATOM      6  N   UNL     1       9.036  11.608  21.015  0.00  0.00    +0.000 N 
ATOM      7  C   UNL     1       9.062  12.654  21.912  0.00  0.00    +0.000 A 
ATOM      8  C   UNL     1       8.554  12.797  23.212  0.00  0.00    +0.000 A 
ATOM      9  C   UNL     1       7.972  11.641  23.738  0.00  0.00    +0.000 A 
ATOM     10  C   UNL     1       7.552  11.635  25.045  0.00  0.00    +0.000 A 
ATOM     11  C   UNL     1       7.524  12.836  25.761  0.00  0.00    +0.000 A 
ATOM     12  C   UNL     1       7.048  13.054  27.070  0.00  0.00    +0.000 A 
ATOM     13  C   UNL     1       6.708  14.370  27.072  0.00  0.00    +0.000 A 
ATOM     14  N   UNL     1       7.587  14.976  26.188  0.00  0.00    +0.000 N 
ATOM     15  C   UNL     1       8.020  16.300  26.568  0.00  0.00    +0.000 C 
ATOM     16  C   UNL     1       7.992  14.066  25.205  0.00  0.00    +0.000 A 
ATOM     17  C   UNL     1       8.676  14.044  23.928  0.00  0.00    +0.000 A 
ATOM     18  C   UNL     1       9.447  15.011  23.220  0.00  0.00    +0.000 A 
ATOM     19  C   UNL     1      10.005  14.840  21.889  0.00  0.00    +0.000 A 
ATOM     20  C   UNL     1       9.777  13.607  21.249  0.00  0.00    +0.000 A 
ATOM     21  C   UNL     1      10.275  13.191  20.002  0.00  0.00    +0.000 A 
ATOM     22  C   UNL     1      11.087  13.669  18.951  0.00  0.00    +0.000 A 
ATOM     23  C   UNL     1      10.745  16.001  21.505  0.00  0.00    +0.000 C 
ATOM     24  O   UNL     1      11.464  16.295  20.558  0.00  0.00    +0.000 OA
ATOM     25  N   UNL     1      10.540  16.846  22.553  0.00  0.00    +0.000 N 
ATOM     26  C   UNL     1       9.966  16.282  23.666  0.00  0.00    +0.000 C 
ATOM     27  O   UNL     1      10.083  16.822  24.755  0.00  0.00    +0.000 OA
ATOM     28  H   UNL     1       8.572  10.718  21.165  0.00  0.00    +0.000 HD
ATOM     29  H   UNL     1      11.074  17.678  22.619  0.00  0.00    +0.000 HD
ENDROOT
TORSDOF 0
ENDMDL
