MODEL 1
REMARK VINA RESULT:      -8.5      0.000      0.000
REMARK  Name = 
REMARK  10 active torsions:
REMARK  status: ('A' for Active; 'I' for Inactive)
REMARK    1  A    between atoms: C_1  and  O_2
REMARK    2  A    between atoms: O_2  and  C_3
REMARK    3  A    between atoms: C_7  and  C_8
REMARK    4  A    between atoms: C_10  and  N_11
REMARK    5  A    between atoms: N_11  and  C_12
REMARK    6  A    between atoms: C_12  and  C_13
REMARK    7  A    between atoms: C_20  and  C_21
REMARK    8  A    between atoms: N_23  and  O_24
REMARK    9  A    between atoms: C_31  and  O_32
REMARK   10  A    between atoms: O_32  and  C_33
REMARK                            x       y       z     vdW  Elec       q    Type
REMARK                         _______ _______ _______ _____ _____    ______ ____
ROOT
ATOM      1  C   UNL     1       3.292   3.194  18.900  0.00  0.00    +0.000 C 
ENDROOT
BRANCH   1   2
ATOM      2  C   UNL     1       1.964   3.963  18.724  0.00  0.00    +0.000 C 
ATOM      3  C   UNL     1       2.118   5.240  17.874  0.00  0.00    +0.000 C 
ATOM      4  C   UNL     1       2.910   6.327  18.601  0.00  0.00    +0.000 C 
ATOM      5  N   UNL     1       2.316   6.584  19.903  0.00  0.00    +0.000 N 
ATOM      6  C   UNL     1       1.714   7.792  20.164  0.00  0.00    +0.000 A 
ATOM      7  N   UNL     1       1.608   8.697  19.174  0.00  0.00    +0.000 NA
ATOM      8  C   UNL     1       1.058   9.900  19.457  0.00  0.00    +0.000 A 
ATOM      9  C   UNL     1       0.628  10.257  20.709  0.00  0.00    +0.000 A 
ATOM     10  C   UNL     1       0.746   9.272  21.659  0.00  0.00    +0.000 A 
ATOM     11  N   UNL     1       1.278   8.052  21.409  0.00  0.00    +0.000 NA
ATOM     12  C   UNL     1       2.127   5.457  20.804  0.00  0.00    +0.000 C 
ATOM     13  C   UNL     1       1.345   4.351  20.085  0.00  0.00    +0.000 C 
BRANCH   9  14
ATOM     14  C   UNL     1       0.057  11.565  21.047  0.00  0.00    +0.000 C 
ATOM     15  O   UNL     1       0.756  12.444  21.552  0.00  0.00    +0.000 OA
ATOM     16  N   UNL     1      -1.265  11.778  20.734  0.00  0.00    +0.000 N 
ATOM     17  H   UNL     1      -1.824  11.203  20.112  0.00  0.00    +0.000 HD
BRANCH  16  18
ATOM     18  O   UNL     1      -1.739  13.093  20.951  0.00  0.00    +0.000 OA
ATOM     19  H   UNL     1      -2.345  12.977  21.717  0.00  0.00    +0.000 HD
ENDBRANCH  16  18
ENDBRANCH   9  14
ENDBRANCH   1   2
BRANCH   1  20
ATOM     20  N   UNL     1       4.066   3.201  17.657  0.00  0.00    +0.000 N 
ATOM     21  H   UNL     1       3.506   3.229  16.811  0.00  0.00    +0.000 HD
BRANCH  20  29
ATOM     22  C   UNL     1       7.003   4.772  13.707  0.00  0.00    +0.000 A 
ATOM     23  C   UNL     1       7.573   5.187  14.918  0.00  0.00    +0.000 A 
ATOM     24  C   UNL     1       6.995   4.934  16.150  0.00  0.00    +0.000 A 
ATOM     25  N   UNL     1       7.639   5.398  17.226  0.00  0.00    +0.000 NA
ATOM     26  C   UNL     1       7.117   5.159  18.443  0.00  0.00    +0.000 A 
ATOM     27  C   UNL     1       7.864   5.707  19.621  0.00  0.00    +0.000 C 
ATOM     28  C   UNL     1       5.938   4.450  18.627  0.00  0.00    +0.000 A 
ATOM     29  C   UNL     1       5.230   3.981  17.517  0.00  0.00    +0.000 A 
ATOM     30  C   UNL     1       5.782   4.218  16.221  0.00  0.00    +0.000 A 
ATOM     31  C   UNL     1       5.208   3.793  14.996  0.00  0.00    +0.000 A 
ATOM     32  C   UNL     1       5.793   4.072  13.747  0.00  0.00    +0.000 A 
BRANCH  22  34
ATOM     33  C   UNL     1       8.650   6.003  12.502  0.00  0.00    +0.000 C 
ATOM     34  O   UNL     1       7.567   5.079  12.497  0.00  0.00    +0.000 OA
ENDBRANCH  22  34
BRANCH  32  35
ATOM     35  O   UNL     1       5.052   3.584  12.701  0.00  0.00    +0.000 OA
ATOM     36  C   UNL     1       5.607   2.563  11.884  0.00  0.00    +0.000 C 
ENDBRANCH  32  35
ENDBRANCH  20  29
ENDBRANCH   1  20
TORSDOF 7
ENDMDL
MODEL 2
REMARK VINA RESULT:      -8.4      2.772      5.230
REMARK  Name = 
REMARK  10 active torsions:
REMARK  status: ('A' for Active; 'I' for Inactive)
REMARK    1  A    between atoms: C_1  and  O_2
REMARK    2  A    between atoms: O_2  and  C_3
REMARK    3  A    between atoms: C_7  and  C_8
REMARK    4  A    between atoms: C_10  and  N_11
REMARK    5  A    between atoms: N_11  and  C_12
REMARK    6  A    between atoms: C_12  and  C_13
REMARK    7  A    between atoms: C_20  and  C_21
REMARK    8  A    between atoms: N_23  and  O_24
REMARK    9  A    between atoms: C_31  and  O_32
REMARK   10  A    between atoms: O_32  and  C_33
REMARK                            x       y       z     vdW  Elec       q    Type
REMARK                         _______ _______ _______ _____ _____    ______ ____
ROOT
ATOM      1  C   UNL     1       1.792   8.005  21.031  0.00  0.00    +0.000 C 
ENDROOT
BRANCH   1   2
ATOM      2  C   UNL     1       0.406   8.481  20.542  0.00  0.00    +0.000 C 
ATOM      3  C   UNL     1       0.424   9.920  19.993  0.00  0.00    +0.000 C 
ATOM      4  C   UNL     1       0.639  10.958  21.095  0.00  0.00    +0.000 C 
ATOM      5  N   UNL     1      -0.345  10.768  22.150  0.00  0.00    +0.000 N 
ATOM      6  C   UNL     1      -1.312  11.719  22.374  0.00  0.00    +0.000 A 
ATOM      7  N   UNL     1      -1.387  12.782  21.554  0.00  0.00    +0.000 NA
ATOM      8  C   UNL     1      -2.311  13.734  21.815  0.00  0.00    +0.000 A 
ATOM      9  C   UNL     1      -3.158  13.687  22.892  0.00  0.00    +0.000 A 
ATOM     10  C   UNL     1      -3.038  12.561  23.668  0.00  0.00    +0.000 A 
ATOM     11  N   UNL     1      -2.135  11.581  23.429  0.00  0.00    +0.000 NA
ATOM     12  C   UNL     1      -0.451   9.450  22.757  0.00  0.00    +0.000 C 
ATOM     13  C   UNL     1      -0.654   8.395  21.662  0.00  0.00    +0.000 C 
BRANCH   9  14
ATOM     14  C   UNL     1      -4.147  14.721  23.214  0.00  0.00    +0.000 C 
ATOM     15  O   UNL     1      -4.927  15.133  22.353  0.00  0.00    +0.000 OA
ATOM     16  N   UNL     1      -4.196  15.169  24.513  0.00  0.00    +0.000 N 
ATOM     17  H   UNL     1      -3.762  14.713  25.309  0.00  0.00    +0.000 HD
BRANCH  16  18
ATOM     18  O   UNL     1      -5.250  16.064  24.811  0.00  0.00    +0.000 OA
ATOM     19  H   UNL     1      -6.009  15.668  24.327  0.00  0.00    +0.000 HD
ENDBRANCH  16  18
ENDBRANCH   9  14
ENDBRANCH   1   2
BRANCH   1  20
ATOM     20  N   UNL     1       2.582   7.474  19.918  0.00  0.00    +0.000 N 
ATOM     21  H   UNL     1       3.462   7.954  19.757  0.00  0.00    +0.000 HD
BRANCH  20  29
ATOM     22  C   UNL     1       5.478   4.476  16.866  0.00  0.00    +0.000 A 
ATOM     23  C   UNL     1       4.579   3.686  17.592  0.00  0.00    +0.000 A 
ATOM     24  C   UNL     1       3.688   4.210  18.514  0.00  0.00    +0.000 A 
ATOM     25  N   UNL     1       2.892   3.340  19.146  0.00  0.00    +0.000 NA
ATOM     26  C   UNL     1       2.003   3.812  20.039  0.00  0.00    +0.000 A 
ATOM     27  C   UNL     1       1.139   2.803  20.733  0.00  0.00    +0.000 C 
ATOM     28  C   UNL     1       1.877   5.163  20.329  0.00  0.00    +0.000 A 
ATOM     29  C   UNL     1       2.717   6.089  19.704  0.00  0.00    +0.000 A 
ATOM     30  C   UNL     1       3.657   5.601  18.745  0.00  0.00    +0.000 A 
ATOM     31  C   UNL     1       4.565   6.401  18.006  0.00  0.00    +0.000 A 
ATOM     32  C   UNL     1       5.479   5.857  17.086  0.00  0.00    +0.000 A 
BRANCH  22  34
ATOM     33  C   UNL     1       6.047   3.943  14.613  0.00  0.00    +0.000 C 
ATOM     34  O   UNL     1       6.385   3.930  15.996  0.00  0.00    +0.000 OA
ENDBRANCH  22  34
BRANCH  32  35
ATOM     35  O   UNL     1       6.271   6.815  16.508  0.00  0.00    +0.000 OA
ATOM     36  C   UNL     1       7.162   7.557  17.330  0.00  0.00    +0.000 C 
ENDBRANCH  32  35
ENDBRANCH  20  29
ENDBRANCH   1  20
TORSDOF 7
ENDMDL
MODEL 3
REMARK VINA RESULT:      -8.2      4.001     10.887
REMARK  Name = 
REMARK  10 active torsions:
REMARK  status: ('A' for Active; 'I' for Inactive)
REMARK    1  A    between atoms: C_1  and  O_2
REMARK    2  A    between atoms: O_2  and  C_3
REMARK    3  A    between atoms: C_7  and  C_8
REMARK    4  A    between atoms: C_10  and  N_11
REMARK    5  A    between atoms: N_11  and  C_12
REMARK    6  A    between atoms: C_12  and  C_13
REMARK    7  A    between atoms: C_20  and  C_21
REMARK    8  A    between atoms: N_23  and  O_24
REMARK    9  A    between atoms: C_31  and  O_32
REMARK   10  A    between atoms: O_32  and  C_33
REMARK                            x       y       z     vdW  Elec       q    Type
REMARK                         _______ _______ _______ _____ _____    ______ ____
ROOT
ATOM      1  C   UNL     1       0.621  11.182  20.558  0.00  0.00    +0.000 C 
ENDROOT
BRANCH   1   2
ATOM      2  C   UNL     1      -0.100   9.895  20.099  0.00  0.00    +0.000 C 
ATOM      3  C   UNL     1       0.052   8.733  21.099  0.00  0.00    +0.000 C 
ATOM      4  C   UNL     1       1.479   8.185  21.138  0.00  0.00    +0.000 C 
ATOM      5  N   UNL     1       1.911   7.834  19.795  0.00  0.00    +0.000 N 
ATOM      6  C   UNL     1       2.136   6.520  19.460  0.00  0.00    +0.000 A 
ATOM      7  N   UNL     1       1.870   5.560  20.365  0.00  0.00    +0.000 NA
ATOM      8  C   UNL     1       2.142   4.276  20.040  0.00  0.00    +0.000 A 
ATOM      9  C   UNL     1       2.702   3.902  18.847  0.00  0.00    +0.000 A 
ATOM     10  C   UNL     1       2.921   4.934  17.967  0.00  0.00    +0.000 A 
ATOM     11  N   UNL     1       2.648   6.229  18.252  0.00  0.00    +0.000 NA
ATOM     12  C   UNL     1       1.826   8.854  18.760  0.00  0.00    +0.000 C 
ATOM     13  C   UNL     1       0.402   9.423  18.717  0.00  0.00    +0.000 C 
BRANCH   9  14
ATOM     14  C   UNL     1       3.034   2.520  18.484  0.00  0.00    +0.000 C 
ATOM     15  O   UNL     1       2.421   1.942  17.585  0.00  0.00    +0.000 OA
ATOM     16  N   UNL     1       4.079   1.924  19.151  0.00  0.00    +0.000 N 
ATOM     17  H   UNL     1       4.769   2.407  19.716  0.00  0.00    +0.000 HD
BRANCH  16  18
ATOM     18  O   UNL     1       4.453   0.644  18.678  0.00  0.00    +0.000 OA
ATOM     19  H   UNL     1       4.320   0.078  19.471  0.00  0.00    +0.000 HD
ENDBRANCH  16  18
ENDBRANCH   9  14
ENDBRANCH   1   2
BRANCH   1  20
ATOM     20  N   UNL     1      -0.179  12.367  20.240  0.00  0.00    +0.000 N 
ATOM     21  H   UNL     1      -0.213  12.602  19.254  0.00  0.00    +0.000 HD
BRANCH  20  29
ATOM     22  C   UNL     1      -5.134  12.006  18.821  0.00  0.00    +0.000 A 
ATOM     23  C   UNL     1      -5.048  12.533  20.116  0.00  0.00    +0.000 A 
ATOM     24  C   UNL     1      -3.845  12.722  20.776  0.00  0.00    +0.000 A 
ATOM     25  N   UNL     1      -3.908  13.223  22.014  0.00  0.00    +0.000 NA
ATOM     26  C   UNL     1      -2.759  13.435  22.682  0.00  0.00    +0.000 A 
ATOM     27  C   UNL     1      -2.875  13.985  24.071  0.00  0.00    +0.000 C 
ATOM     28  C   UNL     1      -1.513  13.156  22.138  0.00  0.00    +0.000 A 
ATOM     29  C   UNL     1      -1.422  12.604  20.858  0.00  0.00    +0.000 A 
ATOM     30  C   UNL     1      -2.634  12.386  20.134  0.00  0.00    +0.000 A 
ATOM     31  C   UNL     1      -2.722  11.858  18.821  0.00  0.00    +0.000 A 
ATOM     32  C   UNL     1      -3.950  11.651  18.166  0.00  0.00    +0.000 A 
BRANCH  22  34
ATOM     33  C   UNL     1      -6.892  12.853  17.452  0.00  0.00    +0.000 C 
ATOM     34  O   UNL     1      -6.338  11.781  18.208  0.00  0.00    +0.000 OA
ENDBRANCH  22  34
BRANCH  32  35
ATOM     35  O   UNL     1      -3.792  11.110  16.917  0.00  0.00    +0.000 OA
ATOM     36  C   UNL     1      -2.477  10.852  16.442  0.00  0.00    +0.000 C 
ENDBRANCH  32  35
ENDBRANCH  20  29
ENDBRANCH   1  20
TORSDOF 7
ENDMDL
MODEL 4
REMARK VINA RESULT:      -8.1      2.585      5.176
REMARK  Name = 
REMARK  10 active torsions:
REMARK  status: ('A' for Active; 'I' for Inactive)
REMARK    1  A    between atoms: C_1  and  O_2
REMARK    2  A    between atoms: O_2  and  C_3
REMARK    3  A    between atoms: C_7  and  C_8
REMARK    4  A    between atoms: C_10  and  N_11
REMARK    5  A    between atoms: N_11  and  C_12
REMARK    6  A    between atoms: C_12  and  C_13
REMARK    7  A    between atoms: C_20  and  C_21
REMARK    8  A    between atoms: N_23  and  O_24
REMARK    9  A    between atoms: C_31  and  O_32
REMARK   10  A    between atoms: O_32  and  C_33
REMARK                            x       y       z     vdW  Elec       q    Type
REMARK                         _______ _______ _______ _____ _____    ______ ____
ROOT
ATOM      1  C   UNL     1       1.439   7.628  20.336  0.00  0.00    +0.000 C 
ENDROOT
BRANCH   1   2
ATOM      2  C   UNL     1       1.714   9.048  20.879  0.00  0.00    +0.000 C 
ATOM      3  C   UNL     1       1.178   9.260  22.308  0.00  0.00    +0.000 C 
ATOM      4  C   UNL     1      -0.350   9.296  22.355  0.00  0.00    +0.000 C 
ATOM      5  N   UNL     1      -0.849  10.285  21.413  0.00  0.00    +0.000 N 
ATOM      6  C   UNL     1      -1.480  11.418  21.869  0.00  0.00    +0.000 A 
ATOM      7  N   UNL     1      -1.554  11.638  23.194  0.00  0.00    +0.000 NA
ATOM      8  C   UNL     1      -2.220  12.731  23.629  0.00  0.00    +0.000 A 
ATOM      9  C   UNL     1      -2.851  13.613  22.791  0.00  0.00    +0.000 A 
ATOM     10  C   UNL     1      -2.711  13.335  21.454  0.00  0.00    +0.000 A 
ATOM     11  N   UNL     1      -2.039  12.259  20.981  0.00  0.00    +0.000 NA
ATOM     12  C   UNL     1      -0.422  10.186  20.025  0.00  0.00    +0.000 C 
ATOM     13  C   UNL     1       1.109  10.135  19.962  0.00  0.00    +0.000 C 
BRANCH   9  14
ATOM     14  C   UNL     1      -3.605  14.788  23.241  0.00  0.00    +0.000 C 
ATOM     15  O   UNL     1      -3.492  15.868  22.658  0.00  0.00    +0.000 OA
ATOM     16  N   UNL     1      -4.468  14.620  24.298  0.00  0.00    +0.000 N 
ATOM     17  H   UNL     1      -4.788  13.728  24.662  0.00  0.00    +0.000 HD
BRANCH  16  18
ATOM     18  O   UNL     1      -5.274  15.740  24.612  0.00  0.00    +0.000 OA
ATOM     19  H   UNL     1      -5.360  15.673  25.589  0.00  0.00    +0.000 HD
ENDBRANCH  16  18
ENDBRANCH   9  14
ENDBRANCH   1   2
BRANCH   1  20
ATOM     20  N   UNL     1       2.679   7.000  19.875  0.00  0.00    +0.000 N 
ATOM     21  H   UNL     1       3.473   7.129  20.493  0.00  0.00    +0.000 HD
BRANCH  20  29
ATOM     22  C   UNL     1       5.502   4.553  16.306  0.00  0.00    +0.000 A 
ATOM     23  C   UNL     1       4.462   3.722  16.741  0.00  0.00    +0.000 A 
ATOM     24  C   UNL     1       3.554   4.097  17.717  0.00  0.00    +0.000 A 
ATOM     25  N   UNL     1       2.617   3.200  18.047  0.00  0.00    +0.000 NA
ATOM     26  C   UNL     1       1.707   3.533  18.980  0.00  0.00    +0.000 A 
ATOM     27  C   UNL     1       0.684   2.496  19.329  0.00  0.00    +0.000 C 
ATOM     28  C   UNL     1       1.700   4.768  19.613  0.00  0.00    +0.000 A 
ATOM     29  C   UNL     1       2.685   5.711  19.308  0.00  0.00    +0.000 A 
ATOM     30  C   UNL     1       3.650   5.373  18.309  0.00  0.00    +0.000 A 
ATOM     31  C   UNL     1       4.699   6.217  17.864  0.00  0.00    +0.000 A 
ATOM     32  C   UNL     1       5.629   5.819  16.886  0.00  0.00    +0.000 A 
BRANCH  22  34
ATOM     33  C   UNL     1       6.001   4.123  14.015  0.00  0.00    +0.000 C 
ATOM     34  O   UNL     1       6.419   4.141  15.376  0.00  0.00    +0.000 OA
ENDBRANCH  22  34
BRANCH  32  35
ATOM     35  O   UNL     1       6.566   6.787  16.632  0.00  0.00    +0.000 OA
ATOM     36  C   UNL     1       7.517   7.102  17.639  0.00  0.00    +0.000 C 
ENDBRANCH  32  35
ENDBRANCH  20  29
ENDBRANCH   1  20
TORSDOF 7
ENDMDL
MODEL 5
REMARK VINA RESULT:      -8.0      4.049     11.657
REMARK  Name = 
REMARK  10 active torsions:
REMARK  status: ('A' for Active; 'I' for Inactive)
REMARK    1  A    between atoms: C_1  and  O_2
REMARK    2  A    between atoms: O_2  and  C_3
REMARK    3  A    between atoms: C_7  and  C_8
REMARK    4  A    between atoms: C_10  and  N_11
REMARK    5  A    between atoms: N_11  and  C_12
REMARK    6  A    between atoms: C_12  and  C_13
REMARK    7  A    between atoms: C_20  and  C_21
REMARK    8  A    between atoms: N_23  and  O_24
REMARK    9  A    between atoms: C_31  and  O_32
REMARK   10  A    between atoms: O_32  and  C_33
REMARK                            x       y       z     vdW  Elec       q    Type
REMARK                         _______ _______ _______ _____ _____    ______ ____
ROOT
ATOM      1  C   UNL     1       0.327  11.493  19.124  0.00  0.00    +0.000 C 
ENDROOT
BRANCH   1   2
ATOM      2  C   UNL     1      -0.224  10.068  18.892  0.00  0.00    +0.000 C 
ATOM      3  C   UNL     1      -0.201   9.201  20.165  0.00  0.00    +0.000 C 
ATOM      4  C   UNL     1       1.220   8.823  20.584  0.00  0.00    +0.000 C 
ATOM      5  N   UNL     1       1.916   8.205  19.468  0.00  0.00    +0.000 N 
ATOM      6  C   UNL     1       2.270   6.878  19.521  0.00  0.00    +0.000 A 
ATOM      7  N   UNL     1       1.891   6.142  20.582  0.00  0.00    +0.000 NA
ATOM      8  C   UNL     1       2.287   4.851  20.645  0.00  0.00    +0.000 A 
ATOM      9  C   UNL     1       3.083   4.259  19.699  0.00  0.00    +0.000 A 
ATOM     10  C   UNL     1       3.408   5.066  18.636  0.00  0.00    +0.000 A 
ATOM     11  N   UNL     1       3.017   6.358  18.531  0.00  0.00    +0.000 NA
ATOM     12  C   UNL     1       1.973   8.933  18.209  0.00  0.00    +0.000 C 
ATOM     13  C   UNL     1       0.555   9.330  17.781  0.00  0.00    +0.000 C 
BRANCH   9  14
ATOM     14  C   UNL     1       3.551   2.870  19.761  0.00  0.00    +0.000 C 
ATOM     15  O   UNL     1       2.779   1.937  19.538  0.00  0.00    +0.000 OA
ATOM     16  N   UNL     1       4.884   2.663  20.028  0.00  0.00    +0.000 N 
ATOM     17  H   UNL     1       5.611   3.370  19.981  0.00  0.00    +0.000 HD
BRANCH  16  18
ATOM     18  O   UNL     1       5.322   1.320  19.944  0.00  0.00    +0.000 OA
ATOM     19  H   UNL     1       5.916   1.338  19.161  0.00  0.00    +0.000 HD
ENDBRANCH  16  18
ENDBRANCH   9  14
ENDBRANCH   1   2
BRANCH   1  20
ATOM     20  N   UNL     1      -0.751  12.413  19.492  0.00  0.00    +0.000 N 
ATOM     21  H   UNL     1      -0.493  13.394  19.476  0.00  0.00    +0.000 HD
BRANCH  20  29
ATOM     22  C   UNL     1      -5.478  12.758  21.549  0.00  0.00    +0.000 A 
ATOM     23  C   UNL     1      -5.568  12.309  20.225  0.00  0.00    +0.000 A 
ATOM     24  C   UNL     1      -4.462  12.143  19.408  0.00  0.00    +0.000 A 
ATOM     25  N   UNL     1      -4.691  11.718  18.161  0.00  0.00    +0.000 NA
ATOM     26  C   UNL     1      -3.642  11.530  17.341  0.00  0.00    +0.000 A 
ATOM     27  C   UNL     1      -3.944  11.066  15.948  0.00  0.00    +0.000 C 
ATOM     28  C   UNL     1      -2.331  11.758  17.737  0.00  0.00    +0.000 A 
ATOM     29  C   UNL     1      -2.067  12.231  19.025  0.00  0.00    +0.000 A 
ATOM     30  C   UNL     1      -3.173  12.422  19.909  0.00  0.00    +0.000 A 
ATOM     31  C   UNL     1      -3.083  12.872  21.250  0.00  0.00    +0.000 A 
ATOM     32  C   UNL     1      -4.214  13.056  22.067  0.00  0.00    +0.000 A 
BRANCH  22  34
ATOM     33  C   UNL     1      -7.852  12.651  21.740  0.00  0.00    +0.000 C 
ATOM     34  O   UNL     1      -6.590  12.963  22.322  0.00  0.00    +0.000 OA
ENDBRANCH  22  34
BRANCH  32  35
ATOM     35  O   UNL     1      -3.887  13.519  23.315  0.00  0.00    +0.000 OA
ATOM     36  C   UNL     1      -4.104  12.675  24.438  0.00  0.00    +0.000 C 
ENDBRANCH  32  35
ENDBRANCH  20  29
ENDBRANCH   1  20
TORSDOF 7
ENDMDL
MODEL 6
REMARK VINA RESULT:      -8.0      4.088     10.633
REMARK  Name = 
REMARK  10 active torsions:
REMARK  status: ('A' for Active; 'I' for Inactive)
REMARK    1  A    between atoms: C_1  and  O_2
REMARK    2  A    between atoms: O_2  and  C_3
REMARK    3  A    between atoms: C_7  and  C_8
REMARK    4  A    between atoms: C_10  and  N_11
REMARK    5  A    between atoms: N_11  and  C_12
REMARK    6  A    between atoms: C_12  and  C_13
REMARK    7  A    between atoms: C_20  and  C_21
REMARK    8  A    between atoms: N_23  and  O_24
REMARK    9  A    between atoms: C_31  and  O_32
REMARK   10  A    between atoms: O_32  and  C_33
REMARK                            x       y       z     vdW  Elec       q    Type
REMARK                         _______ _______ _______ _____ _____    ______ ____
ROOT
ATOM      1  C   UNL     1       0.998  11.466  18.918  0.00  0.00    +0.000 C 
ENDROOT
BRANCH   1   2
ATOM      2  C   UNL     1       0.279  10.112  18.723  0.00  0.00    +0.000 C 
ATOM      3  C   UNL     1       0.262   9.251  20.000  0.00  0.00    +0.000 C 
ATOM      4  C   UNL     1       1.649   8.716  20.356  0.00  0.00    +0.000 C 
ATOM      5  N   UNL     1       2.219   8.020  19.214  0.00  0.00    +0.000 N 
ATOM      6  C   UNL     1       2.423   6.662  19.262  0.00  0.00    +0.000 A 
ATOM      7  N   UNL     1       2.012   5.976  20.344  0.00  0.00    +0.000 NA
ATOM      8  C   UNL     1       2.263   4.648  20.399  0.00  0.00    +0.000 A 
ATOM      9  C   UNL     1       2.942   3.968  19.422  0.00  0.00    +0.000 A 
ATOM     10  C   UNL     1       3.307   4.730  18.340  0.00  0.00    +0.000 A 
ATOM     11  N   UNL     1       3.060   6.057  18.243  0.00  0.00    +0.000 NA
ATOM     12  C   UNL     1       2.300   8.734  17.948  0.00  0.00    +0.000 C 
ATOM     13  C   UNL     1       0.917   9.288  17.583  0.00  0.00    +0.000 C 
BRANCH   9  14
ATOM     14  C   UNL     1       3.253   2.535  19.474  0.00  0.00    +0.000 C 
ATOM     15  O   UNL     1       2.682   1.798  20.278  0.00  0.00    +0.000 OA
ATOM     16  N   UNL     1       4.162   2.052  18.563  0.00  0.00    +0.000 N 
ATOM     17  H   UNL     1       4.482   2.541  17.733  0.00  0.00    +0.000 HD
BRANCH  16  18
ATOM     18  O   UNL     1       4.332   0.647  18.556  0.00  0.00    +0.000 OA
ATOM     19  H   UNL     1       4.041   0.402  17.650  0.00  0.00    +0.000 HD
ENDBRANCH  16  18
ENDBRANCH   9  14
ENDBRANCH   1   2
BRANCH   1  20
ATOM     20  N   UNL     1       0.049  12.576  18.816  0.00  0.00    +0.000 N 
ATOM     21  H   UNL     1      -0.244  12.796  17.869  0.00  0.00    +0.000 HD
BRANCH  20  29
ATOM     22  C   UNL     1      -5.060  11.830  18.630  0.00  0.00    +0.000 A 
ATOM     23  C   UNL     1      -4.703  12.365  19.874  0.00  0.00    +0.000 A 
ATOM     24  C   UNL     1      -3.394  12.647  20.227  0.00  0.00    +0.000 A 
ATOM     25  N   UNL     1      -3.192  13.145  21.452  0.00  0.00    +0.000 NA
ATOM     26  C   UNL     1      -1.936  13.447  21.827  0.00  0.00    +0.000 A 
ATOM     27  C   UNL     1      -1.753  13.989  23.211  0.00  0.00    +0.000 C 
ATOM     28  C   UNL     1      -0.841  13.264  20.993  0.00  0.00    +0.000 A 
ATOM     29  C   UNL     1      -1.022  12.718  19.719  0.00  0.00    +0.000 A 
ATOM     30  C   UNL     1      -2.353  12.405  19.306  0.00  0.00    +0.000 A 
ATOM     31  C   UNL     1      -2.716  11.869  18.045  0.00  0.00    +0.000 A 
ATOM     32  C   UNL     1      -4.047  11.567  17.703  0.00  0.00    +0.000 A 
BRANCH  22  34
ATOM     33  C   UNL     1      -6.881  10.314  18.888  0.00  0.00    +0.000 C 
ATOM     34  O   UNL     1      -6.356  11.511  18.323  0.00  0.00    +0.000 OA
ENDBRANCH  22  34
BRANCH  32  35
ATOM     35  O   UNL     1      -4.156  11.037  16.443  0.00  0.00    +0.000 OA
ATOM     36  C   UNL     1      -2.985  10.916  15.647  0.00  0.00    +0.000 C 
ENDBRANCH  32  35
ENDBRANCH  20  29
ENDBRANCH   1  20
TORSDOF 7
ENDMDL
MODEL 7
REMARK VINA RESULT:      -8.0      3.672     11.444
REMARK  Name = 
REMARK  10 active torsions:
REMARK  status: ('A' for Active; 'I' for Inactive)
REMARK    1  A    between atoms: C_1  and  O_2
REMARK    2  A    between atoms: O_2  and  C_3
REMARK    3  A    between atoms: C_7  and  C_8
REMARK    4  A    between atoms: C_10  and  N_11
REMARK    5  A    between atoms: N_11  and  C_12
REMARK    6  A    between atoms: C_12  and  C_13
REMARK    7  A    between atoms: C_20  and  C_21
REMARK    8  A    between atoms: N_23  and  O_24
REMARK    9  A    between atoms: C_31  and  O_32
REMARK   10  A    between atoms: O_32  and  C_33
REMARK                            x       y       z     vdW  Elec       q    Type
REMARK                         _______ _______ _______ _____ _____    ______ ____
ROOT
ATOM      1  C   UNL     1       0.574  11.269  19.335  0.00  0.00    +0.000 C 
ENDROOT
BRANCH   1   2
ATOM      2  C   UNL     1       0.054   9.846  19.032  0.00  0.00    +0.000 C 
ATOM      3  C   UNL     1       0.156   8.899  20.242  0.00  0.00    +0.000 C 
ATOM      4  C   UNL     1       1.604   8.539  20.576  0.00  0.00    +0.000 C 
ATOM      5  N   UNL     1       2.268   8.016  19.393  0.00  0.00    +0.000 N 
ATOM      6  C   UNL     1       2.661   6.700  19.343  0.00  0.00    +0.000 A 
ATOM      7  N   UNL     1       2.349   5.885  20.367  0.00  0.00    +0.000 NA
ATOM      8  C   UNL     1       2.784   4.606  20.328  0.00  0.00    +0.000 A 
ATOM      9  C   UNL     1       3.554   4.102  19.312  0.00  0.00    +0.000 A 
ATOM     10  C   UNL     1       3.810   4.986  18.293  0.00  0.00    +0.000 A 
ATOM     11  N   UNL     1       3.379   6.269  18.291  0.00  0.00    +0.000 NA
ATOM     12  C   UNL     1       2.250   8.827  18.184  0.00  0.00    +0.000 C 
ATOM     13  C   UNL     1       0.804   9.207  17.843  0.00  0.00    +0.000 C 
BRANCH   9  14
ATOM     14  C   UNL     1       4.064   2.727  19.262  0.00  0.00    +0.000 C 
ATOM     15  O   UNL     1       4.785   2.292  20.161  0.00  0.00    +0.000 OA
ATOM     16  N   UNL     1       3.666   1.942  18.205  0.00  0.00    +0.000 N 
ATOM     17  H   UNL     1       2.899   2.149  17.574  0.00  0.00    +0.000 HD
BRANCH  16  18
ATOM     18  O   UNL     1       4.068   0.587  18.266  0.00  0.00    +0.000 OA
ATOM     19  H   UNL     1       5.049   0.656  18.248  0.00  0.00    +0.000 HD
ENDBRANCH  16  18
ENDBRANCH   9  14
ENDBRANCH   1   2
BRANCH   1  20
ATOM     20  N   UNL     1      -0.298  12.280  18.735  0.00  0.00    +0.000 N 
ATOM     21  H   UNL     1      -0.056  12.535  17.782  0.00  0.00    +0.000 HD
BRANCH  20  29
ATOM     22  C   UNL     1      -3.560  13.186  22.638  0.00  0.00    +0.000 A 
ATOM     23  C   UNL     1      -4.272  12.736  21.519  0.00  0.00    +0.000 A 
ATOM     24  C   UNL     1      -3.667  12.435  20.310  0.00  0.00    +0.000 A 
ATOM     25  N   UNL     1      -4.467  12.026  19.319  0.00  0.00    +0.000 NA
ATOM     26  C   UNL     1      -3.915  11.710  18.134  0.00  0.00    +0.000 A 
ATOM     27  C   UNL     1      -4.848  11.269  17.048  0.00  0.00    +0.000 C 
ATOM     28  C   UNL     1      -2.549  11.792  17.898  0.00  0.00    +0.000 A 
ATOM     29  C   UNL     1      -1.696  12.245  18.907  0.00  0.00    +0.000 A 
ATOM     30  C   UNL     1      -2.270  12.571  20.174  0.00  0.00    +0.000 A 
ATOM     31  C   UNL     1      -1.549  13.022  21.308  0.00  0.00    +0.000 A 
ATOM     32  C   UNL     1      -2.175  13.343  22.527  0.00  0.00    +0.000 A 
BRANCH  22  34
ATOM     33  C   UNL     1      -4.529  12.464  24.692  0.00  0.00    +0.000 C 
ATOM     34  O   UNL     1      -4.187  13.526  23.807  0.00  0.00    +0.000 OA
ENDBRANCH  22  34
BRANCH  32  35
ATOM     35  O   UNL     1      -1.284  13.779  23.474  0.00  0.00    +0.000 OA
ATOM     36  C   UNL     1      -0.766  15.098  23.372  0.00  0.00    +0.000 C 
ENDBRANCH  32  35
ENDBRANCH  20  29
ENDBRANCH   1  20
TORSDOF 7
ENDMDL
MODEL 8
REMARK VINA RESULT:      -7.9      2.424      4.861
REMARK  Name = 
REMARK  10 active torsions:
REMARK  status: ('A' for Active; 'I' for Inactive)
REMARK    1  A    between atoms: C_1  and  O_2
REMARK    2  A    between atoms: O_2  and  C_3
REMARK    3  A    between atoms: C_7  and  C_8
REMARK    4  A    between atoms: C_10  and  N_11
REMARK    5  A    between atoms: N_11  and  C_12
REMARK    6  A    between atoms: C_12  and  C_13
REMARK    7  A    between atoms: C_20  and  C_21
REMARK    8  A    between atoms: N_23  and  O_24
REMARK    9  A    between atoms: C_31  and  O_32
REMARK   10  A    between atoms: O_32  and  C_33
REMARK                            x       y       z     vdW  Elec       q    Type
REMARK                         _______ _______ _______ _____ _____    ______ ____
ROOT
ATOM      1  C   UNL     1       2.211   8.468  18.862  0.00  0.00    +0.000 C 
ENDROOT
BRANCH   1   2
ATOM      2  C   UNL     1       0.718   8.709  19.176  0.00  0.00    +0.000 C 
ATOM      3  C   UNL     1       0.175  10.010  18.554  0.00  0.00    +0.000 C 
ATOM      4  C   UNL     1       0.749  11.257  19.228  0.00  0.00    +0.000 C 
ATOM      5  N   UNL     1       0.533  11.186  20.665  0.00  0.00    +0.000 N 
ATOM      6  C   UNL     1      -0.322  12.069  21.281  0.00  0.00    +0.000 A 
ATOM      7  N   UNL     1      -1.017  12.941  20.529  0.00  0.00    +0.000 NA
ATOM      8  C   UNL     1      -1.816  13.835  21.152  0.00  0.00    +0.000 A 
ATOM      9  C   UNL     1      -1.934  13.921  22.515  0.00  0.00    +0.000 A 
ATOM     10  C   UNL     1      -1.214  12.983  23.213  0.00  0.00    +0.000 A 
ATOM     11  N   UNL     1      -0.415  12.063  22.623  0.00  0.00    +0.000 NA
ATOM     12  C   UNL     1       1.011  10.007  21.371  0.00  0.00    +0.000 C 
ATOM     13  C   UNL     1       0.455   8.746  20.698  0.00  0.00    +0.000 C 
BRANCH   9  14
ATOM     14  C   UNL     1      -2.770  14.902  23.215  0.00  0.00    +0.000 C 
ATOM     15  O   UNL     1      -2.662  16.105  22.973  0.00  0.00    +0.000 OA
ATOM     16  N   UNL     1      -3.700  14.420  24.106  0.00  0.00    +0.000 N 
ATOM     17  H   UNL     1      -4.005  13.455  24.175  0.00  0.00    +0.000 HD
BRANCH  16  18
ATOM     18  O   UNL     1      -4.575  15.386  24.656  0.00  0.00    +0.000 OA
ATOM     19  H   UNL     1      -4.847  15.902  23.865  0.00  0.00    +0.000 HD
ENDBRANCH  16  18
ENDBRANCH   9  14
ENDBRANCH   1   2
BRANCH   1  20
ATOM     20  N   UNL     1       2.733   7.348  19.648  0.00  0.00    +0.000 N 
ATOM     21  H   UNL     1       2.476   7.366  20.630  0.00  0.00    +0.000 HD
BRANCH  20  29
ATOM     22  C   UNL     1       5.583   4.670  16.272  0.00  0.00    +0.000 A 
ATOM     23  C   UNL     1       4.521   3.881  16.729  0.00  0.00    +0.000 A 
ATOM     24  C   UNL     1       3.600   4.321  17.664  0.00  0.00    +0.000 A 
ATOM     25  N   UNL     1       2.641   3.459  18.021  0.00  0.00    +0.000 NA
ATOM     26  C   UNL     1       1.718   3.856  18.916  0.00  0.00    +0.000 A 
ATOM     27  C   UNL     1       0.670   2.855  19.297  0.00  0.00    +0.000 C 
ATOM     28  C   UNL     1       1.720   5.123  19.483  0.00  0.00    +0.000 A 
ATOM     29  C   UNL     1       2.728   6.032  19.150  0.00  0.00    +0.000 A 
ATOM     30  C   UNL     1       3.706   5.626  18.190  0.00  0.00    +0.000 A 
ATOM     31  C   UNL     1       4.779   6.427  17.724  0.00  0.00    +0.000 A 
ATOM     32  C   UNL     1       5.721   5.963  16.788  0.00  0.00    +0.000 A 
BRANCH  22  34
ATOM     33  C   UNL     1       6.135   4.150  14.012  0.00  0.00    +0.000 C 
ATOM     34  O   UNL     1       6.512   4.195  15.385  0.00  0.00    +0.000 OA
ENDBRANCH  22  34
BRANCH  32  35
ATOM     35  O   UNL     1       6.680   6.901  16.503  0.00  0.00    +0.000 OA
ATOM     36  C   UNL     1       7.506   7.379  17.556  0.00  0.00    +0.000 C 
ENDBRANCH  32  35
ENDBRANCH  20  29
ENDBRANCH   1  20
TORSDOF 7
ENDMDL
MODEL 9
REMARK VINA RESULT:      -7.9      2.500      4.933
REMARK  Name = 
REMARK  10 active torsions:
REMARK  status: ('A' for Active; 'I' for Inactive)
REMARK    1  A    between atoms: C_1  and  O_2
REMARK    2  A    between atoms: O_2  and  C_3
REMARK    3  A    between atoms: C_7  and  C_8
REMARK    4  A    between atoms: C_10  and  N_11
REMARK    5  A    between atoms: N_11  and  C_12
REMARK    6  A    between atoms: C_12  and  C_13
REMARK    7  A    between atoms: C_20  and  C_21
REMARK    8  A    between atoms: N_23  and  O_24
REMARK    9  A    between atoms: C_31  and  O_32
REMARK   10  A    between atoms: O_32  and  C_33
REMARK                            x       y       z     vdW  Elec       q    Type
REMARK                         _______ _______ _______ _____ _____    ______ ____
ROOT
ATOM      1  C   UNL     1       1.727   7.608  20.961  0.00  0.00    +0.000 C 
ENDROOT
BRANCH   1   2
ATOM      2  C   UNL     1       0.374   8.254  20.589  0.00  0.00    +0.000 C 
ATOM      3  C   UNL     1       0.532   9.565  19.796  0.00  0.00    +0.000 C 
ATOM      4  C   UNL     1       1.090  10.699  20.658  0.00  0.00    +0.000 C 
ATOM      5  N   UNL     1       0.277  10.857  21.853  0.00  0.00    +0.000 N 
ATOM      6  C   UNL     1      -0.474  11.993  22.036  0.00  0.00    +0.000 A 
ATOM      7  N   UNL     1      -0.512  12.916  21.057  0.00  0.00    +0.000 NA
ATOM      8  C   UNL     1      -1.215  14.051  21.270  0.00  0.00    +0.000 A 
ATOM      9  C   UNL     1      -1.869  14.325  22.443  0.00  0.00    +0.000 A 
ATOM     10  C   UNL     1      -1.804  13.326  23.383  0.00  0.00    +0.000 A 
ATOM     11  N   UNL     1      -1.123  12.171  23.200  0.00  0.00    +0.000 NA
ATOM     12  C   UNL     1       0.062   9.688  22.693  0.00  0.00    +0.000 C 
ATOM     13  C   UNL     1      -0.486   8.537  21.841  0.00  0.00    +0.000 C 
BRANCH   9  14
ATOM     14  C   UNL     1      -2.612  15.562  22.708  0.00  0.00    +0.000 C 
ATOM     15  O   UNL     1      -2.200  16.376  23.537  0.00  0.00    +0.000 OA
ATOM     16  N   UNL     1      -3.746  15.790  21.966  0.00  0.00    +0.000 N 
ATOM     17  H   UNL     1      -4.005  15.296  21.119  0.00  0.00    +0.000 HD
BRANCH  16  18
ATOM     18  O   UNL     1      -4.356  17.053  22.156  0.00  0.00    +0.000 OA
ATOM     19  H   UNL     1      -5.038  17.069  21.447  0.00  0.00    +0.000 HD
ENDBRANCH  16  18
ENDBRANCH   9  14
ENDBRANCH   1   2
BRANCH   1  20
ATOM     20  N   UNL     1       2.505   7.304  19.758  0.00  0.00    +0.000 N 
ATOM     21  H   UNL     1       3.394   7.790  19.696  0.00  0.00    +0.000 HD
BRANCH  20  29
ATOM     22  C   UNL     1       5.567   4.874  16.379  0.00  0.00    +0.000 A 
ATOM     23  C   UNL     1       4.579   3.996  16.841  0.00  0.00    +0.000 A 
ATOM     24  C   UNL     1       3.626   4.358  17.779  0.00  0.00    +0.000 A 
ATOM     25  N   UNL     1       2.747   3.416  18.141  0.00  0.00    +0.000 NA
ATOM     26  C   UNL     1       1.796   3.734  19.038  0.00  0.00    +0.000 A 
ATOM     27  C   UNL     1       0.841   2.647  19.426  0.00  0.00    +0.000 C 
ATOM     28  C   UNL     1       1.690   4.998  19.602  0.00  0.00    +0.000 A 
ATOM     29  C   UNL     1       2.614   5.990  19.263  0.00  0.00    +0.000 A 
ATOM     30  C   UNL     1       3.620   5.668  18.301  0.00  0.00    +0.000 A 
ATOM     31  C   UNL     1       4.617   6.558  17.829  0.00  0.00    +0.000 A 
ATOM     32  C   UNL     1       5.593   6.176  16.891  0.00  0.00    +0.000 A 
BRANCH  22  34
ATOM     33  C   UNL     1       6.086   3.973  14.234  0.00  0.00    +0.000 C 
ATOM     34  O   UNL     1       6.530   4.479  15.489  0.00  0.00    +0.000 OA
ENDBRANCH  22  34
BRANCH  32  35
ATOM     35  O   UNL     1       6.466   7.192  16.600  0.00  0.00    +0.000 OA
ATOM     36  C   UNL     1       7.499   7.496  17.527  0.00  0.00    +0.000 C 
ENDBRANCH  32  35
ENDBRANCH  20  29
ENDBRANCH   1  20
TORSDOF 7
ENDMDL
