MODEL 1
REMARK VINA RESULT:      -6.4      0.000      0.000
REMARK  Name = 
REMARK  6 active torsions:
REMARK  status: ('A' for Active; 'I' for Inactive)
REMARK    1  A    between atoms: C_1  and  C_2
REMARK    2  A    between atoms: C_2  and  C_3
REMARK    3  A    between atoms: N_6  and  C_7
REMARK    4  A    between atoms: C_9  and  C_10
REMARK    5  A    between atoms: C_10  and  C_11
REMARK    6  A    between atoms: N_15  and  C_16
REMARK                            x       y       z     vdW  Elec       q    Type
REMARK                         _______ _______ _______ _____ _____    ______ ____
ROOT
ATOM      1  C   UNL     1       5.512   4.823  16.097  0.00  0.00    +0.000 C 
ATOM      2  C   UNL     1       6.672   4.924  17.077  0.00  0.00    +0.000 C 
ATOM      3  O   UNL     1       7.858   4.916  16.792  0.00  0.00    +0.000 OA
ATOM      4  N   UNL     1       6.163   5.103  18.348  0.00  0.00    +0.000 N 
ATOM      5  C   UNL     1       7.029   5.501  19.435  0.00  0.00    +0.000 C 
ATOM      6  C   UNL     1       4.771   5.467  18.312  0.00  0.00    +0.000 C 
ATOM      7  C   UNL     1       4.248   4.834  17.019  0.00  0.00    +0.000 C 
ENDROOT
BRANCH   1   9
ATOM      8  C   UNL     1       6.197   3.973  13.764  0.00  0.00    +0.000 C 
ATOM      9  C   UNL     1       5.671   3.622  15.157  0.00  0.00    +0.000 C 
ENDBRANCH   1   9
BRANCH   7  10
ATOM     10  C   UNL     1       3.570   3.471  17.283  0.00  0.00    +0.000 C 
BRANCH  10  11
ATOM     11  C   UNL     1       2.725   3.452  18.530  0.00  0.00    +0.000 A 
ATOM     12  C   UNL     1       1.443   3.919  18.750  0.00  0.00    +0.000 A 
ATOM     13  N   UNL     1       0.994   3.602  20.003  0.00  0.00    +0.000 NA
ATOM     14  C   UNL     1       1.981   2.945  20.561  0.00  0.00    +0.000 A 
ATOM     15  N   UNL     1       3.062   2.863  19.733  0.00  0.00    +0.000 N 
ATOM     16  C   UNL     1       4.316   2.255  20.111  0.00  0.00    +0.000 C 
ENDBRANCH  10  11
ENDBRANCH   7  10
TORSDOF 3
ENDMDL
MODEL 2
REMARK VINA RESULT:      -6.3      1.581      2.994
REMARK  Name = 
REMARK  6 active torsions:
REMARK  status: ('A' for Active; 'I' for Inactive)
REMARK    1  A    between atoms: C_1  and  C_2
REMARK    2  A    between atoms: C_2  and  C_3
REMARK    3  A    between atoms: N_6  and  C_7
REMARK    4  A    between atoms: C_9  and  C_10
REMARK    5  A    between atoms: C_10  and  C_11
REMARK    6  A    between atoms: N_15  and  C_16
REMARK                            x       y       z     vdW  Elec       q    Type
REMARK                         _______ _______ _______ _____ _____    ______ ____
ROOT
ATOM      1  C   UNL     1       7.077   5.006  16.759  0.00  0.00    +0.000 C 
ATOM      2  C   UNL     1       7.053   5.005  15.237  0.00  0.00    +0.000 C 
ATOM      3  O   UNL     1       7.872   5.532  14.504  0.00  0.00    +0.000 OA
ATOM      4  N   UNL     1       5.985   4.239  14.812  0.00  0.00    +0.000 N 
ATOM      5  C   UNL     1       5.875   3.837  13.429  0.00  0.00    +0.000 C 
ATOM      6  C   UNL     1       5.454   3.436  15.882  0.00  0.00    +0.000 C 
ATOM      7  C   UNL     1       5.773   4.234  17.149  0.00  0.00    +0.000 C 
ENDROOT
BRANCH   1   9
ATOM      8  C   UNL     1       7.900   6.495  18.694  0.00  0.00    +0.000 C 
ATOM      9  C   UNL     1       7.234   6.426  17.318  0.00  0.00    +0.000 C 
ENDBRANCH   1   9
BRANCH   7  10
ATOM     10  C   UNL     1       4.570   5.090  17.605  0.00  0.00    +0.000 C 
BRANCH  10  11
ATOM     11  C   UNL     1       3.355   4.276  17.963  0.00  0.00    +0.000 A 
ATOM     12  C   UNL     1       2.069   4.319  17.460  0.00  0.00    +0.000 A 
ATOM     13  N   UNL     1       1.285   3.324  17.980  0.00  0.00    +0.000 NA
ATOM     14  C   UNL     1       2.070   2.666  18.797  0.00  0.00    +0.000 A 
ATOM     15  N   UNL     1       3.314   3.223  18.857  0.00  0.00    +0.000 N 
ATOM     16  C   UNL     1       4.363   2.747  19.728  0.00  0.00    +0.000 C 
ENDBRANCH  10  11
ENDBRANCH   7  10
TORSDOF 3
ENDMDL
MODEL 3
REMARK VINA RESULT:      -6.3      1.064      1.064
REMARK  Name = 
REMARK  6 active torsions:
REMARK  status: ('A' for Active; 'I' for Inactive)
REMARK    1  A    between atoms: C_1  and  C_2
REMARK    2  A    between atoms: C_2  and  C_3
REMARK    3  A    between atoms: N_6  and  C_7
REMARK    4  A    between atoms: C_9  and  C_10
REMARK    5  A    between atoms: C_10  and  C_11
REMARK    6  A    between atoms: N_15  and  C_16
REMARK                            x       y       z     vdW  Elec       q    Type
REMARK                         _______ _______ _______ _____ _____    ______ ____
ROOT
ATOM      1  C   UNL     1       5.471   4.925  15.395  0.00  0.00    +0.000 C 
ATOM      2  C   UNL     1       6.730   5.580  15.946  0.00  0.00    +0.000 C 
ATOM      3  O   UNL     1       7.740   5.843  15.315  0.00  0.00    +0.000 OA
ATOM      4  N   UNL     1       6.518   5.900  17.273  0.00  0.00    +0.000 N 
ATOM      5  C   UNL     1       7.434   6.772  17.972  0.00  0.00    +0.000 C 
ATOM      6  C   UNL     1       5.121   5.834  17.613  0.00  0.00    +0.000 C 
ATOM      7  C   UNL     1       4.545   4.793  16.649  0.00  0.00    +0.000 C 
ENDROOT
BRANCH   1   9
ATOM      8  C   UNL     1       5.777   3.773  13.111  0.00  0.00    +0.000 C 
ATOM      9  C   UNL     1       5.795   3.633  14.635  0.00  0.00    +0.000 C 
ENDBRANCH   1   9
BRANCH   7  10
ATOM     10  C   UNL     1       4.457   3.395  17.301  0.00  0.00    +0.000 C 
BRANCH  10  11
ATOM     11  C   UNL     1       3.224   3.203  18.145  0.00  0.00    +0.000 A 
ATOM     12  C   UNL     1       1.894   3.436  17.853  0.00  0.00    +0.000 A 
ATOM     13  N   UNL     1       1.070   3.020  18.863  0.00  0.00    +0.000 NA
ATOM     14  C   UNL     1       1.873   2.532  19.777  0.00  0.00    +0.000 A 
ATOM     15  N   UNL     1       3.182   2.656  19.413  0.00  0.00    +0.000 N 
ATOM     16  C   UNL     1       4.288   2.267  20.257  0.00  0.00    +0.000 C 
ENDBRANCH  10  11
ENDBRANCH   7  10
TORSDOF 3
ENDMDL
MODEL 4
REMARK VINA RESULT:      -6.2      1.324      1.505
REMARK  Name = 
REMARK  6 active torsions:
REMARK  status: ('A' for Active; 'I' for Inactive)
REMARK    1  A    between atoms: C_1  and  C_2
REMARK    2  A    between atoms: C_2  and  C_3
REMARK    3  A    between atoms: N_6  and  C_7
REMARK    4  A    between atoms: C_9  and  C_10
REMARK    5  A    between atoms: C_10  and  C_11
REMARK    6  A    between atoms: N_15  and  C_16
REMARK                            x       y       z     vdW  Elec       q    Type
REMARK                         _______ _______ _______ _____ _____    ______ ____
ROOT
ATOM      1  C   UNL     1       5.437   5.130  15.825  0.00  0.00    +0.000 C 
ATOM      2  C   UNL     1       6.763   5.777  16.203  0.00  0.00    +0.000 C 
ATOM      3  O   UNL     1       7.719   5.943  15.465  0.00  0.00    +0.000 OA
ATOM      4  N   UNL     1       6.683   6.218  17.510  0.00  0.00    +0.000 N 
ATOM      5  C   UNL     1       7.688   7.108  18.044  0.00  0.00    +0.000 C 
ATOM      6  C   UNL     1       5.322   6.239  17.977  0.00  0.00    +0.000 C 
ATOM      7  C   UNL     1       4.626   5.144  17.163  0.00  0.00    +0.000 C 
ENDROOT
BRANCH   1   9
ATOM      8  C   UNL     1       5.969   3.834  13.664  0.00  0.00    +0.000 C 
ATOM      9  C   UNL     1       5.647   3.765  15.158  0.00  0.00    +0.000 C 
ENDBRANCH   1   9
BRANCH   7  10
ATOM     10  C   UNL     1       4.551   3.812  17.943  0.00  0.00    +0.000 C 
BRANCH  10  11
ATOM     11  C   UNL     1       3.144   3.390  18.277  0.00  0.00    +0.000 A 
ATOM     12  C   UNL     1       2.325   2.452  17.677  0.00  0.00    +0.000 A 
ATOM     13  N   UNL     1       1.152   2.288  18.362  0.00  0.00    +0.000 NA
ATOM     14  C   UNL     1       1.234   3.113  19.378  0.00  0.00    +0.000 A 
ATOM     15  N   UNL     1       2.394   3.830  19.350  0.00  0.00    +0.000 N 
ATOM     16  C   UNL     1       2.721   4.862  20.307  0.00  0.00    +0.000 C 
ENDBRANCH  10  11
ENDBRANCH   7  10
TORSDOF 3
ENDMDL
MODEL 5
REMARK VINA RESULT:      -6.2      1.732      3.081
REMARK  Name = 
REMARK  6 active torsions:
REMARK  status: ('A' for Active; 'I' for Inactive)
REMARK    1  A    between atoms: C_1  and  C_2
REMARK    2  A    between atoms: C_2  and  C_3
REMARK    3  A    between atoms: N_6  and  C_7
REMARK    4  A    between atoms: C_9  and  C_10
REMARK    5  A    between atoms: C_10  and  C_11
REMARK    6  A    between atoms: N_15  and  C_16
REMARK                            x       y       z     vdW  Elec       q    Type
REMARK                         _______ _______ _______ _____ _____    ______ ____
ROOT
ATOM      1  C   UNL     1       6.725   5.187  16.813  0.00  0.00    +0.000 C 
ATOM      2  C   UNL     1       6.955   5.099  15.310  0.00  0.00    +0.000 C 
ATOM      3  O   UNL     1       7.846   5.648  14.685  0.00  0.00    +0.000 OA
ATOM      4  N   UNL     1       6.028   4.227  14.771  0.00  0.00    +0.000 N 
ATOM      5  C   UNL     1       6.180   3.742  13.419  0.00  0.00    +0.000 C 
ATOM      6  C   UNL     1       5.385   3.445  15.793  0.00  0.00    +0.000 C 
ATOM      7  C   UNL     1       5.432   4.336  17.038  0.00  0.00    +0.000 C 
ENDROOT
BRANCH   1   9
ATOM      8  C   UNL     1       7.860   7.048  18.185  0.00  0.00    +0.000 C 
ATOM      9  C   UNL     1       6.686   6.644  17.291  0.00  0.00    +0.000 C 
ENDBRANCH   1   9
BRANCH   7  10
ATOM     10  C   UNL     1       4.112   5.117  17.234  0.00  0.00    +0.000 C 
BRANCH  10  11
ATOM     11  C   UNL     1       3.403   4.784  18.520  0.00  0.00    +0.000 A 
ATOM     12  C   UNL     1       3.348   5.474  19.716  0.00  0.00    +0.000 A 
ATOM     13  N   UNL     1       2.494   4.883  20.607  0.00  0.00    +0.000 NA
ATOM     14  C   UNL     1       2.019   3.836  19.977  0.00  0.00    +0.000 A 
ATOM     15  N   UNL     1       2.566   3.707  18.734  0.00  0.00    +0.000 N 
ATOM     16  C   UNL     1       2.279   2.606  17.844  0.00  0.00    +0.000 C 
ENDBRANCH  10  11
ENDBRANCH   7  10
TORSDOF 3
ENDMDL
MODEL 6
REMARK VINA RESULT:      -6.2      1.802      3.165
REMARK  Name = 
REMARK  6 active torsions:
REMARK  status: ('A' for Active; 'I' for Inactive)
REMARK    1  A    between atoms: C_1  and  C_2
REMARK    2  A    between atoms: C_2  and  C_3
REMARK    3  A    between atoms: N_6  and  C_7
REMARK    4  A    between atoms: C_9  and  C_10
REMARK    5  A    between atoms: C_10  and  C_11
REMARK    6  A    between atoms: N_15  and  C_16
REMARK                            x       y       z     vdW  Elec       q    Type
REMARK                         _______ _______ _______ _____ _____    ______ ____
ROOT
ATOM      1  C   UNL     1       6.693   5.250  16.822  0.00  0.00    +0.000 C 
ATOM      2  C   UNL     1       6.943   5.110  15.327  0.00  0.00    +0.000 C 
ATOM      3  O   UNL     1       7.874   5.590  14.704  0.00  0.00    +0.000 OA
ATOM      4  N   UNL     1       5.976   4.280  14.793  0.00  0.00    +0.000 N 
ATOM      5  C   UNL     1       6.121   3.752  13.456  0.00  0.00    +0.000 C 
ATOM      6  C   UNL     1       5.271   3.563  15.822  0.00  0.00    +0.000 C 
ATOM      7  C   UNL     1       5.349   4.481  17.045  0.00  0.00    +0.000 C 
ENDROOT
BRANCH   1   9
ATOM      8  C   UNL     1       7.888   7.066  18.203  0.00  0.00    +0.000 C 
ATOM      9  C   UNL     1       6.732   6.718  17.264  0.00  0.00    +0.000 C 
ENDBRANCH   1   9
BRANCH   7  10
ATOM     10  C   UNL     1       4.075   5.341  17.197  0.00  0.00    +0.000 C 
BRANCH  10  11
ATOM     11  C   UNL     1       2.935   4.615  17.863  0.00  0.00    +0.000 A 
ATOM     12  C   UNL     1       2.331   3.414  17.543  0.00  0.00    +0.000 A 
ATOM     13  N   UNL     1       1.399   3.048  18.476  0.00  0.00    +0.000 NA
ATOM     14  C   UNL     1       1.419   4.007  19.369  0.00  0.00    +0.000 A 
ATOM     15  N   UNL     1       2.295   4.995  19.026  0.00  0.00    +0.000 N 
ATOM     16  C   UNL     1       2.473   6.208  19.790  0.00  0.00    +0.000 C 
ENDBRANCH  10  11
ENDBRANCH   7  10
TORSDOF 3
ENDMDL
MODEL 7
REMARK VINA RESULT:      -6.1      1.180      1.216
REMARK  Name = 
REMARK  6 active torsions:
REMARK  status: ('A' for Active; 'I' for Inactive)
REMARK    1  A    between atoms: C_1  and  C_2
REMARK    2  A    between atoms: C_2  and  C_3
REMARK    3  A    between atoms: N_6  and  C_7
REMARK    4  A    between atoms: C_9  and  C_10
REMARK    5  A    between atoms: C_10  and  C_11
REMARK    6  A    between atoms: N_15  and  C_16
REMARK                            x       y       z     vdW  Elec       q    Type
REMARK                         _______ _______ _______ _____ _____    ______ ____
ROOT
ATOM      1  C   UNL     1       6.188   4.988  16.072  0.00  0.00    +0.000 C 
ATOM      2  C   UNL     1       7.193   4.771  17.195  0.00  0.00    +0.000 C 
ATOM      3  O   UNL     1       8.289   4.247  17.090  0.00  0.00    +0.000 OA
ATOM      4  N   UNL     1       6.692   5.335  18.353  0.00  0.00    +0.000 N 
ATOM      5  C   UNL     1       7.544   5.521  19.505  0.00  0.00    +0.000 C 
ATOM      6  C   UNL     1       5.586   6.213  18.074  0.00  0.00    +0.000 C 
ATOM      7  C   UNL     1       4.966   5.646  16.794  0.00  0.00    +0.000 C 
ENDROOT
BRANCH   1   9
ATOM      8  C   UNL     1       5.984   3.835  13.778  0.00  0.00    +0.000 C 
ATOM      9  C   UNL     1       5.919   3.691  15.300  0.00  0.00    +0.000 C 
ENDBRANCH   1   9
BRANCH   7  10
ATOM     10  C   UNL     1       3.762   4.726  17.099  0.00  0.00    +0.000 C 
BRANCH  10  11
ATOM     11  C   UNL     1       3.199   4.913  18.484  0.00  0.00    +0.000 A 
ATOM     12  C   UNL     1       2.342   5.877  18.978  0.00  0.00    +0.000 A 
ATOM     13  N   UNL     1       1.981   5.621  20.273  0.00  0.00    +0.000 NA
ATOM     14  C   UNL     1       2.604   4.512  20.587  0.00  0.00    +0.000 A 
ATOM     15  N   UNL     1       3.384   4.066  19.559  0.00  0.00    +0.000 N 
ATOM     16  C   UNL     1       4.236   2.904  19.647  0.00  0.00    +0.000 C 
ENDBRANCH  10  11
ENDBRANCH   7  10
TORSDOF 3
ENDMDL
MODEL 8
REMARK VINA RESULT:      -6.1      1.581      3.291
REMARK  Name = 
REMARK  6 active torsions:
REMARK  status: ('A' for Active; 'I' for Inactive)
REMARK    1  A    between atoms: C_1  and  C_2
REMARK    2  A    between atoms: C_2  and  C_3
REMARK    3  A    between atoms: N_6  and  C_7
REMARK    4  A    between atoms: C_9  and  C_10
REMARK    5  A    between atoms: C_10  and  C_11
REMARK    6  A    between atoms: N_15  and  C_16
REMARK                            x       y       z     vdW  Elec       q    Type
REMARK                         _______ _______ _______ _____ _____    ______ ____
ROOT
ATOM      1  C   UNL     1       7.119   4.955  16.616  0.00  0.00    +0.000 C 
ATOM      2  C   UNL     1       7.076   4.993  15.095  0.00  0.00    +0.000 C 
ATOM      3  O   UNL     1       7.828   5.620  14.369  0.00  0.00    +0.000 OA
ATOM      4  N   UNL     1       6.084   4.136  14.659  0.00  0.00    +0.000 N 
ATOM      5  C   UNL     1       5.997   3.764  13.266  0.00  0.00    +0.000 C 
ATOM      6  C   UNL     1       5.650   3.254  15.710  0.00  0.00    +0.000 C 
ATOM      7  C   UNL     1       5.904   4.046  16.997  0.00  0.00    +0.000 C 
ENDROOT
BRANCH   1   9
ATOM      8  C   UNL     1       7.837   6.469  18.572  0.00  0.00    +0.000 C 
ATOM      9  C   UNL     1       7.140   6.367  17.214  0.00  0.00    +0.000 C 
ENDBRANCH   1   9
BRANCH   7  10
ATOM     10  C   UNL     1       4.628   4.763  17.490  0.00  0.00    +0.000 C 
BRANCH  10  11
ATOM     11  C   UNL     1       3.854   3.977  18.514  0.00  0.00    +0.000 A 
ATOM     12  C   UNL     1       4.293   3.256  19.609  0.00  0.00    +0.000 A 
ATOM     13  N   UNL     1       3.251   2.780  20.357  0.00  0.00    +0.000 NA
ATOM     14  C   UNL     1       2.172   3.196  19.740  0.00  0.00    +0.000 A 
ATOM     15  N   UNL     1       2.478   3.885  18.602  0.00  0.00    +0.000 N 
ATOM     16  C   UNL     1       1.486   4.400  17.687  0.00  0.00    +0.000 C 
ENDBRANCH  10  11
ENDBRANCH   7  10
TORSDOF 3
ENDMDL
MODEL 9
REMARK VINA RESULT:      -6.1      2.018      3.278
REMARK  Name = 
REMARK  6 active torsions:
REMARK  status: ('A' for Active; 'I' for Inactive)
REMARK    1  A    between atoms: C_1  and  C_2
REMARK    2  A    between atoms: C_2  and  C_3
REMARK    3  A    between atoms: N_6  and  C_7
REMARK    4  A    between atoms: C_9  and  C_10
REMARK    5  A    between atoms: C_10  and  C_11
REMARK    6  A    between atoms: N_15  and  C_16
REMARK                            x       y       z     vdW  Elec       q    Type
REMARK                         _______ _______ _______ _____ _____    ______ ____
ROOT
ATOM      1  C   UNL     1       4.118   6.826  17.688  0.00  0.00    +0.000 C 
ATOM      2  C   UNL     1       4.842   6.217  16.495  0.00  0.00    +0.000 C 
ATOM      3  O   UNL     1       5.187   6.806  15.484  0.00  0.00    +0.000 OA
ATOM      4  N   UNL     1       5.116   4.892  16.773  0.00  0.00    +0.000 N 
ATOM      5  C   UNL     1       6.030   4.143  15.941  0.00  0.00    +0.000 C 
ATOM      6  C   UNL     1       4.949   4.602  18.172  0.00  0.00    +0.000 C 
ATOM      7  C   UNL     1       3.895   5.608  18.644  0.00  0.00    +0.000 C 
ENDROOT
BRANCH   1   9
ATOM      8  C   UNL     1       2.383   8.640  18.264  0.00  0.00    +0.000 C 
ATOM      9  C   UNL     1       2.869   7.601  17.252  0.00  0.00    +0.000 C 
ENDBRANCH   1   9
BRANCH   7  10
ATOM     10  C   UNL     1       2.479   4.989  18.660  0.00  0.00    +0.000 C 
BRANCH  10  11
ATOM     11  C   UNL     1       2.214   4.126  19.866  0.00  0.00    +0.000 A 
ATOM     12  C   UNL     1       2.596   4.289  21.184  0.00  0.00    +0.000 A 
ATOM     13  N   UNL     1       2.049   3.331  21.994  0.00  0.00    +0.000 NA
ATOM     14  C   UNL     1       1.335   2.578  21.195  0.00  0.00    +0.000 A 
ATOM     15  N   UNL     1       1.434   2.987  19.897  0.00  0.00    +0.000 N 
ATOM     16  C   UNL     1       0.807   2.300  18.791  0.00  0.00    +0.000 C 
ENDBRANCH  10  11
ENDBRANCH   7  10
TORSDOF 3
ENDMDL
