MODEL 1
REMARK VINA RESULT:      -7.3      0.000      0.000
REMARK  Name = 
REMARK  5 active torsions:
REMARK  status: ('A' for Active; 'I' for Inactive)
REMARK    1  A    between atoms: C_2  and  C_3
REMARK    2  A    between atoms: C_4  and  C_5
REMARK    3  A    between atoms: C_7  and  O_8
REMARK    4  A    between atoms: C_9  and  O_10
REMARK    5  A    between atoms: N_12  and  C_13
REMARK                            x       y       z     vdW  Elec       q    Type
REMARK                         _______ _______ _______ _____ _____    ______ ____
ROOT
ATOM      1  O   UNL     1       8.445   7.253  18.857  0.00  0.00    +0.000 OA
ATOM      2  C   UNL     1       8.010   8.092  18.080  0.00  0.00    +0.000 C 
ATOM      3  N   UNL     1       7.011   7.918  17.139  0.00  0.00    +0.000 N 
ATOM      4  H   UNL     1       6.861   8.662  16.471  0.00  0.00    +0.000 HD
ENDROOT
BRANCH   3   5
ATOM      5  C   UNL     1       6.226   6.758  16.951  0.00  0.00    +0.000 A 
ATOM      6  C   UNL     1       6.683   5.616  16.288  0.00  0.00    +0.000 A 
ATOM      7  C   UNL     1       5.843   4.510  16.114  0.00  0.00    +0.000 A 
ATOM      8  C   UNL     1       4.545   4.550  16.607  0.00  0.00    +0.000 A 
ATOM      9  F   UNL     1       3.734   3.500  16.419  0.00  0.00    +0.000 F 
ATOM     10  C   UNL     1       4.081   5.662  17.293  0.00  0.00    +0.000 A 
ATOM     11  C   UNL     1       4.923   6.764  17.475  0.00  0.00    +0.000 A 
ENDBRANCH   3   5
BRANCH   2  12
ATOM     12  C   UNL     1       8.576   9.476  18.046  0.00  0.00    +0.000 C 
ATOM     13  C   UNL     1       9.364   9.920  19.040  0.00  0.00    +0.000 C 
BRANCH  13  14
ATOM     14  C   UNL     1       9.954  11.305  19.090  0.00  0.00    +0.000 C 
ATOM     15  C   UNL     1       8.889  12.410  19.278  0.00  0.00    +0.000 C 
ATOM     16  C   UNL     1       9.001  13.312  18.052  0.00  0.00    +0.000 C 
ATOM     17  C   UNL     1      10.459  13.153  17.617  0.00  0.00    +0.000 C 
ATOM     18  C   UNL     1      10.712  11.662  17.801  0.00  0.00    +0.000 C 
BRANCH  16  19
ATOM     19  O   UNL     1       8.134  12.873  17.001  0.00  0.00    +0.000 OA
ATOM     20  H   UNL     1       8.399  11.978  16.724  0.00  0.00    +0.000 HD
ENDBRANCH  16  19
BRANCH  17  21
ATOM     21  O   UNL     1      10.657  13.545  16.270  0.00  0.00    +0.000 OA
ATOM     22  H   UNL     1      10.438  14.498  16.230  0.00  0.00    +0.000 HD
ENDBRANCH  17  21
ENDBRANCH  13  14
ENDBRANCH   2  12
TORSDOF 5
ENDMDL
MODEL 2
REMARK VINA RESULT:      -6.9      1.716      2.047
REMARK  Name = 
REMARK  5 active torsions:
REMARK  status: ('A' for Active; 'I' for Inactive)
REMARK    1  A    between atoms: C_2  and  C_3
REMARK    2  A    between atoms: C_4  and  C_5
REMARK    3  A    between atoms: C_7  and  O_8
REMARK    4  A    between atoms: C_9  and  O_10
REMARK    5  A    between atoms: N_12  and  C_13
REMARK                            x       y       z     vdW  Elec       q    Type
REMARK                         _______ _______ _______ _____ _____    ______ ____
ROOT
ATOM      1  O   UNL     1       8.337   7.284  18.690  0.00  0.00    +0.000 OA
ATOM      2  C   UNL     1       7.803   7.975  17.834  0.00  0.00    +0.000 C 
ATOM      3  N   UNL     1       6.795   7.597  16.965  0.00  0.00    +0.000 N 
ATOM      4  H   UNL     1       6.557   8.233  16.216  0.00  0.00    +0.000 HD
ENDROOT
BRANCH   3   5
ATOM      5  C   UNL     1       6.114   6.358  16.958  0.00  0.00    +0.000 A 
ATOM      6  C   UNL     1       6.588   5.221  16.298  0.00  0.00    +0.000 A 
ATOM      7  C   UNL     1       5.849   4.033  16.310  0.00  0.00    +0.000 A 
ATOM      8  C   UNL     1       4.634   3.986  16.983  0.00  0.00    +0.000 A 
ATOM      9  F   UNL     1       3.916   2.855  16.973  0.00  0.00    +0.000 F 
ATOM     10  C   UNL     1       4.160   5.094  17.667  0.00  0.00    +0.000 A 
ATOM     11  C   UNL     1       4.902   6.280  17.664  0.00  0.00    +0.000 A 
ENDBRANCH   3   5
BRANCH   2  12
ATOM     12  C   UNL     1       8.240   9.387  17.603  0.00  0.00    +0.000 C 
ATOM     13  C   UNL     1       8.959  10.044  18.529  0.00  0.00    +0.000 C 
BRANCH  13  14
ATOM     14  C   UNL     1       9.417  11.471  18.382  0.00  0.00    +0.000 C 
ATOM     15  C   UNL     1      10.914  11.591  18.012  0.00  0.00    +0.000 C 
ATOM     16  C   UNL     1      11.563  12.378  19.147  0.00  0.00    +0.000 C 
ATOM     17  C   UNL     1      10.421  13.235  19.694  0.00  0.00    +0.000 C 
ATOM     18  C   UNL     1       9.236  12.278  19.678  0.00  0.00    +0.000 C 
BRANCH  16  19
ATOM     19  O   UNL     1      12.049  11.508  20.175  0.00  0.00    +0.000 OA
ATOM     20  H   UNL     1      11.618  10.640  20.083  0.00  0.00    +0.000 HD
ENDBRANCH  16  19
BRANCH  17  21
ATOM     21  O   UNL     1      10.687  13.700  21.006  0.00  0.00    +0.000 OA
ATOM     22  H   UNL     1      10.128  13.163  21.603  0.00  0.00    +0.000 HD
ENDBRANCH  17  21
ENDBRANCH  13  14
ENDBRANCH   2  12
TORSDOF 5
ENDMDL
MODEL 3
REMARK VINA RESULT:      -6.8      6.375      8.961
REMARK  Name = 
REMARK  5 active torsions:
REMARK  status: ('A' for Active; 'I' for Inactive)
REMARK    1  A    between atoms: C_2  and  C_3
REMARK    2  A    between atoms: C_4  and  C_5
REMARK    3  A    between atoms: C_7  and  O_8
REMARK    4  A    between atoms: C_9  and  O_10
REMARK    5  A    between atoms: N_12  and  C_13
REMARK                            x       y       z     vdW  Elec       q    Type
REMARK                         _______ _______ _______ _____ _____    ______ ____
ROOT
ATOM      1  O   UNL     1       4.684   5.849  16.635  0.00  0.00    +0.000 OA
ATOM      2  C   UNL     1       4.700   4.629  16.727  0.00  0.00    +0.000 C 
ATOM      3  N   UNL     1       5.220   3.731  15.814  0.00  0.00    +0.000 N 
ATOM      4  H   UNL     1       5.030   2.748  15.962  0.00  0.00    +0.000 HD
ENDROOT
BRANCH   3   5
ATOM      5  C   UNL     1       5.924   4.048  14.631  0.00  0.00    +0.000 A 
ATOM      6  C   UNL     1       7.035   4.895  14.597  0.00  0.00    +0.000 A 
ATOM      7  C   UNL     1       7.670   5.188  13.384  0.00  0.00    +0.000 A 
ATOM      8  C   UNL     1       7.190   4.630  12.206  0.00  0.00    +0.000 A 
ATOM      9  F   UNL     1       7.784   4.930  11.043  0.00  0.00    +0.000 F 
ATOM     10  C   UNL     1       6.107   3.764  12.221  0.00  0.00    +0.000 A 
ATOM     11  C   UNL     1       5.477   3.464  13.434  0.00  0.00    +0.000 A 
ENDBRANCH   3   5
BRANCH   2  12
ATOM     12  C   UNL     1       4.086   3.940  17.904  0.00  0.00    +0.000 C 
ATOM     13  C   UNL     1       3.182   2.960  17.732  0.00  0.00    +0.000 C 
BRANCH  13  14
ATOM     14  C   UNL     1       2.503   2.234  18.864  0.00  0.00    +0.000 C 
ATOM     15  C   UNL     1       1.013   2.617  19.021  0.00  0.00    +0.000 C 
ATOM     16  C   UNL     1       0.877   3.203  20.424  0.00  0.00    +0.000 C 
ATOM     17  C   UNL     1       2.001   2.526  21.210  0.00  0.00    +0.000 C 
ATOM     18  C   UNL     1       3.161   2.528  20.222  0.00  0.00    +0.000 C 
BRANCH  16  19
ATOM     19  O   UNL     1       1.078   4.621  20.418  0.00  0.00    +0.000 OA
ATOM     20  H   UNL     1       1.437   4.886  19.553  0.00  0.00    +0.000 HD
ENDBRANCH  16  19
BRANCH  17  21
ATOM     21  O   UNL     1       2.330   3.241  22.389  0.00  0.00    +0.000 OA
ATOM     22  H   UNL     1       2.431   4.176  22.119  0.00  0.00    +0.000 HD
ENDBRANCH  17  21
ENDBRANCH  13  14
ENDBRANCH   2  12
TORSDOF 5
ENDMDL
MODEL 4
REMARK VINA RESULT:      -6.8      1.783      2.275
REMARK  Name = 
REMARK  5 active torsions:
REMARK  status: ('A' for Active; 'I' for Inactive)
REMARK    1  A    between atoms: C_2  and  C_3
REMARK    2  A    between atoms: C_4  and  C_5
REMARK    3  A    between atoms: C_7  and  O_8
REMARK    4  A    between atoms: C_9  and  O_10
REMARK    5  A    between atoms: N_12  and  C_13
REMARK                            x       y       z     vdW  Elec       q    Type
REMARK                         _______ _______ _______ _____ _____    ______ ____
ROOT
ATOM      1  O   UNL     1       8.339   7.134  18.708  0.00  0.00    +0.000 OA
ATOM      2  C   UNL     1       7.752   7.829  17.890  0.00  0.00    +0.000 C 
ATOM      3  N   UNL     1       6.666   7.467  17.115  0.00  0.00    +0.000 N 
ATOM      4  H   UNL     1       6.381   8.102  16.380  0.00  0.00    +0.000 HD
ENDROOT
BRANCH   3   5
ATOM      5  C   UNL     1       5.956   6.247  17.180  0.00  0.00    +0.000 A 
ATOM      6  C   UNL     1       5.381   5.750  18.353  0.00  0.00    +0.000 A 
ATOM      7  C   UNL     1       4.713   4.521  18.353  0.00  0.00    +0.000 A 
ATOM      8  C   UNL     1       4.622   3.789  17.175  0.00  0.00    +0.000 A 
ATOM      9  F   UNL     1       4.003   2.601  17.182  0.00  0.00    +0.000 F 
ATOM     10  C   UNL     1       5.160   4.277  15.994  0.00  0.00    +0.000 A 
ATOM     11  C   UNL     1       5.820   5.511  15.992  0.00  0.00    +0.000 A 
ENDBRANCH   3   5
BRANCH   2  12
ATOM     12  C   UNL     1       8.203   9.226  17.605  0.00  0.00    +0.000 C 
ATOM     13  C   UNL     1       8.849   9.944  18.541  0.00  0.00    +0.000 C 
BRANCH  13  14
ATOM     14  C   UNL     1       9.315  11.362  18.339  0.00  0.00    +0.000 C 
ATOM     15  C   UNL     1      10.788  11.455  17.878  0.00  0.00    +0.000 C 
ATOM     16  C   UNL     1      11.514  12.255  18.956  0.00  0.00    +0.000 C 
ATOM     17  C   UNL     1      10.417  13.136  19.555  0.00  0.00    +0.000 C 
ATOM     18  C   UNL     1       9.222  12.195  19.628  0.00  0.00    +0.000 C 
BRANCH  16  19
ATOM     19  O   UNL     1      12.051  11.396  19.969  0.00  0.00    +0.000 OA
ATOM     20  H   UNL     1      12.797  10.895  19.596  0.00  0.00    +0.000 HD
ENDBRANCH  16  19
BRANCH  17  21
ATOM     21  O   UNL     1      10.768  13.621  20.840  0.00  0.00    +0.000 OA
ATOM     22  H   UNL     1      11.246  14.462  20.690  0.00  0.00    +0.000 HD
ENDBRANCH  17  21
ENDBRANCH  13  14
ENDBRANCH   2  12
TORSDOF 5
ENDMDL
MODEL 5
REMARK VINA RESULT:      -6.7      1.332      1.697
REMARK  Name = 
REMARK  5 active torsions:
REMARK  status: ('A' for Active; 'I' for Inactive)
REMARK    1  A    between atoms: C_2  and  C_3
REMARK    2  A    between atoms: C_4  and  C_5
REMARK    3  A    between atoms: C_7  and  O_8
REMARK    4  A    between atoms: C_9  and  O_10
REMARK    5  A    between atoms: N_12  and  C_13
REMARK                            x       y       z     vdW  Elec       q    Type
REMARK                         _______ _______ _______ _____ _____    ______ ____
ROOT
ATOM      1  O   UNL     1       8.019   6.861  18.701  0.00  0.00    +0.000 OA
ATOM      2  C   UNL     1       7.633   7.603  17.808  0.00  0.00    +0.000 C 
ATOM      3  N   UNL     1       6.596   7.372  16.922  0.00  0.00    +0.000 N 
ATOM      4  H   UNL     1       6.489   8.014  16.148  0.00  0.00    +0.000 HD
ENDROOT
BRANCH   3   5
ATOM      5  C   UNL     1       5.713   6.268  16.931  0.00  0.00    +0.000 A 
ATOM      6  C   UNL     1       5.976   5.064  16.272  0.00  0.00    +0.000 A 
ATOM      7  C   UNL     1       5.045   4.020  16.301  0.00  0.00    +0.000 A 
ATOM      8  C   UNL     1       3.850   4.184  16.991  0.00  0.00    +0.000 A 
ATOM      9  F   UNL     1       2.950   3.192  16.998  0.00  0.00    +0.000 F 
ATOM     10  C   UNL     1       3.582   5.360  17.676  0.00  0.00    +0.000 A 
ATOM     11  C   UNL     1       4.517   6.401  17.655  0.00  0.00    +0.000 A 
ENDBRANCH   3   5
BRANCH   2  12
ATOM     12  C   UNL     1       8.311   8.911  17.548  0.00  0.00    +0.000 C 
ATOM     13  C   UNL     1       8.889   9.596  18.550  0.00  0.00    +0.000 C 
BRANCH  13  14
ATOM     14  C   UNL     1       9.571  10.928  18.374  0.00  0.00    +0.000 C 
ATOM     15  C   UNL     1      10.349  11.380  19.631  0.00  0.00    +0.000 C 
ATOM     16  C   UNL     1       9.718  12.701  20.061  0.00  0.00    +0.000 C 
ATOM     17  C   UNL     1       9.162  13.278  18.759  0.00  0.00    +0.000 C 
ATOM     18  C   UNL     1       8.573  12.056  18.066  0.00  0.00    +0.000 C 
BRANCH  16  19
ATOM     19  O   UNL     1       8.651  12.490  20.992  0.00  0.00    +0.000 OA
ATOM     20  H   UNL     1       8.772  13.085  21.753  0.00  0.00    +0.000 HD
ENDBRANCH  16  19
BRANCH  17  21
ATOM     21  O   UNL     1       8.170  14.262  18.996  0.00  0.00    +0.000 OA
ATOM     22  H   UNL     1       8.574  14.914  19.603  0.00  0.00    +0.000 HD
ENDBRANCH  17  21
ENDBRANCH  13  14
ENDBRANCH   2  12
TORSDOF 5
ENDMDL
MODEL 6
REMARK VINA RESULT:      -6.7      1.331      2.011
REMARK  Name = 
REMARK  5 active torsions:
REMARK  status: ('A' for Active; 'I' for Inactive)
REMARK    1  A    between atoms: C_2  and  C_3
REMARK    2  A    between atoms: C_4  and  C_5
REMARK    3  A    between atoms: C_7  and  O_8
REMARK    4  A    between atoms: C_9  and  O_10
REMARK    5  A    between atoms: N_12  and  C_13
REMARK                            x       y       z     vdW  Elec       q    Type
REMARK                         _______ _______ _______ _____ _____    ______ ____
ROOT
ATOM      1  O   UNL     1       7.884   6.770  18.712  0.00  0.00    +0.000 OA
ATOM      2  C   UNL     1       7.535   7.520  17.811  0.00  0.00    +0.000 C 
ATOM      3  N   UNL     1       6.471   7.343  16.945  0.00  0.00    +0.000 N 
ATOM      4  H   UNL     1       6.395   7.976  16.160  0.00  0.00    +0.000 HD
ENDROOT
BRANCH   3   5
ATOM      5  C   UNL     1       5.515   6.303  16.990  0.00  0.00    +0.000 A 
ATOM      6  C   UNL     1       4.336   6.370  17.737  0.00  0.00    +0.000 A 
ATOM      7  C   UNL     1       3.444   5.292  17.756  0.00  0.00    +0.000 A 
ATOM      8  C   UNL     1       3.735   4.146  17.026  0.00  0.00    +0.000 A 
ATOM      9  F   UNL     1       2.893   3.106  17.065  0.00  0.00    +0.000 F 
ATOM     10  C   UNL     1       4.885   4.071  16.255  0.00  0.00    +0.000 A 
ATOM     11  C   UNL     1       5.773   5.152  16.228  0.00  0.00    +0.000 A 
ENDBRANCH   3   5
BRANCH   2  12
ATOM     12  C   UNL     1       8.296   8.773  17.515  0.00  0.00    +0.000 C 
ATOM     13  C   UNL     1       8.762   9.545  18.511  0.00  0.00    +0.000 C 
BRANCH  13  14
ATOM     14  C   UNL     1       9.517  10.831  18.296  0.00  0.00    +0.000 C 
ATOM     15  C   UNL     1      10.319  11.277  19.540  0.00  0.00    +0.000 C 
ATOM     16  C   UNL     1       9.763  12.644  19.928  0.00  0.00    +0.000 C 
ATOM     17  C   UNL     1       9.240  13.211  18.608  0.00  0.00    +0.000 C 
ATOM     18  C   UNL     1       8.584  12.003  17.951  0.00  0.00    +0.000 C 
BRANCH  16  19
ATOM     19  O   UNL     1       8.685  12.522  20.862  0.00  0.00    +0.000 OA
ATOM     20  H   UNL     1       8.208  13.370  20.908  0.00  0.00    +0.000 HD
ENDBRANCH  16  19
BRANCH  17  21
ATOM     21  O   UNL     1       8.304  14.256  18.812  0.00  0.00    +0.000 OA
ATOM     22  H   UNL     1       7.787  14.322  17.984  0.00  0.00    +0.000 HD
ENDBRANCH  17  21
ENDBRANCH  13  14
ENDBRANCH   2  12
TORSDOF 5
ENDMDL
MODEL 7
REMARK VINA RESULT:      -6.7      3.963      8.129
REMARK  Name = 
REMARK  5 active torsions:
REMARK  status: ('A' for Active; 'I' for Inactive)
REMARK    1  A    between atoms: C_2  and  C_3
REMARK    2  A    between atoms: C_4  and  C_5
REMARK    3  A    between atoms: C_7  and  O_8
REMARK    4  A    between atoms: C_9  and  O_10
REMARK    5  A    between atoms: N_12  and  C_13
REMARK                            x       y       z     vdW  Elec       q    Type
REMARK                         _______ _______ _______ _____ _____    ______ ____
ROOT
ATOM      1  O   UNL     1       7.649  10.069  17.474  0.00  0.00    +0.000 OA
ATOM      2  C   UNL     1       8.185   9.186  18.131  0.00  0.00    +0.000 C 
ATOM      3  N   UNL     1       9.165   9.341  19.095  0.00  0.00    +0.000 N 
ATOM      4  H   UNL     1       9.612   8.506  19.448  0.00  0.00    +0.000 HD
ENDROOT
BRANCH   3   5
ATOM      5  C   UNL     1       9.679  10.565  19.580  0.00  0.00    +0.000 A 
ATOM      6  C   UNL     1       9.336  11.108  20.822  0.00  0.00    +0.000 A 
ATOM      7  C   UNL     1       9.863  12.338  21.230  0.00  0.00    +0.000 A 
ATOM      8  C   UNL     1      10.734  13.024  20.393  0.00  0.00    +0.000 A 
ATOM      9  F   UNL     1      11.220  14.212  20.775  0.00  0.00    +0.000 F 
ATOM     10  C   UNL     1      11.110  12.490  19.170  0.00  0.00    +0.000 A 
ATOM     11  C   UNL     1      10.590  11.255  18.765  0.00  0.00    +0.000 A 
ENDBRANCH   3   5
BRANCH   2  12
ATOM     12  C   UNL     1       7.830   7.749  17.919  0.00  0.00    +0.000 C 
ATOM     13  C   UNL     1       6.619   7.402  17.449  0.00  0.00    +0.000 C 
BRANCH  13  14
ATOM     14  C   UNL     1       6.179   5.978  17.230  0.00  0.00    +0.000 C 
ATOM     15  C   UNL     1       7.359   5.014  16.967  0.00  0.00    +0.000 C 
ATOM     16  C   UNL     1       7.114   4.421  15.582  0.00  0.00    +0.000 C 
ATOM     17  C   UNL     1       5.594   4.481  15.425  0.00  0.00    +0.000 C 
ATOM     18  C   UNL     1       5.241   5.838  16.020  0.00  0.00    +0.000 C 
BRANCH  16  19
ATOM     19  O   UNL     1       7.737   5.209  14.561  0.00  0.00    +0.000 OA
ATOM     20  H   UNL     1       8.099   6.018  14.963  0.00  0.00    +0.000 HD
ENDBRANCH  16  19
BRANCH  17  21
ATOM     21  O   UNL     1       5.197   4.397  14.067  0.00  0.00    +0.000 OA
ATOM     22  H   UNL     1       4.386   4.938  13.988  0.00  0.00    +0.000 HD
ENDBRANCH  17  21
ENDBRANCH  13  14
ENDBRANCH   2  12
TORSDOF 5
ENDMDL
MODEL 8
REMARK VINA RESULT:      -6.6      3.980      8.263
REMARK  Name = 
REMARK  5 active torsions:
REMARK  status: ('A' for Active; 'I' for Inactive)
REMARK    1  A    between atoms: C_2  and  C_3
REMARK    2  A    between atoms: C_4  and  C_5
REMARK    3  A    between atoms: C_7  and  O_8
REMARK    4  A    between atoms: C_9  and  O_10
REMARK    5  A    between atoms: N_12  and  C_13
REMARK                            x       y       z     vdW  Elec       q    Type
REMARK                         _______ _______ _______ _____ _____    ______ ____
ROOT
ATOM      1  O   UNL     1       8.030  10.451  17.718  0.00  0.00    +0.000 OA
ATOM      2  C   UNL     1       8.497   9.581  18.441  0.00  0.00    +0.000 C 
ATOM      3  N   UNL     1       9.271   9.764  19.572  0.00  0.00    +0.000 N 
ATOM      4  H   UNL     1       9.704   8.947  19.981  0.00  0.00    +0.000 HD
ENDROOT
BRANCH   3   5
ATOM      5  C   UNL     1       9.600  10.999  20.175  0.00  0.00    +0.000 A 
ATOM      6  C   UNL     1       8.973  11.488  21.324  0.00  0.00    +0.000 A 
ATOM      7  C   UNL     1       9.330  12.733  21.854  0.00  0.00    +0.000 A 
ATOM      8  C   UNL     1      10.316  13.488  21.230  0.00  0.00    +0.000 A 
ATOM      9  F   UNL     1      10.640  14.690  21.725  0.00  0.00    +0.000 F 
ATOM     10  C   UNL     1      10.971  13.008  20.106  0.00  0.00    +0.000 A 
ATOM     11  C   UNL     1      10.620  11.759  19.581  0.00  0.00    +0.000 A 
ENDBRANCH   3   5
BRANCH   2  12
ATOM     12  C   UNL     1       8.290   8.132  18.131  0.00  0.00    +0.000 C 
ATOM     13  C   UNL     1       7.284   7.738  17.333  0.00  0.00    +0.000 C 
BRANCH  13  14
ATOM     14  C   UNL     1       6.996   6.298  16.992  0.00  0.00    +0.000 C 
ATOM     15  C   UNL     1       5.575   6.085  16.419  0.00  0.00    +0.000 C 
ATOM     16  C   UNL     1       4.877   5.126  17.379  0.00  0.00    +0.000 C 
ATOM     17  C   UNL     1       6.026   4.322  17.989  0.00  0.00    +0.000 C 
ATOM     18  C   UNL     1       7.100   5.378  18.219  0.00  0.00    +0.000 C 
BRANCH  16  19
ATOM     19  O   UNL     1       4.183   5.835  18.412  0.00  0.00    +0.000 OA
ATOM     20  H   UNL     1       3.230   5.654  18.334  0.00  0.00    +0.000 HD
ENDBRANCH  16  19
BRANCH  17  21
ATOM     21  O   UNL     1       5.652   3.697  19.204  0.00  0.00    +0.000 OA
ATOM     22  H   UNL     1       5.991   4.272  19.920  0.00  0.00    +0.000 HD
ENDBRANCH  17  21
ENDBRANCH  13  14
ENDBRANCH   2  12
TORSDOF 5
ENDMDL
MODEL 9
REMARK VINA RESULT:      -6.6      3.996      8.212
REMARK  Name = 
REMARK  5 active torsions:
REMARK  status: ('A' for Active; 'I' for Inactive)
REMARK    1  A    between atoms: C_2  and  C_3
REMARK    2  A    between atoms: C_4  and  C_5
REMARK    3  A    between atoms: C_7  and  O_8
REMARK    4  A    between atoms: C_9  and  O_10
REMARK    5  A    between atoms: N_12  and  C_13
REMARK                            x       y       z     vdW  Elec       q    Type
REMARK                         _______ _______ _______ _____ _____    ______ ____
ROOT
ATOM      1  O   UNL     1       8.027  10.448  17.718  0.00  0.00    +0.000 OA
ATOM      2  C   UNL     1       8.540   9.613  18.451  0.00  0.00    +0.000 C 
ATOM      3  N   UNL     1       9.365   9.850  19.535  0.00  0.00    +0.000 N 
ATOM      4  H   UNL     1       9.829   9.056  19.955  0.00  0.00    +0.000 HD
ENDROOT
BRANCH   3   5
ATOM      5  C   UNL     1       9.706  11.113  20.071  0.00  0.00    +0.000 A 
ATOM      6  C   UNL     1      10.682  11.948  19.519  0.00  0.00    +0.000 A 
ATOM      7  C   UNL     1      10.988  13.176  20.117  0.00  0.00    +0.000 A 
ATOM      8  C   UNL     1      10.316  13.566  21.268  0.00  0.00    +0.000 A 
ATOM      9  F   UNL     1      10.626  14.730  21.853  0.00  0.00    +0.000 F 
ATOM     10  C   UNL     1       9.324  12.766  21.816  0.00  0.00    +0.000 A 
ATOM     11  C   UNL     1       9.011  11.542  21.214  0.00  0.00    +0.000 A 
ENDBRANCH   3   5
BRANCH   2  12
ATOM     12  C   UNL     1       8.337   8.151  18.211  0.00  0.00    +0.000 C 
ATOM     13  C   UNL     1       7.445   7.721  17.302  0.00  0.00    +0.000 C 
BRANCH  13  14
ATOM     14  C   UNL     1       7.167   6.268  17.018  0.00  0.00    +0.000 C 
ATOM     15  C   UNL     1       5.789   6.034  16.358  0.00  0.00    +0.000 C 
ATOM     16  C   UNL     1       5.014   5.132  17.314  0.00  0.00    +0.000 C 
ATOM     17  C   UNL     1       6.109   4.354  18.046  0.00  0.00    +0.000 C 
ATOM     18  C   UNL     1       7.174   5.413  18.296  0.00  0.00    +0.000 C 
BRANCH  16  19
ATOM     19  O   UNL     1       4.256   5.900  18.255  0.00  0.00    +0.000 OA
ATOM     20  H   UNL     1       4.782   6.671  18.531  0.00  0.00    +0.000 HD
ENDBRANCH  16  19
BRANCH  17  21
ATOM     21  O   UNL     1       5.642   3.798  19.263  0.00  0.00    +0.000 OA
ATOM     22  H   UNL     1       5.991   4.372  19.975  0.00  0.00    +0.000 HD
ENDBRANCH  17  21
ENDBRANCH  13  14
ENDBRANCH   2  12
TORSDOF 5
ENDMDL
