MODEL 1
REMARK VINA RESULT:      -6.6      0.000      0.000
REMARK  Name = 
REMARK  9 active torsions:
REMARK  status: ('A' for Active; 'I' for Inactive)
REMARK    1  A    between atoms: C_1  and  N_2
REMARK    2  A    between atoms: N_2  and  C_3
REMARK    3  A    between atoms: N_2  and  P_13
REMARK    4  A    between atoms: C_5  and  C_6
REMARK    5  A    between atoms: C_5  and  C_7
REMARK    6  A    between atoms: C_9  and  C_10
REMARK    7  A    between atoms: C_9  and  C_11
REMARK    8  A    between atoms: P_13  and  N_15
REMARK    9  A    between atoms: P_13  and  N_18
REMARK                            x       y       z     vdW  Elec       q    Type
REMARK                         _______ _______ _______ _____ _____    ______ ____
ROOT
ATOM      1  C   UNL     1       4.757   5.815  17.324  0.00  0.00    +0.000 C 
ATOM      2  C   UNL     1       5.573   7.062  17.722  0.00  0.00    +0.000 C 
ATOM      3  C   UNL     1       7.106   6.881  17.533  0.00  0.00    +0.000 C 
ATOM      4  C   UNL     1       7.786   8.265  17.613  0.00  0.00    +0.000 C 
ATOM      5  C   UNL     1       7.741   6.013  18.637  0.00  0.00    +0.000 C 
ATOM      6  N   UNL     1       7.442   6.380  16.197  0.00  0.00    +0.000 NA
ATOM      7  C   UNL     1       6.690   5.247  15.656  0.00  0.00    +0.000 C 
ATOM      8  C   UNL     1       6.938   5.289  14.128  0.00  0.00    +0.000 C 
ATOM      9  C   UNL     1       7.232   3.891  16.145  0.00  0.00    +0.000 C 
ATOM     10  C   UNL     1       5.170   5.394  15.889  0.00  0.00    +0.000 C 
ATOM     11  H   UNL     1       8.447   6.214  16.111  0.00  0.00    +0.000 HD
ENDROOT
BRANCH   1  13
ATOM     12  C   UNL     1       3.030   7.410  17.893  0.00  0.00    +0.000 C 
ATOM     13  N   UNL     1       3.258   5.995  17.523  0.00  0.00    +0.000 NA
BRANCH  13  14
ATOM     14  P   UNL     1       2.420   4.686  18.390  0.00  0.00    +0.000 P 
ATOM     15  S   UNL     1       3.887   3.265  18.114  0.00  0.00    +0.000 S 
BRANCH  14  16
ATOM     16  N   UNL     1       2.437   5.467  19.883  0.00  0.00    +0.000 NA
ATOM     17  C   UNL     1       1.412   5.914  20.789  0.00  0.00    +0.000 C 
ATOM     18  C   UNL     1       2.299   4.736  21.131  0.00  0.00    +0.000 C 
ENDBRANCH  14  16
BRANCH  14  19
ATOM     19  N   UNL     1       1.582   3.377  19.258  0.00  0.00    +0.000 NA
ATOM     20  C   UNL     1       0.614   2.412  18.803  0.00  0.00    +0.000 C 
ATOM     21  C   UNL     1       2.060   2.055  18.797  0.00  0.00    +0.000 C 
ENDBRANCH  14  19
ENDBRANCH  13  14
ENDBRANCH   1  13
TORSDOF 4
ENDMDL
MODEL 2
REMARK VINA RESULT:      -6.4      1.547      1.935
REMARK  Name = 
REMARK  9 active torsions:
REMARK  status: ('A' for Active; 'I' for Inactive)
REMARK    1  A    between atoms: C_1  and  N_2
REMARK    2  A    between atoms: N_2  and  C_3
REMARK    3  A    between atoms: N_2  and  P_13
REMARK    4  A    between atoms: C_5  and  C_6
REMARK    5  A    between atoms: C_5  and  C_7
REMARK    6  A    between atoms: C_9  and  C_10
REMARK    7  A    between atoms: C_9  and  C_11
REMARK    8  A    between atoms: P_13  and  N_15
REMARK    9  A    between atoms: P_13  and  N_18
REMARK                            x       y       z     vdW  Elec       q    Type
REMARK                         _______ _______ _______ _____ _____    ______ ____
ROOT
ATOM      1  C   UNL     1       4.857   5.910  17.795  0.00  0.00    +0.000 C 
ATOM      2  C   UNL     1       5.658   7.211  18.009  0.00  0.00    +0.000 C 
ATOM      3  C   UNL     1       7.166   7.072  17.656  0.00  0.00    +0.000 C 
ATOM      4  C   UNL     1       7.790   8.481  17.561  0.00  0.00    +0.000 C 
ATOM      5  C   UNL     1       7.959   6.310  18.736  0.00  0.00    +0.000 C 
ATOM      6  N   UNL     1       7.370   6.487  16.328  0.00  0.00    +0.000 NA
ATOM      7  C   UNL     1       6.612   5.291  15.957  0.00  0.00    +0.000 C 
ATOM      8  C   UNL     1       6.683   5.229  14.410  0.00  0.00    +0.000 C 
ATOM      9  C   UNL     1       7.265   3.994  16.471  0.00  0.00    +0.000 C 
ATOM     10  C   UNL     1       5.123   5.400  16.354  0.00  0.00    +0.000 C 
ATOM     11  H   UNL     1       8.365   6.350  16.137  0.00  0.00    +0.000 HD
ENDROOT
BRANCH   1  13
ATOM     12  C   UNL     1       3.020   7.473  17.969  0.00  0.00    +0.000 C 
ATOM     13  N   UNL     1       3.384   6.050  18.154  0.00  0.00    +0.000 NA
BRANCH  13  14
ATOM     14  P   UNL     1       2.840   5.155  19.593  0.00  0.00    +0.000 P 
ATOM     15  S   UNL     1       1.832   6.728  20.462  0.00  0.00    +0.000 S 
BRANCH  14  16
ATOM     16  N   UNL     1       1.884   4.066  18.733  0.00  0.00    +0.000 NA
ATOM     17  C   UNL     1       1.214   4.111  17.461  0.00  0.00    +0.000 C 
ATOM     18  C   UNL     1       2.432   3.238  17.673  0.00  0.00    +0.000 C 
ENDBRANCH  14  16
BRANCH  14  19
ATOM     19  N   UNL     1       2.295   4.259  21.031  0.00  0.00    +0.000 NA
ATOM     20  C   UNL     1       1.389   3.145  21.162  0.00  0.00    +0.000 C 
ATOM     21  C   UNL     1       2.850   2.887  21.033  0.00  0.00    +0.000 C 
ENDBRANCH  14  19
ENDBRANCH  13  14
ENDBRANCH   1  13
TORSDOF 4
ENDMDL
MODEL 3
REMARK VINA RESULT:      -6.2      1.296      1.854
REMARK  Name = 
REMARK  9 active torsions:
REMARK  status: ('A' for Active; 'I' for Inactive)
REMARK    1  A    between atoms: C_1  and  N_2
REMARK    2  A    between atoms: N_2  and  C_3
REMARK    3  A    between atoms: N_2  and  P_13
REMARK    4  A    between atoms: C_5  and  C_6
REMARK    5  A    between atoms: C_5  and  C_7
REMARK    6  A    between atoms: C_9  and  C_10
REMARK    7  A    between atoms: C_9  and  C_11
REMARK    8  A    between atoms: P_13  and  N_15
REMARK    9  A    between atoms: P_13  and  N_18
REMARK                            x       y       z     vdW  Elec       q    Type
REMARK                         _______ _______ _______ _____ _____    ______ ____
ROOT
ATOM      1  C   UNL     1       4.861   5.759  17.613  0.00  0.00    +0.000 C 
ATOM      2  C   UNL     1       5.600   7.085  17.889  0.00  0.00    +0.000 C 
ATOM      3  C   UNL     1       7.126   7.012  17.598  0.00  0.00    +0.000 C 
ATOM      4  C   UNL     1       7.696   8.446  17.560  0.00  0.00    +0.000 C 
ATOM      5  C   UNL     1       7.902   6.257  18.694  0.00  0.00    +0.000 C 
ATOM      6  N   UNL     1       7.408   6.466  16.267  0.00  0.00    +0.000 NA
ATOM      7  C   UNL     1       6.714   5.251  15.839  0.00  0.00    +0.000 C 
ATOM      8  C   UNL     1       6.852   5.228  14.296  0.00  0.00    +0.000 C 
ATOM      9  C   UNL     1       7.395   3.969  16.352  0.00  0.00    +0.000 C 
ATOM     10  C   UNL     1       5.206   5.294  16.174  0.00  0.00    +0.000 C 
ATOM     11  H   UNL     1       8.414   6.373  16.116  0.00  0.00    +0.000 HD
ENDROOT
BRANCH   1  13
ATOM     12  C   UNL     1       3.041   7.256  18.157  0.00  0.00    +0.000 C 
ATOM     13  N   UNL     1       3.370   5.834  17.912  0.00  0.00    +0.000 NA
BRANCH  13  14
ATOM     14  P   UNL     1       2.717   4.558  18.967  0.00  0.00    +0.000 P 
ATOM     15  S   UNL     1       1.182   3.999  17.712  0.00  0.00    +0.000 S 
BRANCH  14  16
ATOM     16  N   UNL     1       4.098   3.595  18.901  0.00  0.00    +0.000 NA
ATOM     17  C   UNL     1       4.663   2.596  19.768  0.00  0.00    +0.000 C 
ATOM     18  C   UNL     1       4.051   2.220  18.436  0.00  0.00    +0.000 C 
ENDBRANCH  14  16
BRANCH  14  19
ATOM     19  N   UNL     1       2.065   3.282  20.023  0.00  0.00    +0.000 NA
ATOM     20  C   UNL     1       1.292   3.364  21.236  0.00  0.00    +0.000 C 
ATOM     21  C   UNL     1       0.590   3.229  19.929  0.00  0.00    +0.000 C 
ENDBRANCH  14  19
ENDBRANCH  13  14
ENDBRANCH   1  13
TORSDOF 4
ENDMDL
MODEL 4
REMARK VINA RESULT:      -6.1      1.531      3.257
REMARK  Name = 
REMARK  9 active torsions:
REMARK  status: ('A' for Active; 'I' for Inactive)
REMARK    1  A    between atoms: C_1  and  N_2
REMARK    2  A    between atoms: N_2  and  C_3
REMARK    3  A    between atoms: N_2  and  P_13
REMARK    4  A    between atoms: C_5  and  C_6
REMARK    5  A    between atoms: C_5  and  C_7
REMARK    6  A    between atoms: C_9  and  C_10
REMARK    7  A    between atoms: C_9  and  C_11
REMARK    8  A    between atoms: P_13  and  N_15
REMARK    9  A    between atoms: P_13  and  N_18
REMARK                            x       y       z     vdW  Elec       q    Type
REMARK                         _______ _______ _______ _____ _____    ______ ____
ROOT
ATOM      1  C   UNL     1       4.370   5.859  17.653  0.00  0.00    +0.000 C 
ATOM      2  C   UNL     1       4.620   4.733  16.629  0.00  0.00    +0.000 C 
ATOM      3  C   UNL     1       6.014   4.823  15.942  0.00  0.00    +0.000 C 
ATOM      4  C   UNL     1       6.303   3.488  15.224  0.00  0.00    +0.000 C 
ATOM      5  C   UNL     1       6.073   5.925  14.867  0.00  0.00    +0.000 C 
ATOM      6  N   UNL     1       7.100   4.963  16.915  0.00  0.00    +0.000 NA
ATOM      7  C   UNL     1       6.962   5.942  17.995  0.00  0.00    +0.000 C 
ATOM      8  C   UNL     1       7.994   5.511  19.067  0.00  0.00    +0.000 C 
ATOM      9  C   UNL     1       7.362   7.363  17.558  0.00  0.00    +0.000 C 
ATOM     10  C   UNL     1       5.562   5.896  18.646  0.00  0.00    +0.000 C 
ATOM     11  H   UNL     1       8.000   5.078  16.444  0.00  0.00    +0.000 HD
ENDROOT
BRANCH   1  13
ATOM     12  C   UNL     1       2.644   7.135  18.766  0.00  0.00    +0.000 C 
ATOM     13  N   UNL     1       3.000   5.772  18.312  0.00  0.00    +0.000 NA
BRANCH  13  14
ATOM     14  P   UNL     1       2.726   4.364  19.365  0.00  0.00    +0.000 P 
ATOM     15  S   UNL     1       1.526   5.339  20.727  0.00  0.00    +0.000 S 
BRANCH  14  16
ATOM     16  N   UNL     1       1.914   3.464  18.194  0.00  0.00    +0.000 NA
ATOM     17  C   UNL     1       2.128   2.171  17.601  0.00  0.00    +0.000 C 
ATOM     18  C   UNL     1       0.974   2.415  18.551  0.00  0.00    +0.000 C 
ENDBRANCH  14  16
BRANCH  14  19
ATOM     19  N   UNL     1       2.450   2.955  20.418  0.00  0.00    +0.000 NA
ATOM     20  C   UNL     1       3.238   2.416  21.498  0.00  0.00    +0.000 C 
ATOM     21  C   UNL     1       2.149   3.387  21.800  0.00  0.00    +0.000 C 
ENDBRANCH  14  19
ENDBRANCH  13  14
ENDBRANCH   1  13
TORSDOF 4
ENDMDL
MODEL 5
REMARK VINA RESULT:      -5.9      2.113      6.000
REMARK  Name = 
REMARK  9 active torsions:
REMARK  status: ('A' for Active; 'I' for Inactive)
REMARK    1  A    between atoms: C_1  and  N_2
REMARK    2  A    between atoms: N_2  and  C_3
REMARK    3  A    between atoms: N_2  and  P_13
REMARK    4  A    between atoms: C_5  and  C_6
REMARK    5  A    between atoms: C_5  and  C_7
REMARK    6  A    between atoms: C_9  and  C_10
REMARK    7  A    between atoms: C_9  and  C_11
REMARK    8  A    between atoms: P_13  and  N_15
REMARK    9  A    between atoms: P_13  and  N_18
REMARK                            x       y       z     vdW  Elec       q    Type
REMARK                         _______ _______ _______ _____ _____    ______ ____
ROOT
ATOM      1  C   UNL     1       4.411   4.747  19.056  0.00  0.00    +0.000 C 
ATOM      2  C   UNL     1       4.545   3.328  18.466  0.00  0.00    +0.000 C 
ATOM      3  C   UNL     1       3.868   2.232  19.338  0.00  0.00    +0.000 C 
ATOM      4  C   UNL     1       3.747   0.936  18.508  0.00  0.00    +0.000 C 
ATOM      5  C   UNL     1       4.695   1.878  20.590  0.00  0.00    +0.000 C 
ATOM      6  N   UNL     1       2.488   2.579  19.687  0.00  0.00    +0.000 NA
ATOM      7  C   UNL     1       2.200   3.925  20.185  0.00  0.00    +0.000 C 
ATOM      8  C   UNL     1       0.674   4.110  19.994  0.00  0.00    +0.000 C 
ATOM      9  C   UNL     1       2.466   4.065  21.696  0.00  0.00    +0.000 C 
ATOM     10  C   UNL     1       2.913   5.016  19.356  0.00  0.00    +0.000 C 
ATOM     11  H   UNL     1       2.080   1.876  20.306  0.00  0.00    +0.000 HD
ENDROOT
BRANCH   1  13
ATOM     12  C   UNL     1       4.083   6.869  17.945  0.00  0.00    +0.000 C 
ATOM     13  N   UNL     1       5.086   5.813  18.203  0.00  0.00    +0.000 NA
BRANCH  13  14
ATOM     14  P   UNL     1       6.137   5.220  16.894  0.00  0.00    +0.000 P 
ATOM     15  S   UNL     1       5.179   6.225  15.372  0.00  0.00    +0.000 S 
BRANCH  14  16
ATOM     16  N   UNL     1       7.533   5.955  17.485  0.00  0.00    +0.000 NA
ATOM     17  C   UNL     1       7.827   7.257  18.022  0.00  0.00    +0.000 C 
ATOM     18  C   UNL     1       7.817   6.029  18.907  0.00  0.00    +0.000 C 
ENDBRANCH  14  16
BRANCH  14  19
ATOM     19  N   UNL     1       7.188   4.627  15.586  0.00  0.00    +0.000 NA
ATOM     20  C   UNL     1       6.867   4.050  14.305  0.00  0.00    +0.000 C 
ATOM     21  C   UNL     1       7.106   5.516  14.406  0.00  0.00    +0.000 C 
ENDBRANCH  14  19
ENDBRANCH  13  14
ENDBRANCH   1  13
TORSDOF 4
ENDMDL
MODEL 6
REMARK VINA RESULT:      -5.6      1.911      5.797
REMARK  Name = 
REMARK  9 active torsions:
REMARK  status: ('A' for Active; 'I' for Inactive)
REMARK    1  A    between atoms: C_1  and  N_2
REMARK    2  A    between atoms: N_2  and  C_3
REMARK    3  A    between atoms: N_2  and  P_13
REMARK    4  A    between atoms: C_5  and  C_6
REMARK    5  A    between atoms: C_5  and  C_7
REMARK    6  A    between atoms: C_9  and  C_10
REMARK    7  A    between atoms: C_9  and  C_11
REMARK    8  A    between atoms: P_13  and  N_15
REMARK    9  A    between atoms: P_13  and  N_18
REMARK                            x       y       z     vdW  Elec       q    Type
REMARK                         _______ _______ _______ _____ _____    ______ ____
ROOT
ATOM      1  C   UNL     1       3.283   4.932  18.652  0.00  0.00    +0.000 C 
ATOM      2  C   UNL     1       2.981   4.822  20.160  0.00  0.00    +0.000 C 
ATOM      3  C   UNL     1       2.137   3.568  20.529  0.00  0.00    +0.000 C 
ATOM      4  C   UNL     1       2.192   3.360  22.057  0.00  0.00    +0.000 C 
ATOM      5  C   UNL     1       0.649   3.726  20.159  0.00  0.00    +0.000 C 
ATOM      6  N   UNL     1       2.702   2.338  19.967  0.00  0.00    +0.000 NA
ATOM      7  C   UNL     1       3.111   2.325  18.562  0.00  0.00    +0.000 C 
ATOM      8  C   UNL     1       4.067   1.113  18.430  0.00  0.00    +0.000 C 
ATOM      9  C   UNL     1       1.934   2.051  17.607  0.00  0.00    +0.000 C 
ATOM     10  C   UNL     1       3.903   3.593  18.174  0.00  0.00    +0.000 C 
ATOM     11  H   UNL     1       2.104   1.535  20.171  0.00  0.00    +0.000 HD
ENDROOT
BRANCH   1  13
ATOM     12  C   UNL     1       3.144   7.273  18.062  0.00  0.00    +0.000 C 
ATOM     13  N   UNL     1       4.099   6.168  18.296  0.00  0.00    +0.000 NA
BRANCH  13  14
ATOM     14  P   UNL     1       5.474   5.910  17.196  0.00  0.00    +0.000 P 
ATOM     15  S   UNL     1       4.695   6.976  15.615  0.00  0.00    +0.000 S 
BRANCH  14  16
ATOM     16  N   UNL     1       6.585   6.739  18.155  0.00  0.00    +0.000 NA
ATOM     17  C   UNL     1       7.919   6.456  18.611  0.00  0.00    +0.000 C 
ATOM     18  C   UNL     1       7.657   7.529  17.576  0.00  0.00    +0.000 C 
ENDBRANCH  14  16
BRANCH  14  19
ATOM     19  N   UNL     1       6.850   5.652  16.097  0.00  0.00    +0.000 NA
ATOM     20  C   UNL     1       7.385   4.443  15.523  0.00  0.00    +0.000 C 
ATOM     21  C   UNL     1       6.379   5.232  14.759  0.00  0.00    +0.000 C 
ENDBRANCH  14  19
ENDBRANCH  13  14
ENDBRANCH   1  13
TORSDOF 4
ENDMDL
MODEL 7
REMARK VINA RESULT:      -5.5      2.194      5.927
REMARK  Name = 
REMARK  9 active torsions:
REMARK  status: ('A' for Active; 'I' for Inactive)
REMARK    1  A    between atoms: C_1  and  N_2
REMARK    2  A    between atoms: N_2  and  C_3
REMARK    3  A    between atoms: N_2  and  P_13
REMARK    4  A    between atoms: C_5  and  C_6
REMARK    5  A    between atoms: C_5  and  C_7
REMARK    6  A    between atoms: C_9  and  C_10
REMARK    7  A    between atoms: C_9  and  C_11
REMARK    8  A    between atoms: P_13  and  N_15
REMARK    9  A    between atoms: P_13  and  N_18
REMARK                            x       y       z     vdW  Elec       q    Type
REMARK                         _______ _______ _______ _____ _____    ______ ____
ROOT
ATOM      1  C   UNL     1       4.125   4.550  18.306  0.00  0.00    +0.000 C 
ATOM      2  C   UNL     1       2.879   5.002  19.095  0.00  0.00    +0.000 C 
ATOM      3  C   UNL     1       1.979   3.820  19.555  0.00  0.00    +0.000 C 
ATOM      4  C   UNL     1       0.981   4.334  20.614  0.00  0.00    +0.000 C 
ATOM      5  C   UNL     1       1.138   3.233  18.404  0.00  0.00    +0.000 C 
ATOM      6  N   UNL     1       2.746   2.778  20.244  0.00  0.00    +0.000 NA
ATOM      7  C   UNL     1       3.997   2.309  19.647  0.00  0.00    +0.000 C 
ATOM      8  C   UNL     1       4.762   1.616  20.803  0.00  0.00    +0.000 C 
ATOM      9  C   UNL     1       3.771   1.230  18.572  0.00  0.00    +0.000 C 
ATOM     10  C   UNL     1       4.872   3.476  19.139  0.00  0.00    +0.000 C 
ATOM     11  H   UNL     1       2.148   1.985  20.487  0.00  0.00    +0.000 HD
ENDROOT
BRANCH   1  13
ATOM     12  C   UNL     1       4.138   6.919  17.820  0.00  0.00    +0.000 C 
ATOM     13  N   UNL     1       4.995   5.713  17.848  0.00  0.00    +0.000 NA
BRANCH  13  14
ATOM     14  P   UNL     1       6.121   5.371  16.513  0.00  0.00    +0.000 P 
ATOM     15  S   UNL     1       5.225   6.621  15.143  0.00  0.00    +0.000 S 
BRANCH  14  16
ATOM     16  N   UNL     1       7.472   6.003  17.298  0.00  0.00    +0.000 NA
ATOM     17  C   UNL     1       7.754   7.252  17.954  0.00  0.00    +0.000 C 
ATOM     18  C   UNL     1       7.603   5.969  18.744  0.00  0.00    +0.000 C 
ENDBRANCH  14  16
BRANCH  14  19
ATOM     19  N   UNL     1       7.249   5.029  15.179  0.00  0.00    +0.000 NA
ATOM     20  C   UNL     1       7.154   4.106  14.076  0.00  0.00    +0.000 C 
ATOM     21  C   UNL     1       6.700   5.514  13.894  0.00  0.00    +0.000 C 
ENDBRANCH  14  19
ENDBRANCH  13  14
ENDBRANCH   1  13
TORSDOF 4
ENDMDL
MODEL 8
REMARK VINA RESULT:      -5.5      2.853      5.981
REMARK  Name = 
REMARK  9 active torsions:
REMARK  status: ('A' for Active; 'I' for Inactive)
REMARK    1  A    between atoms: C_1  and  N_2
REMARK    2  A    between atoms: N_2  and  C_3
REMARK    3  A    between atoms: N_2  and  P_13
REMARK    4  A    between atoms: C_5  and  C_6
REMARK    5  A    between atoms: C_5  and  C_7
REMARK    6  A    between atoms: C_9  and  C_10
REMARK    7  A    between atoms: C_9  and  C_11
REMARK    8  A    between atoms: P_13  and  N_15
REMARK    9  A    between atoms: P_13  and  N_18
REMARK                            x       y       z     vdW  Elec       q    Type
REMARK                         _______ _______ _______ _____ _____    ______ ____
ROOT
ATOM      1  C   UNL     1       1.877   7.697  19.396  0.00  0.00    +0.000 C 
ATOM      2  C   UNL     1       2.092   9.062  18.711  0.00  0.00    +0.000 C 
ATOM      3  C   UNL     1       1.025  10.123  19.105  0.00  0.00    +0.000 C 
ATOM      4  C   UNL     1       1.519  11.517  18.663  0.00  0.00    +0.000 C 
ATOM      5  C   UNL     1      -0.328   9.892  18.404  0.00  0.00    +0.000 C 
ATOM      6  N   UNL     1       0.865  10.231  20.558  0.00  0.00    +0.000 NA
ATOM      7  C   UNL     1       0.732   9.006  21.348  0.00  0.00    +0.000 C 
ATOM      8  C   UNL     1       1.064   9.424  22.803  0.00  0.00    +0.000 C 
ATOM      9  C   UNL     1      -0.713   8.473  21.372  0.00  0.00    +0.000 C 
ATOM     10  C   UNL     1       1.753   7.927  20.925  0.00  0.00    +0.000 C 
ATOM     11  H   UNL     1       0.121  10.890  20.796  0.00  0.00    +0.000 HD
ENDROOT
BRANCH   1  13
ATOM     12  C   UNL     1       3.348   6.977  17.616  0.00  0.00    +0.000 C 
ATOM     13  N   UNL     1       2.918   6.659  18.996  0.00  0.00    +0.000 NA
BRANCH  13  14
ATOM     14  P   UNL     1       2.574   4.980  19.474  0.00  0.00    +0.000 P 
ATOM     15  S   UNL     1       1.530   4.476  17.770  0.00  0.00    +0.000 S 
BRANCH  14  16
ATOM     16  N   UNL     1       4.190   4.504  19.504  0.00  0.00    +0.000 NA
ATOM     17  C   UNL     1       4.856   3.235  19.630  0.00  0.00    +0.000 C 
ATOM     18  C   UNL     1       4.860   3.994  18.321  0.00  0.00    +0.000 C 
ENDBRANCH  14  16
BRANCH  14  19
ATOM     19  N   UNL     1       2.231   3.300  19.952  0.00  0.00    +0.000 NA
ATOM     20  C   UNL     1       1.373   2.768  20.981  0.00  0.00    +0.000 C 
ATOM     21  C   UNL     1       0.843   2.929  19.598  0.00  0.00    +0.000 C 
ENDBRANCH  14  19
ENDBRANCH  13  14
ENDBRANCH   1  13
TORSDOF 4
ENDMDL
MODEL 9
REMARK VINA RESULT:      -5.4      1.768      2.769
REMARK  Name = 
REMARK  9 active torsions:
REMARK  status: ('A' for Active; 'I' for Inactive)
REMARK    1  A    between atoms: C_1  and  N_2
REMARK    2  A    between atoms: N_2  and  C_3
REMARK    3  A    between atoms: N_2  and  P_13
REMARK    4  A    between atoms: C_5  and  C_6
REMARK    5  A    between atoms: C_5  and  C_7
REMARK    6  A    between atoms: C_9  and  C_10
REMARK    7  A    between atoms: C_9  and  C_11
REMARK    8  A    between atoms: P_13  and  N_15
REMARK    9  A    between atoms: P_13  and  N_18
REMARK                            x       y       z     vdW  Elec       q    Type
REMARK                         _______ _______ _______ _____ _____    ______ ____
ROOT
ATOM      1  C   UNL     1       5.081   3.980  18.109  0.00  0.00    +0.000 C 
ATOM      2  C   UNL     1       6.017   4.907  18.910  0.00  0.00    +0.000 C 
ATOM      3  C   UNL     1       7.231   5.420  18.084  0.00  0.00    +0.000 C 
ATOM      4  C   UNL     1       7.891   6.592  18.841  0.00  0.00    +0.000 C 
ATOM      5  C   UNL     1       8.320   4.345  17.900  0.00  0.00    +0.000 C 
ATOM      6  N   UNL     1       6.821   5.993  16.799  0.00  0.00    +0.000 NA
ATOM      7  C   UNL     1       5.869   5.257  15.967  0.00  0.00    +0.000 C 
ATOM      8  C   UNL     1       5.299   6.305  14.978  0.00  0.00    +0.000 C 
ATOM      9  C   UNL     1       6.550   4.177  15.105  0.00  0.00    +0.000 C 
ATOM     10  C   UNL     1       4.688   4.697  16.790  0.00  0.00    +0.000 C 
ATOM     11  H   UNL     1       7.635   6.272  16.247  0.00  0.00    +0.000 HD
ENDROOT
BRANCH   1  13
ATOM     12  C   UNL     1       3.440   2.213  18.299  0.00  0.00    +0.000 C 
ATOM     13  N   UNL     1       3.902   3.472  18.927  0.00  0.00    +0.000 NA
BRANCH  13  14
ATOM     14  P   UNL     1       2.730   4.701  19.461  0.00  0.00    +0.000 P 
ATOM     15  S   UNL     1       1.316   4.297  18.018  0.00  0.00    +0.000 S 
BRANCH  14  16
ATOM     16  N   UNL     1       2.455   3.995  20.966  0.00  0.00    +0.000 NA
ATOM     17  C   UNL     1       1.511   3.028  21.459  0.00  0.00    +0.000 C 
ATOM     18  C   UNL     1       2.976   2.682  21.303  0.00  0.00    +0.000 C 
ENDBRANCH  14  16
BRANCH  14  19
ATOM     19  N   UNL     1       1.558   5.930  19.996  0.00  0.00    +0.000 NA
ATOM     20  C   UNL     1       1.619   6.885  21.073  0.00  0.00    +0.000 C 
ATOM     21  C   UNL     1       2.062   7.291  19.709  0.00  0.00    +0.000 C 
ENDBRANCH  14  19
ENDBRANCH  13  14
ENDBRANCH   1  13
TORSDOF 4
ENDMDL
