MODEL 1
REMARK VINA RESULT:      -7.7      0.000      0.000
REMARK  Name = 
REMARK  8 active torsions:
REMARK  status: ('A' for Active; 'I' for Inactive)
REMARK    1  A    between atoms: C_1  and  C_2
REMARK    2  A    between atoms: C_2  and  C_3
REMARK    3  A    between atoms: C_2  and  C_4
REMARK    4  A    between atoms: C_13  and  C_14
REMARK    5  A    between atoms: C_14  and  C_15
REMARK    6  A    between atoms: C_15  and  N_16
REMARK    7  A    between atoms: N_16  and  C_17
REMARK    8  A    between atoms: C_17  and  C_18
REMARK                            x       y       z     vdW  Elec       q    Type
REMARK                         _______ _______ _______ _____ _____    ______ ____
ROOT
ATOM      1  C   UNL     1       6.608   5.327  16.952  0.00  0.00    +0.000 C 
ATOM      2  C   UNL     1       6.047   6.268  15.898  0.00  0.00    +0.000 C 
ATOM      3  C   UNL     1       4.896   6.940  16.069  0.00  0.00    +0.000 C 
ATOM      4  C   UNL     1       4.143   6.795  17.319  0.00  0.00    +0.000 A 
ATOM      5  C   UNL     1       3.139   7.704  17.660  0.00  0.00    +0.000 A 
ATOM      6  C   UNL     1       2.432   7.556  18.857  0.00  0.00    +0.000 A 
ATOM      7  C   UNL     1       2.734   6.509  19.726  0.00  0.00    +0.000 A 
ATOM      8  C   UNL     1       3.738   5.600  19.397  0.00  0.00    +0.000 A 
ATOM      9  C   UNL     1       4.429   5.721  18.182  0.00  0.00    +0.000 A 
ATOM     10  C   UNL     1       5.434   4.664  17.747  0.00  0.00    +0.000 C 
ENDROOT
BRANCH   1  12
ATOM     11  C   UNL     1       7.575   7.589  17.714  0.00  0.00    +0.000 C 
ATOM     12  C   UNL     1       7.631   6.064  17.877  0.00  0.00    +0.000 C 
ATOM     13  C   UNL     1       7.408   5.737  19.362  0.00  0.00    +0.000 C 
ENDBRANCH   1  12
BRANCH  10  14
ATOM     14  C   UNL     1       4.749   3.559  16.899  0.00  0.00    +0.000 C 
BRANCH  14  15
ATOM     15  C   UNL     1       3.238   3.776  16.782  0.00  0.00    +0.000 C 
BRANCH  15  16
ATOM     16  N   UNL     1       2.528   2.505  16.827  0.00  0.00    +0.000 NA
ATOM     17  H   UNL     1       2.665   1.985  15.962  0.00  0.00    +0.000 HD
BRANCH  16  18
ATOM     18  C   UNL     1       3.005   1.702  17.952  0.00  0.00    +0.000 C 
BRANCH  18  19
ATOM     19  C   UNL     1       2.463   2.233  19.254  0.00  0.00    +0.000 A 
ATOM     20  C   UNL     1       1.160   2.739  19.326  0.00  0.00    +0.000 A 
ATOM     21  C   UNL     1       0.669   3.260  20.526  0.00  0.00    +0.000 A 
ATOM     22  C   UNL     1       1.478   3.274  21.659  0.00  0.00    +0.000 A 
ATOM     23  C   UNL     1       2.771   2.757  21.604  0.00  0.00    +0.000 A 
ATOM     24  C   UNL     1       3.262   2.235  20.407  0.00  0.00    +0.000 A 
ENDBRANCH  18  19
ENDBRANCH  16  18
ENDBRANCH  15  16
ENDBRANCH  14  15
ENDBRANCH  10  14
TORSDOF 6
ENDMDL
MODEL 2
REMARK VINA RESULT:      -7.7      0.048      1.009
REMARK  Name = 
REMARK  8 active torsions:
REMARK  status: ('A' for Active; 'I' for Inactive)
REMARK    1  A    between atoms: C_1  and  C_2
REMARK    2  A    between atoms: C_2  and  C_3
REMARK    3  A    between atoms: C_2  and  C_4
REMARK    4  A    between atoms: C_13  and  C_14
REMARK    5  A    between atoms: C_14  and  C_15
REMARK    6  A    between atoms: C_15  and  N_16
REMARK    7  A    between atoms: N_16  and  C_17
REMARK    8  A    between atoms: C_17  and  C_18
REMARK                            x       y       z     vdW  Elec       q    Type
REMARK                         _______ _______ _______ _____ _____    ______ ____
ROOT
ATOM      1  C   UNL     1       6.588   5.359  16.955  0.00  0.00    +0.000 C 
ATOM      2  C   UNL     1       6.036   6.328  15.920  0.00  0.00    +0.000 C 
ATOM      3  C   UNL     1       4.889   7.003  16.103  0.00  0.00    +0.000 C 
ATOM      4  C   UNL     1       4.131   6.837  17.347  0.00  0.00    +0.000 A 
ATOM      5  C   UNL     1       3.132   7.745  17.706  0.00  0.00    +0.000 A 
ATOM      6  C   UNL     1       2.421   7.576  18.897  0.00  0.00    +0.000 A 
ATOM      7  C   UNL     1       2.714   6.508  19.744  0.00  0.00    +0.000 A 
ATOM      8  C   UNL     1       3.712   5.600  19.397  0.00  0.00    +0.000 A 
ATOM      9  C   UNL     1       4.407   5.742  18.188  0.00  0.00    +0.000 A 
ATOM     10  C   UNL     1       5.406   4.688  17.732  0.00  0.00    +0.000 C 
ENDROOT
BRANCH   1  12
ATOM     11  C   UNL     1       7.620   7.593  17.715  0.00  0.00    +0.000 C 
ATOM     12  C   UNL     1       7.612   6.069  17.898  0.00  0.00    +0.000 C 
ATOM     13  C   UNL     1       7.337   5.771  19.381  0.00  0.00    +0.000 C 
ENDBRANCH   1  12
BRANCH  10  14
ATOM     14  C   UNL     1       4.716   3.606  16.859  0.00  0.00    +0.000 C 
BRANCH  14  15
ATOM     15  C   UNL     1       3.201   3.810  16.779  0.00  0.00    +0.000 C 
BRANCH  15  16
ATOM     16  N   UNL     1       2.505   2.531  16.814  0.00  0.00    +0.000 NA
ATOM     17  H   UNL     1       2.649   2.019  15.945  0.00  0.00    +0.000 HD
BRANCH  16  18
ATOM     18  C   UNL     1       2.988   1.725  17.934  0.00  0.00    +0.000 C 
BRANCH  18  19
ATOM     19  C   UNL     1       2.464   2.261  19.241  0.00  0.00    +0.000 A 
ATOM     20  C   UNL     1       3.271   2.258  20.384  0.00  0.00    +0.000 A 
ATOM     21  C   UNL     1       2.773   2.727  21.603  0.00  0.00    +0.000 A 
ATOM     22  C   UNL     1       1.467   3.204  21.682  0.00  0.00    +0.000 A 
ATOM     23  C   UNL     1       0.660   3.227  20.546  0.00  0.00    +0.000 A 
ATOM     24  C   UNL     1       1.156   2.762  19.329  0.00  0.00    +0.000 A 
ENDBRANCH  18  19
ENDBRANCH  16  18
ENDBRANCH  15  16
ENDBRANCH  14  15
ENDBRANCH  10  14
TORSDOF 6
ENDMDL
MODEL 3
REMARK VINA RESULT:      -7.6      0.767      1.531
REMARK  Name = 
REMARK  8 active torsions:
REMARK  status: ('A' for Active; 'I' for Inactive)
REMARK    1  A    between atoms: C_1  and  C_2
REMARK    2  A    between atoms: C_2  and  C_3
REMARK    3  A    between atoms: C_2  and  C_4
REMARK    4  A    between atoms: C_13  and  C_14
REMARK    5  A    between atoms: C_14  and  C_15
REMARK    6  A    between atoms: C_15  and  N_16
REMARK    7  A    between atoms: N_16  and  C_17
REMARK    8  A    between atoms: C_17  and  C_18
REMARK                            x       y       z     vdW  Elec       q    Type
REMARK                         _______ _______ _______ _____ _____    ______ ____
ROOT
ATOM      1  C   UNL     1       5.896   5.748  17.309  0.00  0.00    +0.000 C 
ATOM      2  C   UNL     1       5.440   6.742  16.252  0.00  0.00    +0.000 C 
ATOM      3  C   UNL     1       4.331   7.487  16.391  0.00  0.00    +0.000 C 
ATOM      4  C   UNL     1       3.522   7.375  17.609  0.00  0.00    +0.000 A 
ATOM      5  C   UNL     1       2.569   8.344  17.929  0.00  0.00    +0.000 A 
ATOM      6  C   UNL     1       1.808   8.226  19.096  0.00  0.00    +0.000 A 
ATOM      7  C   UNL     1       2.005   7.148  19.956  0.00  0.00    +0.000 A 
ATOM      8  C   UNL     1       2.957   6.178  19.649  0.00  0.00    +0.000 A 
ATOM      9  C   UNL     1       3.702   6.271  18.463  0.00  0.00    +0.000 A 
ATOM     10  C   UNL     1       4.649   5.155  18.047  0.00  0.00    +0.000 C 
ENDROOT
BRANCH   1  12
ATOM     11  C   UNL     1       7.945   5.385  18.827  0.00  0.00    +0.000 C 
ATOM     12  C   UNL     1       6.929   6.400  18.285  0.00  0.00    +0.000 C 
ATOM     13  C   UNL     1       7.709   7.545  17.621  0.00  0.00    +0.000 C 
ENDBRANCH   1  12
BRANCH  10  14
ATOM     14  C   UNL     1       3.925   4.111  17.155  0.00  0.00    +0.000 C 
BRANCH  14  15
ATOM     15  C   UNL     1       4.756   2.840  16.965  0.00  0.00    +0.000 C 
BRANCH  15  16
ATOM     16  N   UNL     1       4.163   1.721  17.684  0.00  0.00    +0.000 NA
ATOM     17  H   UNL     1       4.545   1.657  18.627  0.00  0.00    +0.000 HD
BRANCH  16  18
ATOM     18  C   UNL     1       2.712   1.887  17.763  0.00  0.00    +0.000 C 
BRANCH  18  19
ATOM     19  C   UNL     1       2.308   2.398  19.122  0.00  0.00    +0.000 A 
ATOM     20  C   UNL     1       3.171   2.266  20.216  0.00  0.00    +0.000 A 
ATOM     21  C   UNL     1       2.782   2.712  21.482  0.00  0.00    +0.000 A 
ATOM     22  C   UNL     1       1.530   3.296  21.657  0.00  0.00    +0.000 A 
ATOM     23  C   UNL     1       0.669   3.449  20.572  0.00  0.00    +0.000 A 
ATOM     24  C   UNL     1       1.057   3.006  19.308  0.00  0.00    +0.000 A 
ENDBRANCH  18  19
ENDBRANCH  16  18
ENDBRANCH  15  16
ENDBRANCH  14  15
ENDBRANCH  10  14
TORSDOF 6
ENDMDL
MODEL 4
REMARK VINA RESULT:      -7.6      2.210      6.005
REMARK  Name = 
REMARK  8 active torsions:
REMARK  status: ('A' for Active; 'I' for Inactive)
REMARK    1  A    between atoms: C_1  and  C_2
REMARK    2  A    between atoms: C_2  and  C_3
REMARK    3  A    between atoms: C_2  and  C_4
REMARK    4  A    between atoms: C_13  and  C_14
REMARK    5  A    between atoms: C_14  and  C_15
REMARK    6  A    between atoms: C_15  and  N_16
REMARK    7  A    between atoms: N_16  and  C_17
REMARK    8  A    between atoms: C_17  and  C_18
REMARK                            x       y       z     vdW  Elec       q    Type
REMARK                         _______ _______ _______ _____ _____    ______ ____
ROOT
ATOM      1  C   UNL     1       3.148   3.723  19.255  0.00  0.00    +0.000 C 
ATOM      2  C   UNL     1       2.573   4.164  20.592  0.00  0.00    +0.000 C 
ATOM      3  C   UNL     1       2.224   5.437  20.843  0.00  0.00    +0.000 C 
ATOM      4  C   UNL     1       2.370   6.456  19.799  0.00  0.00    +0.000 A 
ATOM      5  C   UNL     1       1.728   7.692  19.908  0.00  0.00    +0.000 A 
ATOM      6  C   UNL     1       1.874   8.652  18.902  0.00  0.00    +0.000 A 
ATOM      7  C   UNL     1       2.648   8.377  17.777  0.00  0.00    +0.000 A 
ATOM      8  C   UNL     1       3.288   7.146  17.657  0.00  0.00    +0.000 A 
ATOM      9  C   UNL     1       3.176   6.190  18.676  0.00  0.00    +0.000 A 
ATOM     10  C   UNL     1       3.973   4.894  18.623  0.00  0.00    +0.000 C 
ENDROOT
BRANCH   1  12
ATOM     11  C   UNL     1       2.555   2.188  17.274  0.00  0.00    +0.000 C 
ATOM     12  C   UNL     1       2.024   3.189  18.309  0.00  0.00    +0.000 C 
ATOM     13  C   UNL     1       0.887   2.509  19.088  0.00  0.00    +0.000 C 
ENDBRANCH   1  12
BRANCH  10  14
ATOM     14  C   UNL     1       5.342   5.052  19.337  0.00  0.00    +0.000 C 
BRANCH  14  15
ATOM     15  C   UNL     1       6.506   5.113  18.344  0.00  0.00    +0.000 C 
BRANCH  15  16
ATOM     16  N   UNL     1       6.108   4.582  17.048  0.00  0.00    +0.000 NA
ATOM     17  H   UNL     1       5.135   4.283  17.065  0.00  0.00    +0.000 HD
BRANCH  16  18
ATOM     18  C   UNL     1       6.280   5.602  16.013  0.00  0.00    +0.000 C 
BRANCH  18  19
ATOM     19  C   UNL     1       6.439   4.963  14.657  0.00  0.00    +0.000 A 
ATOM     20  C   UNL     1       7.529   5.289  13.843  0.00  0.00    +0.000 A 
ATOM     21  C   UNL     1       7.659   4.720  12.573  0.00  0.00    +0.000 A 
ATOM     22  C   UNL     1       6.700   3.819  12.116  0.00  0.00    +0.000 A 
ATOM     23  C   UNL     1       5.619   3.474  12.925  0.00  0.00    +0.000 A 
ATOM     24  C   UNL     1       5.490   4.040  14.193  0.00  0.00    +0.000 A 
ENDBRANCH  18  19
ENDBRANCH  16  18
ENDBRANCH  15  16
ENDBRANCH  14  15
ENDBRANCH  10  14
TORSDOF 6
ENDMDL
MODEL 5
REMARK VINA RESULT:      -7.6      2.210      5.972
REMARK  Name = 
REMARK  8 active torsions:
REMARK  status: ('A' for Active; 'I' for Inactive)
REMARK    1  A    between atoms: C_1  and  C_2
REMARK    2  A    between atoms: C_2  and  C_3
REMARK    3  A    between atoms: C_2  and  C_4
REMARK    4  A    between atoms: C_13  and  C_14
REMARK    5  A    between atoms: C_14  and  C_15
REMARK    6  A    between atoms: C_15  and  N_16
REMARK    7  A    between atoms: N_16  and  C_17
REMARK    8  A    between atoms: C_17  and  C_18
REMARK                            x       y       z     vdW  Elec       q    Type
REMARK                         _______ _______ _______ _____ _____    ______ ____
ROOT
ATOM      1  C   UNL     1       3.207   4.136  19.015  0.00  0.00    +0.000 C 
ATOM      2  C   UNL     1       2.783   4.496  20.430  0.00  0.00    +0.000 C 
ATOM      3  C   UNL     1       2.385   5.733  20.773  0.00  0.00    +0.000 C 
ATOM      4  C   UNL     1       2.327   6.790  19.758  0.00  0.00    +0.000 A 
ATOM      5  C   UNL     1       1.624   7.974  19.996  0.00  0.00    +0.000 A 
ATOM      6  C   UNL     1       1.574   8.972  19.018  0.00  0.00    +0.000 A 
ATOM      7  C   UNL     1       2.212   8.786  17.793  0.00  0.00    +0.000 A 
ATOM      8  C   UNL     1       2.911   7.607  17.544  0.00  0.00    +0.000 A 
ATOM      9  C   UNL     1       2.995   6.615  18.532  0.00  0.00    +0.000 A 
ATOM     10  C   UNL     1       3.863   5.381  18.328  0.00  0.00    +0.000 C 
ENDROOT
BRANCH   1  12
ATOM     11  C   UNL     1       2.422   2.380  17.302  0.00  0.00    +0.000 C 
ATOM     12  C   UNL     1       2.007   3.553  18.200  0.00  0.00    +0.000 C 
ATOM     13  C   UNL     1       0.867   3.073  19.112  0.00  0.00    +0.000 C 
ENDBRANCH   1  12
BRANCH  10  14
ATOM     14  C   UNL     1       5.300   5.613  18.866  0.00  0.00    +0.000 C 
BRANCH  14  15
ATOM     15  C   UNL     1       6.263   4.505  18.435  0.00  0.00    +0.000 C 
BRANCH  15  16
ATOM     16  N   UNL     1       6.113   4.211  17.017  0.00  0.00    +0.000 NA
ATOM     17  H   UNL     1       5.136   4.281  16.737  0.00  0.00    +0.000 HD
BRANCH  16  18
ATOM     18  C   UNL     1       6.909   5.145  16.222  0.00  0.00    +0.000 C 
BRANCH  18  19
ATOM     19  C   UNL     1       6.855   4.781  14.761  0.00  0.00    +0.000 A 
ATOM     20  C   UNL     1       5.952   3.815  14.302  0.00  0.00    +0.000 A 
ATOM     21  C   UNL     1       5.925   3.456  12.953  0.00  0.00    +0.000 A 
ATOM     22  C   UNL     1       6.799   4.064  12.055  0.00  0.00    +0.000 A 
ATOM     23  C   UNL     1       7.691   5.039  12.497  0.00  0.00    +0.000 A 
ATOM     24  C   UNL     1       7.717   5.401  13.843  0.00  0.00    +0.000 A 
ENDBRANCH  18  19
ENDBRANCH  16  18
ENDBRANCH  15  16
ENDBRANCH  14  15
ENDBRANCH  10  14
TORSDOF 6
ENDMDL
MODEL 6
REMARK VINA RESULT:      -7.5      1.870      5.536
REMARK  Name = 
REMARK  8 active torsions:
REMARK  status: ('A' for Active; 'I' for Inactive)
REMARK    1  A    between atoms: C_1  and  C_2
REMARK    2  A    between atoms: C_2  and  C_3
REMARK    3  A    between atoms: C_2  and  C_4
REMARK    4  A    between atoms: C_13  and  C_14
REMARK    5  A    between atoms: C_14  and  C_15
REMARK    6  A    between atoms: C_15  and  N_16
REMARK    7  A    between atoms: N_16  and  C_17
REMARK    8  A    between atoms: C_17  and  C_18
REMARK                            x       y       z     vdW  Elec       q    Type
REMARK                         _______ _______ _______ _____ _____    ______ ____
ROOT
ATOM      1  C   UNL     1       2.828   4.393  19.393  0.00  0.00    +0.000 C 
ATOM      2  C   UNL     1       2.199   4.844  20.702  0.00  0.00    +0.000 C 
ATOM      3  C   UNL     1       1.809   6.111  20.917  0.00  0.00    +0.000 C 
ATOM      4  C   UNL     1       1.963   7.114  19.858  0.00  0.00    +0.000 A 
ATOM      5  C   UNL     1       1.286   8.335  19.922  0.00  0.00    +0.000 A 
ATOM      6  C   UNL     1       1.440   9.279  18.903  0.00  0.00    +0.000 A 
ATOM      7  C   UNL     1       2.257   9.004  17.808  0.00  0.00    +0.000 A 
ATOM      8  C   UNL     1       2.932   7.788  17.733  0.00  0.00    +0.000 A 
ATOM      9  C   UNL     1       2.811   6.848  18.767  0.00  0.00    +0.000 A 
ATOM     10  C   UNL     1       3.642   5.573  18.764  0.00  0.00    +0.000 C 
ENDROOT
BRANCH   1  12
ATOM     11  C   UNL     1       2.363   3.239  17.138  0.00  0.00    +0.000 C 
ATOM     12  C   UNL     1       1.749   3.812  18.422  0.00  0.00    +0.000 C 
ATOM     13  C   UNL     1       0.911   2.706  19.083  0.00  0.00    +0.000 C 
ENDBRANCH   1  12
BRANCH  10  14
ATOM     14  C   UNL     1       4.984   5.780  19.518  0.00  0.00    +0.000 C 
BRANCH  14  15
ATOM     15  C   UNL     1       5.990   4.666  19.220  0.00  0.00    +0.000 C 
BRANCH  15  16
ATOM     16  N   UNL     1       7.340   5.201  19.118  0.00  0.00    +0.000 NA
ATOM     17  H   UNL     1       8.014   4.453  18.964  0.00  0.00    +0.000 HD
BRANCH  16  18
ATOM     18  C   UNL     1       7.421   6.156  18.013  0.00  0.00    +0.000 C 
BRANCH  18  19
ATOM     19  C   UNL     1       6.761   5.599  16.779  0.00  0.00    +0.000 A 
ATOM     20  C   UNL     1       7.139   4.349  16.275  0.00  0.00    +0.000 A 
ATOM     21  C   UNL     1       6.548   3.847  15.112  0.00  0.00    +0.000 A 
ATOM     22  C   UNL     1       5.575   4.592  14.451  0.00  0.00    +0.000 A 
ATOM     23  C   UNL     1       5.179   5.831  14.953  0.00  0.00    +0.000 A 
ATOM     24  C   UNL     1       5.766   6.331  16.115  0.00  0.00    +0.000 A 
ENDBRANCH  18  19
ENDBRANCH  16  18
ENDBRANCH  15  16
ENDBRANCH  14  15
ENDBRANCH  10  14
TORSDOF 6
ENDMDL
MODEL 7
REMARK VINA RESULT:      -7.5      1.943      5.454
REMARK  Name = 
REMARK  8 active torsions:
REMARK  status: ('A' for Active; 'I' for Inactive)
REMARK    1  A    between atoms: C_1  and  C_2
REMARK    2  A    between atoms: C_2  and  C_3
REMARK    3  A    between atoms: C_2  and  C_4
REMARK    4  A    between atoms: C_13  and  C_14
REMARK    5  A    between atoms: C_14  and  C_15
REMARK    6  A    between atoms: C_15  and  N_16
REMARK    7  A    between atoms: N_16  and  C_17
REMARK    8  A    between atoms: C_17  and  C_18
REMARK                            x       y       z     vdW  Elec       q    Type
REMARK                         _______ _______ _______ _____ _____    ______ ____
ROOT
ATOM      1  C   UNL     1       2.619   4.352  19.428  0.00  0.00    +0.000 C 
ATOM      2  C   UNL     1       1.995   4.853  20.721  0.00  0.00    +0.000 C 
ATOM      3  C   UNL     1       1.678   6.144  20.916  0.00  0.00    +0.000 C 
ATOM      4  C   UNL     1       1.910   7.125  19.851  0.00  0.00    +0.000 A 
ATOM      5  C   UNL     1       1.306   8.384  19.891  0.00  0.00    +0.000 A 
ATOM      6  C   UNL     1       1.534   9.306  18.865  0.00  0.00    +0.000 A 
ATOM      7  C   UNL     1       2.352   8.971  17.788  0.00  0.00    +0.000 A 
ATOM      8  C   UNL     1       2.954   7.716  17.736  0.00  0.00    +0.000 A 
ATOM      9  C   UNL     1       2.759   6.796  18.777  0.00  0.00    +0.000 A 
ATOM     10  C   UNL     1       3.513   5.474  18.803  0.00  0.00    +0.000 C 
ENDROOT
BRANCH   1  12
ATOM     11  C   UNL     1       2.087   3.518  17.050  0.00  0.00    +0.000 C 
ATOM     12  C   UNL     1       1.524   3.826  18.444  0.00  0.00    +0.000 C 
ATOM     13  C   UNL     1       0.835   2.556  18.969  0.00  0.00    +0.000 C 
ENDBRANCH   1  12
BRANCH  10  14
ATOM     14  C   UNL     1       4.851   5.609  19.578  0.00  0.00    +0.000 C 
BRANCH  14  15
ATOM     15  C   UNL     1       5.848   4.511  19.201  0.00  0.00    +0.000 C 
BRANCH  15  16
ATOM     16  N   UNL     1       7.194   5.053  19.081  0.00  0.00    +0.000 NA
ATOM     17  H   UNL     1       7.775   4.749  19.861  0.00  0.00    +0.000 HD
BRANCH  16  18
ATOM     18  C   UNL     1       7.804   4.614  17.826  0.00  0.00    +0.000 C 
BRANCH  18  19
ATOM     19  C   UNL     1       6.886   4.889  16.664  0.00  0.00    +0.000 A 
ATOM     20  C   UNL     1       6.323   6.159  16.489  0.00  0.00    +0.000 A 
ATOM     21  C   UNL     1       5.447   6.404  15.429  0.00  0.00    +0.000 A 
ATOM     22  C   UNL     1       5.134   5.382  14.536  0.00  0.00    +0.000 A 
ATOM     23  C   UNL     1       5.702   4.119  14.690  0.00  0.00    +0.000 A 
ATOM     24  C   UNL     1       6.578   3.873  15.747  0.00  0.00    +0.000 A 
ENDBRANCH  18  19
ENDBRANCH  16  18
ENDBRANCH  15  16
ENDBRANCH  14  15
ENDBRANCH  10  14
TORSDOF 6
ENDMDL
MODEL 8
REMARK VINA RESULT:      -7.5      1.880      5.637
REMARK  Name = 
REMARK  8 active torsions:
REMARK  status: ('A' for Active; 'I' for Inactive)
REMARK    1  A    between atoms: C_1  and  C_2
REMARK    2  A    between atoms: C_2  and  C_3
REMARK    3  A    between atoms: C_2  and  C_4
REMARK    4  A    between atoms: C_13  and  C_14
REMARK    5  A    between atoms: C_14  and  C_15
REMARK    6  A    between atoms: C_15  and  N_16
REMARK    7  A    between atoms: N_16  and  C_17
REMARK    8  A    between atoms: C_17  and  C_18
REMARK                            x       y       z     vdW  Elec       q    Type
REMARK                         _______ _______ _______ _____ _____    ______ ____
ROOT
ATOM      1  C   UNL     1       2.750   3.694  19.487  0.00  0.00    +0.000 C 
ATOM      2  C   UNL     1       1.982   4.441  20.566  0.00  0.00    +0.000 C 
ATOM      3  C   UNL     1       1.812   5.774  20.540  0.00  0.00    +0.000 C 
ATOM      4  C   UNL     1       2.358   6.560  19.429  0.00  0.00    +0.000 A 
ATOM      5  C   UNL     1       1.932   7.871  19.201  0.00  0.00    +0.000 A 
ATOM      6  C   UNL     1       2.459   8.607  18.135  0.00  0.00    +0.000 A 
ATOM      7  C   UNL     1       3.400   8.033  17.283  0.00  0.00    +0.000 A 
ATOM      8  C   UNL     1       3.828   6.725  17.500  0.00  0.00    +0.000 A 
ATOM      9  C   UNL     1       3.331   5.990  18.587  0.00  0.00    +0.000 A 
ATOM     10  C   UNL     1       3.883   4.610  18.915  0.00  0.00    +0.000 C 
ENDROOT
BRANCH   1  12
ATOM     11  C   UNL     1       2.520   2.350  17.302  0.00  0.00    +0.000 C 
ATOM     12  C   UNL     1       1.784   3.157  18.381  0.00  0.00    +0.000 C 
ATOM     13  C   UNL     1       0.674   2.269  18.963  0.00  0.00    +0.000 C 
ENDBRANCH   1  12
BRANCH  10  14
ATOM     14  C   UNL     1       5.069   4.707  19.911  0.00  0.00    +0.000 C 
BRANCH  14  15
ATOM     15  C   UNL     1       6.341   5.236  19.244  0.00  0.00    +0.000 C 
BRANCH  15  16
ATOM     16  N   UNL     1       6.805   4.319  18.213  0.00  0.00    +0.000 NA
ATOM     17  H   UNL     1       6.028   3.780  17.834  0.00  0.00    +0.000 HD
BRANCH  16  18
ATOM     18  C   UNL     1       7.448   5.063  17.129  0.00  0.00    +0.000 C 
BRANCH  18  19
ATOM     19  C   UNL     1       6.858   4.678  15.797  0.00  0.00    +0.000 A 
ATOM     20  C   UNL     1       5.658   3.961  15.732  0.00  0.00    +0.000 A 
ATOM     21  C   UNL     1       5.128   3.578  14.497  0.00  0.00    +0.000 A 
ATOM     22  C   UNL     1       5.796   3.914  13.322  0.00  0.00    +0.000 A 
ATOM     23  C   UNL     1       6.983   4.642  13.373  0.00  0.00    +0.000 A 
ATOM     24  C   UNL     1       7.511   5.027  14.605  0.00  0.00    +0.000 A 
ENDBRANCH  18  19
ENDBRANCH  16  18
ENDBRANCH  15  16
ENDBRANCH  14  15
ENDBRANCH  10  14
TORSDOF 6
ENDMDL
MODEL 9
REMARK VINA RESULT:      -7.5      3.264      6.078
REMARK  Name = 
REMARK  8 active torsions:
REMARK  status: ('A' for Active; 'I' for Inactive)
REMARK    1  A    between atoms: C_1  and  C_2
REMARK    2  A    between atoms: C_2  and  C_3
REMARK    3  A    between atoms: C_2  and  C_4
REMARK    4  A    between atoms: C_13  and  C_14
REMARK    5  A    between atoms: C_14  and  C_15
REMARK    6  A    between atoms: C_15  and  N_16
REMARK    7  A    between atoms: N_16  and  C_17
REMARK    8  A    between atoms: C_17  and  C_18
REMARK                            x       y       z     vdW  Elec       q    Type
REMARK                         _______ _______ _______ _____ _____    ______ ____
ROOT
ATOM      1  C   UNL     1       4.729   5.857  17.653  0.00  0.00    +0.000 C 
ATOM      2  C   UNL     1       5.310   5.426  18.991  0.00  0.00    +0.000 C 
ATOM      3  C   UNL     1       4.695   4.540  19.793  0.00  0.00    +0.000 C 
ATOM      4  C   UNL     1       3.427   3.933  19.377  0.00  0.00    +0.000 A 
ATOM      5  C   UNL     1       2.934   2.792  20.015  0.00  0.00    +0.000 A 
ATOM      6  C   UNL     1       1.726   2.222  19.605  0.00  0.00    +0.000 A 
ATOM      7  C   UNL     1       1.011   2.779  18.546  0.00  0.00    +0.000 A 
ATOM      8  C   UNL     1       1.496   3.914  17.900  0.00  0.00    +0.000 A 
ATOM      9  C   UNL     1       2.690   4.512  18.327  0.00  0.00    +0.000 A 
ATOM     10  C   UNL     1       3.166   5.825  17.721  0.00  0.00    +0.000 C 
ENDROOT
BRANCH   1  12
ATOM     11  C   UNL     1       5.339   5.751  15.153  0.00  0.00    +0.000 C 
ATOM     12  C   UNL     1       5.306   4.991  16.486  0.00  0.00    +0.000 C 
ATOM     13  C   UNL     1       6.729   4.492  16.784  0.00  0.00    +0.000 C 
ENDBRANCH   1  12
BRANCH  10  14
ATOM     14  C   UNL     1       2.625   7.039  18.523  0.00  0.00    +0.000 C 
BRANCH  14  15
ATOM     15  C   UNL     1       2.855   8.363  17.790  0.00  0.00    +0.000 C 
BRANCH  15  16
ATOM     16  N   UNL     1       1.592   9.044  17.542  0.00  0.00    +0.000 NA
ATOM     17  H   UNL     1       0.903   8.396  17.163  0.00  0.00    +0.000 HD
BRANCH  16  18
ATOM     18  C   UNL     1       1.079   9.621  18.784  0.00  0.00    +0.000 C 
BRANCH  18  19
ATOM     19  C   UNL     1      -0.259  10.276  18.553  0.00  0.00    +0.000 A 
ATOM     20  C   UNL     1      -0.667  11.354  19.346  0.00  0.00    +0.000 A 
ATOM     21  C   UNL     1      -1.921  11.940  19.152  0.00  0.00    +0.000 A 
ATOM     22  C   UNL     1      -2.768  11.453  18.160  0.00  0.00    +0.000 A 
ATOM     23  C   UNL     1      -2.365  10.391  17.353  0.00  0.00    +0.000 A 
ATOM     24  C   UNL     1      -1.114   9.806  17.544  0.00  0.00    +0.000 A 
ENDBRANCH  18  19
ENDBRANCH  16  18
ENDBRANCH  15  16
ENDBRANCH  14  15
ENDBRANCH  10  14
TORSDOF 6
ENDMDL
