MODEL 1
REMARK VINA RESULT:      -7.4      0.000      0.000
REMARK  Name = 
REMARK  9 active torsions:
REMARK  status: ('A' for Active; 'I' for Inactive)
REMARK    1  A    between atoms: C_1  and  C_2
REMARK    2  A    between atoms: C_2  and  O_3
REMARK    3  A    between atoms: O_3  and  C_4
REMARK    4  A    between atoms: C_7  and  C_8
REMARK    5  A    between atoms: C_15  and  C_16
REMARK    6  A    between atoms: C_26  and  C_27
REMARK    7  A    between atoms: C_28  and  C_29
REMARK    8  A    between atoms: C_32  and  O_33
REMARK    9  A    between atoms: O_33  and  C_34
REMARK                            x       y       z     vdW  Elec       q    Type
REMARK                         _______ _______ _______ _____ _____    ______ ____
ROOT
ATOM      1  C   UNL     1      -0.312  13.778  20.615  0.00  0.00    +0.000 C 
ATOM      2  C   UNL     1      -1.499  14.807  21.706  0.00  0.00    +0.000 A 
ATOM      3  C   UNL     1      -2.089  13.785  22.802  0.00  0.00    +0.000 A 
ATOM      4  O   UNL     1      -3.515  13.701  22.794  0.00  0.00    +0.000 OA
ATOM      5  C   UNL     1      -3.704  13.133  21.556  0.00  0.00    +0.000 A 
ATOM      6  C   UNL     1      -4.895  12.767  20.967  0.00  0.00    +0.000 A 
ATOM      7  C   UNL     1      -4.851  12.214  19.668  0.00  0.00    +0.000 A 
ATOM      8  C   UNL     1      -3.638  12.023  18.991  0.00  0.00    +0.000 A 
ATOM      9  C   UNL     1      -3.526  11.448  17.609  0.00  0.00    +0.000 C 
ATOM     10  C   UNL     1      -2.448  12.343  19.646  0.00  0.00    +0.000 A 
ATOM     11  C   UNL     1      -2.450  12.947  20.922  0.00  0.00    +0.000 A 
ATOM     12  C   UNL     1      -1.027  13.701  22.119  0.00  0.00    +0.000 A 
ATOM     13  O   UNL     1       0.027  13.721  22.785  0.00  0.00    +0.000 OA
ATOM     14  C   UNL     1      -1.373  11.929  22.702  0.00  0.00    +0.000 C 
ATOM     15  O   UNL     1      -1.766  10.980  23.352  0.00  0.00    +0.000 OA
ATOM     16  N   UNL     1      -0.344  12.043  21.320  0.00  0.00    +0.000 N 
ATOM     17  C   UNL     1       0.146  10.919  20.697  0.00  0.00    +0.000 A 
ATOM     18  N   UNL     1       0.549  10.862  19.448  0.00  0.00    +0.000 NA
ATOM     19  C   UNL     1       1.083   9.605  19.192  0.00  0.00    +0.000 A 
ATOM     20  C   UNL     1       1.590   9.297  17.830  0.00  0.00    +0.000 C 
ATOM     21  C   UNL     1       1.166   8.789  20.308  0.00  0.00    +0.000 A 
ATOM     22  C   UNL     1       1.903   7.522  20.528  0.00  0.00    +0.000 C 
ATOM     23  S   UNL     1       0.289   9.488  21.597  0.00  0.00    +0.000 S 
ENDROOT
BRANCH   1  27
ATOM     24  C   UNL     1       3.576  15.210  19.460  0.00  0.00    +0.000 A 
ATOM     25  C   UNL     1       3.446  14.165  20.395  0.00  0.00    +0.000 A 
ATOM     26  C   UNL     1       2.207  13.715  20.813  0.00  0.00    +0.000 A 
ATOM     27  C   UNL     1       1.064  14.344  20.351  0.00  0.00    +0.000 A 
ATOM     28  C   UNL     1       1.178  15.438  19.485  0.00  0.00    +0.000 A 
ATOM     29  C   UNL     1       2.423  15.878  19.022  0.00  0.00    +0.000 A 
BRANCH  29  30
ATOM     30  O   UNL     1       2.267  16.894  18.125  0.00  0.00    +0.000 OA
ATOM     31  C   UNL     1       1.004  17.510  17.967  0.00  0.00    +0.000 C 
ENDBRANCH  29  30
BRANCH  24  32
ATOM     32  O   UNL     1       4.806  15.548  18.952  0.00  0.00    +0.000 OA
BRANCH  32  34
ATOM     33  C   UNL     1       6.667  14.518  17.829  0.00  0.00    +0.000 C 
ATOM     34  C   UNL     1       5.184  14.796  17.789  0.00  0.00    +0.000 C 
ENDBRANCH  32  34
ENDBRANCH  24  32
ENDBRANCH   1  27
TORSDOF 4
ENDMDL
MODEL 2
REMARK VINA RESULT:      -7.2      1.138      1.318
REMARK  Name = 
REMARK  9 active torsions:
REMARK  status: ('A' for Active; 'I' for Inactive)
REMARK    1  A    between atoms: C_1  and  C_2
REMARK    2  A    between atoms: C_2  and  O_3
REMARK    3  A    between atoms: O_3  and  C_4
REMARK    4  A    between atoms: C_7  and  C_8
REMARK    5  A    between atoms: C_15  and  C_16
REMARK    6  A    between atoms: C_26  and  C_27
REMARK    7  A    between atoms: C_28  and  C_29
REMARK    8  A    between atoms: C_32  and  O_33
REMARK    9  A    between atoms: O_33  and  C_34
REMARK                            x       y       z     vdW  Elec       q    Type
REMARK                         _______ _______ _______ _____ _____    ______ ____
ROOT
ATOM      1  C   UNL     1      -1.563  14.154  20.425  0.00  0.00    +0.000 C 
ATOM      2  C   UNL     1      -2.886  15.147  21.383  0.00  0.00    +0.000 A 
ATOM      3  C   UNL     1      -3.375  14.190  22.582  0.00  0.00    +0.000 A 
ATOM      4  O   UNL     1      -4.780  13.934  22.572  0.00  0.00    +0.000 OA
ATOM      5  C   UNL     1      -4.873  13.214  21.405  0.00  0.00    +0.000 A 
ATOM      6  C   UNL     1      -5.999  12.644  20.852  0.00  0.00    +0.000 A 
ATOM      7  C   UNL     1      -5.862  11.959  19.623  0.00  0.00    +0.000 A 
ATOM      8  C   UNL     1      -4.620  11.841  18.982  0.00  0.00    +0.000 A 
ATOM      9  C   UNL     1      -4.411  11.134  17.675  0.00  0.00    +0.000 C 
ATOM     10  C   UNL     1      -3.492  12.373  19.606  0.00  0.00    +0.000 A 
ATOM     11  C   UNL     1      -3.593  13.110  20.806  0.00  0.00    +0.000 A 
ATOM     12  C   UNL     1      -2.296  14.159  21.922  0.00  0.00    +0.000 A 
ATOM     13  O   UNL     1      -1.266  14.380  22.590  0.00  0.00    +0.000 OA
ATOM     14  C   UNL     1      -2.441  12.434  22.698  0.00  0.00    +0.000 C 
ATOM     15  O   UNL     1      -2.732  11.523  23.448  0.00  0.00    +0.000 OA
ATOM     16  N   UNL     1      -1.403  12.517  21.321  0.00  0.00    +0.000 N 
ATOM     17  C   UNL     1      -0.770  11.398  20.833  0.00  0.00    +0.000 A 
ATOM     18  N   UNL     1      -0.336  11.251  19.602  0.00  0.00    +0.000 NA
ATOM     19  C   UNL     1       0.349  10.047  19.494  0.00  0.00    +0.000 A 
ATOM     20  C   UNL     1       0.918   9.653  18.179  0.00  0.00    +0.000 C 
ATOM     21  C   UNL     1       0.504   9.377  20.695  0.00  0.00    +0.000 A 
ATOM     22  C   UNL     1       1.382   8.240  21.063  0.00  0.00    +0.000 C 
ATOM     23  S   UNL     1      -0.477  10.104  21.890  0.00  0.00    +0.000 S 
ENDROOT
BRANCH   1  27
ATOM     24  C   UNL     1       2.135  15.932  19.133  0.00  0.00    +0.000 A 
ATOM     25  C   UNL     1       2.130  14.923  20.115  0.00  0.00    +0.000 A 
ATOM     26  C   UNL     1       0.952  14.366  20.576  0.00  0.00    +0.000 A 
ATOM     27  C   UNL     1      -0.259  14.849  20.110  0.00  0.00    +0.000 A 
ATOM     28  C   UNL     1      -0.273  15.908  19.194  0.00  0.00    +0.000 A 
ATOM     29  C   UNL     1       0.911  16.455  18.689  0.00  0.00    +0.000 A 
BRANCH  29  30
ATOM     30  O   UNL     1       0.635  17.408  17.751  0.00  0.00    +0.000 OA
ATOM     31  C   UNL     1      -0.688  17.876  17.588  0.00  0.00    +0.000 C 
ENDBRANCH  29  30
BRANCH  24  32
ATOM     32  O   UNL     1       3.314  16.374  18.587  0.00  0.00    +0.000 OA
BRANCH  32  34
ATOM     33  C   UNL     1       5.079  14.907  17.869  0.00  0.00    +0.000 C 
ATOM     34  C   UNL     1       3.783  15.579  17.488  0.00  0.00    +0.000 C 
ENDBRANCH  32  34
ENDBRANCH  24  32
ENDBRANCH   1  27
TORSDOF 4
ENDMDL
MODEL 3
REMARK VINA RESULT:      -6.8      1.357      1.935
REMARK  Name = 
REMARK  9 active torsions:
REMARK  status: ('A' for Active; 'I' for Inactive)
REMARK    1  A    between atoms: C_1  and  C_2
REMARK    2  A    between atoms: C_2  and  O_3
REMARK    3  A    between atoms: O_3  and  C_4
REMARK    4  A    between atoms: C_7  and  C_8
REMARK    5  A    between atoms: C_15  and  C_16
REMARK    6  A    between atoms: C_26  and  C_27
REMARK    7  A    between atoms: C_28  and  C_29
REMARK    8  A    between atoms: C_32  and  O_33
REMARK    9  A    between atoms: O_33  and  C_34
REMARK                            x       y       z     vdW  Elec       q    Type
REMARK                         _______ _______ _______ _____ _____    ______ ____
ROOT
ATOM      1  C   UNL     1       0.453  13.211  19.836  0.00  0.00    +0.000 C 
ATOM      2  C   UNL     1      -0.691  14.464  20.719  0.00  0.00    +0.000 A 
ATOM      3  C   UNL     1      -1.422  13.642  21.895  0.00  0.00    +0.000 A 
ATOM      4  O   UNL     1      -2.847  13.673  21.813  0.00  0.00    +0.000 OA
ATOM      5  C   UNL     1      -3.024  12.969  20.645  0.00  0.00    +0.000 A 
ATOM      6  C   UNL     1      -4.213  12.627  20.037  0.00  0.00    +0.000 A 
ATOM      7  C   UNL     1      -4.154  11.910  18.821  0.00  0.00    +0.000 A 
ATOM      8  C   UNL     1      -2.930  11.537  18.246  0.00  0.00    +0.000 A 
ATOM      9  C   UNL     1      -2.802  10.782  16.955  0.00  0.00    +0.000 C 
ATOM     10  C   UNL     1      -1.751  11.841  18.926  0.00  0.00    +0.000 A 
ATOM     11  C   UNL     1      -1.763  12.601  20.115  0.00  0.00    +0.000 A 
ATOM     12  C   UNL     1      -0.339  13.385  21.293  0.00  0.00    +0.000 A 
ATOM     13  O   UNL     1       0.679  13.406  22.014  0.00  0.00    +0.000 OA
ATOM     14  C   UNL     1      -0.867  11.737  22.069  0.00  0.00    +0.000 C 
ATOM     15  O   UNL     1      -1.373  10.914  22.806  0.00  0.00    +0.000 OA
ATOM     16  N   UNL     1       0.234  11.589  20.747  0.00  0.00    +0.000 N 
ATOM     17  C   UNL     1       0.653  10.359  20.299  0.00  0.00    +0.000 A 
ATOM     18  N   UNL     1       1.111  10.109  19.093  0.00  0.00    +0.000 NA
ATOM     19  C   UNL     1       1.545   8.791  19.026  0.00  0.00    +0.000 A 
ATOM     20  C   UNL     1       2.088   8.270  17.745  0.00  0.00    +0.000 C 
ATOM     21  C   UNL     1       1.501   8.121  20.238  0.00  0.00    +0.000 A 
ATOM     22  C   UNL     1       2.113   6.837  20.656  0.00  0.00    +0.000 C 
ATOM     23  S   UNL     1       0.626   9.048  21.375  0.00  0.00    +0.000 S 
ENDROOT
BRANCH   1  27
ATOM     24  C   UNL     1       4.399  14.807  19.220  0.00  0.00    +0.000 A 
ATOM     25  C   UNL     1       3.628  14.362  18.129  0.00  0.00    +0.000 A 
ATOM     26  C   UNL     1       2.374  13.807  18.306  0.00  0.00    +0.000 A 
ATOM     27  C   UNL     1       1.884  13.625  19.587  0.00  0.00    +0.000 A 
ATOM     28  C   UNL     1       2.673  13.987  20.686  0.00  0.00    +0.000 A 
ATOM     29  C   UNL     1       3.926  14.586  20.522  0.00  0.00    +0.000 A 
BRANCH  29  30
ATOM     30  O   UNL     1       4.456  14.924  21.734  0.00  0.00    +0.000 OA
ATOM     31  C   UNL     1       5.395  14.071  22.356  0.00  0.00    +0.000 C 
ENDBRANCH  29  30
BRANCH  24  32
ATOM     32  O   UNL     1       5.578  15.481  19.018  0.00  0.00    +0.000 OA
BRANCH  32  34
ATOM     33  C   UNL     1       7.772  15.452  18.034  0.00  0.00    +0.000 C 
ATOM     34  C   UNL     1       6.336  15.008  17.896  0.00  0.00    +0.000 C 
ENDBRANCH  32  34
ENDBRANCH  24  32
ENDBRANCH   1  27
TORSDOF 4
ENDMDL
MODEL 4
REMARK VINA RESULT:      -6.8      1.066      1.134
REMARK  Name = 
REMARK  9 active torsions:
REMARK  status: ('A' for Active; 'I' for Inactive)
REMARK    1  A    between atoms: C_1  and  C_2
REMARK    2  A    between atoms: C_2  and  O_3
REMARK    3  A    between atoms: O_3  and  C_4
REMARK    4  A    between atoms: C_7  and  C_8
REMARK    5  A    between atoms: C_15  and  C_16
REMARK    6  A    between atoms: C_26  and  C_27
REMARK    7  A    between atoms: C_28  and  C_29
REMARK    8  A    between atoms: C_32  and  O_33
REMARK    9  A    between atoms: O_33  and  C_34
REMARK                            x       y       z     vdW  Elec       q    Type
REMARK                         _______ _______ _______ _____ _____    ______ ____
ROOT
ATOM      1  C   UNL     1       0.098  13.481  19.875  0.00  0.00    +0.000 C 
ATOM      2  C   UNL     1      -1.055  14.676  20.825  0.00  0.00    +0.000 A 
ATOM      3  C   UNL     1      -1.688  13.815  22.029  0.00  0.00    +0.000 A 
ATOM      4  O   UNL     1      -3.115  13.783  22.018  0.00  0.00    +0.000 OA
ATOM      5  C   UNL     1      -3.319  13.078  20.856  0.00  0.00    +0.000 A 
ATOM      6  C   UNL     1      -4.521  12.687  20.304  0.00  0.00    +0.000 A 
ATOM      7  C   UNL     1      -4.492  11.981  19.081  0.00  0.00    +0.000 A 
ATOM      8  C   UNL     1      -3.283  11.666  18.443  0.00  0.00    +0.000 A 
ATOM      9  C   UNL     1      -3.186  10.926  17.140  0.00  0.00    +0.000 C 
ATOM     10  C   UNL     1      -2.085  12.019  19.065  0.00  0.00    +0.000 A 
ATOM     11  C   UNL     1      -2.071  12.771  20.260  0.00  0.00    +0.000 A 
ATOM     12  C   UNL     1      -0.626  13.611  21.371  0.00  0.00    +0.000 A 
ATOM     13  O   UNL     1       0.425  13.673  22.040  0.00  0.00    +0.000 OA
ATOM     14  C   UNL     1      -1.040  11.936  22.158  0.00  0.00    +0.000 C 
ATOM     15  O   UNL     1      -1.471  11.087  22.914  0.00  0.00    +0.000 OA
ATOM     16  N   UNL     1      -0.001  11.846  20.782  0.00  0.00    +0.000 N 
ATOM     17  C   UNL     1       0.449  10.639  20.303  0.00  0.00    +0.000 A 
ATOM     18  N   UNL     1       0.856  10.417  19.074  0.00  0.00    +0.000 NA
ATOM     19  C   UNL     1       1.344   9.120  18.974  0.00  0.00    +0.000 A 
ATOM     20  C   UNL     1       1.845   8.632  17.663  0.00  0.00    +0.000 C 
ATOM     21  C   UNL     1       1.392   8.442  20.181  0.00  0.00    +0.000 A 
ATOM     22  C   UNL     1       2.080   7.184  20.558  0.00  0.00    +0.000 C 
ATOM     23  S   UNL     1       0.535   9.321  21.369  0.00  0.00    +0.000 S 
ENDROOT
BRANCH   1  27
ATOM     24  C   UNL     1       3.885  15.174  18.737  0.00  0.00    +0.000 A 
ATOM     25  C   UNL     1       3.454  13.950  18.189  0.00  0.00    +0.000 A 
ATOM     26  C   UNL     1       2.260  13.366  18.570  0.00  0.00    +0.000 A 
ATOM     27  C   UNL     1       1.495  13.962  19.558  0.00  0.00    +0.000 A 
ATOM     28  C   UNL     1       1.950  15.136  20.171  0.00  0.00    +0.000 A 
ATOM     29  C   UNL     1       3.135  15.759  19.768  0.00  0.00    +0.000 A 
BRANCH  29  30
ATOM     30  O   UNL     1       3.316  16.927  20.450  0.00  0.00    +0.000 OA
ATOM     31  C   UNL     1       2.302  17.911  20.447  0.00  0.00    +0.000 C 
ENDBRANCH  29  30
BRANCH  24  32
ATOM     32  O   UNL     1       4.999  15.808  18.247  0.00  0.00    +0.000 OA
BRANCH  32  34
ATOM     33  C   UNL     1       7.048  14.651  17.745  0.00  0.00    +0.000 C 
ATOM     34  C   UNL     1       6.233  15.341  18.812  0.00  0.00    +0.000 C 
ENDBRANCH  32  34
ENDBRANCH  24  32
ENDBRANCH   1  27
TORSDOF 4
ENDMDL
MODEL 5
REMARK VINA RESULT:      -6.8      2.562      7.562
REMARK  Name = 
REMARK  9 active torsions:
REMARK  status: ('A' for Active; 'I' for Inactive)
REMARK    1  A    between atoms: C_1  and  C_2
REMARK    2  A    between atoms: C_2  and  O_3
REMARK    3  A    between atoms: O_3  and  C_4
REMARK    4  A    between atoms: C_7  and  C_8
REMARK    5  A    between atoms: C_15  and  C_16
REMARK    6  A    between atoms: C_26  and  C_27
REMARK    7  A    between atoms: C_28  and  C_29
REMARK    8  A    between atoms: C_32  and  O_33
REMARK    9  A    between atoms: O_33  and  C_34
REMARK                            x       y       z     vdW  Elec       q    Type
REMARK                         _______ _______ _______ _____ _____    ______ ____
ROOT
ATOM      1  C   UNL     1      -1.744  12.101  18.777  0.00  0.00    +0.000 C 
ATOM      2  C   UNL     1      -0.505  10.920  17.924  0.00  0.00    +0.000 A 
ATOM      3  C   UNL     1       0.604  10.566  19.035  0.00  0.00    +0.000 A 
ATOM      4  O   UNL     1       1.935  10.897  18.640  0.00  0.00    +0.000 OA
ATOM      5  C   UNL     1       1.825  12.267  18.589  0.00  0.00    +0.000 A 
ATOM      6  C   UNL     1       2.810  13.183  18.289  0.00  0.00    +0.000 A 
ATOM      7  C   UNL     1       2.461  14.553  18.279  0.00  0.00    +0.000 A 
ATOM      8  C   UNL     1       1.160  14.982  18.578  0.00  0.00    +0.000 A 
ATOM      9  C   UNL     1       0.727  16.419  18.577  0.00  0.00    +0.000 C 
ATOM     10  C   UNL     1       0.208  14.030  18.944  0.00  0.00    +0.000 A 
ATOM     11  C   UNL     1       0.500  12.649  18.915  0.00  0.00    +0.000 A 
ATOM     12  C   UNL     1      -0.581  10.981  19.191  0.00  0.00    +0.000 A 
ATOM     13  O   UNL     1      -1.343  10.185  19.775  0.00  0.00    +0.000 OA
ATOM     14  C   UNL     1       0.289  11.367  20.832  0.00  0.00    +0.000 C 
ATOM     15  O   UNL     1       1.057  11.323  21.773  0.00  0.00    +0.000 OA
ATOM     16  N   UNL     1      -1.132  12.301  20.536  0.00  0.00    +0.000 N 
ATOM     17  C   UNL     1      -1.556  13.260  21.424  0.00  0.00    +0.000 A 
ATOM     18  N   UNL     1      -2.322  14.284  21.123  0.00  0.00    +0.000 NA
ATOM     19  C   UNL     1      -2.641  14.980  22.283  0.00  0.00    +0.000 A 
ATOM     20  C   UNL     1      -3.488  16.198  22.188  0.00  0.00    +0.000 C 
ATOM     21  C   UNL     1      -2.190  14.377  23.445  0.00  0.00    +0.000 A 
ATOM     22  C   UNL     1      -2.540  14.625  24.864  0.00  0.00    +0.000 C 
ATOM     23  S   UNL     1      -1.105  13.117  23.054  0.00  0.00    +0.000 S 
ENDROOT
BRANCH   1  27
ATOM     24  C   UNL     1      -5.903  11.003  18.762  0.00  0.00    +0.000 A 
ATOM     25  C   UNL     1      -4.999  10.394  17.872  0.00  0.00    +0.000 A 
ATOM     26  C   UNL     1      -3.666  10.760  17.829  0.00  0.00    +0.000 A 
ATOM     27  C   UNL     1      -3.216  11.791  18.636  0.00  0.00    +0.000 A 
ATOM     28  C   UNL     1      -4.121  12.462  19.467  0.00  0.00    +0.000 A 
ATOM     29  C   UNL     1      -5.463  12.078  19.550  0.00  0.00    +0.000 A 
BRANCH  29  30
ATOM     30  O   UNL     1      -6.116  12.821  20.490  0.00  0.00    +0.000 OA
ATOM     31  C   UNL     1      -5.675  12.809  21.832  0.00  0.00    +0.000 C 
ENDBRANCH  29  30
BRANCH  24  32
ATOM     32  O   UNL     1      -7.187  10.533  18.890  0.00  0.00    +0.000 OA
BRANCH  32  34
ATOM     33  C   UNL     1      -7.171   8.432  20.060  0.00  0.00    +0.000 C 
ATOM     34  C   UNL     1      -7.458   9.911  20.154  0.00  0.00    +0.000 C 
ENDBRANCH  32  34
ENDBRANCH  24  32
ENDBRANCH   1  27
TORSDOF 4
ENDMDL
MODEL 6
REMARK VINA RESULT:      -6.7      1.690      2.091
REMARK  Name = 
REMARK  9 active torsions:
REMARK  status: ('A' for Active; 'I' for Inactive)
REMARK    1  A    between atoms: C_1  and  C_2
REMARK    2  A    between atoms: C_2  and  O_3
REMARK    3  A    between atoms: O_3  and  C_4
REMARK    4  A    between atoms: C_7  and  C_8
REMARK    5  A    between atoms: C_15  and  C_16
REMARK    6  A    between atoms: C_26  and  C_27
REMARK    7  A    between atoms: C_28  and  C_29
REMARK    8  A    between atoms: C_32  and  O_33
REMARK    9  A    between atoms: O_33  and  C_34
REMARK                            x       y       z     vdW  Elec       q    Type
REMARK                         _______ _______ _______ _____ _____    ______ ____
ROOT
ATOM      1  C   UNL     1      -1.633  14.232  20.390  0.00  0.00    +0.000 C 
ATOM      2  C   UNL     1      -2.924  15.232  21.386  0.00  0.00    +0.000 A 
ATOM      3  C   UNL     1      -3.343  14.298  22.628  0.00  0.00    +0.000 A 
ATOM      4  O   UNL     1      -4.743  14.025  22.691  0.00  0.00    +0.000 OA
ATOM      5  C   UNL     1      -4.882  13.276  21.546  0.00  0.00    +0.000 A 
ATOM      6  C   UNL     1      -6.025  12.679  21.060  0.00  0.00    +0.000 A 
ATOM      7  C   UNL     1      -5.936  11.966  19.843  0.00  0.00    +0.000 A 
ATOM      8  C   UNL     1      -4.724  11.849  19.147  0.00  0.00    +0.000 A 
ATOM      9  C   UNL     1      -4.567  11.113  17.848  0.00  0.00    +0.000 C 
ATOM     10  C   UNL     1      -3.574  12.409  19.705  0.00  0.00    +0.000 A 
ATOM     11  C   UNL     1      -3.630  13.174  20.890  0.00  0.00    +0.000 A 
ATOM     12  C   UNL     1      -2.296  14.264  21.919  0.00  0.00    +0.000 A 
ATOM     13  O   UNL     1      -1.239  14.514  22.533  0.00  0.00    +0.000 OA
ATOM     14  C   UNL     1      -2.381  12.557  22.742  0.00  0.00    +0.000 C 
ATOM     15  O   UNL     1      -2.626  11.661  23.526  0.00  0.00    +0.000 OA
ATOM     16  N   UNL     1      -1.410  12.620  21.315  0.00  0.00    +0.000 N 
ATOM     17  C   UNL     1      -0.786  11.497  20.825  0.00  0.00    +0.000 A 
ATOM     18  N   UNL     1      -0.408  11.326  19.579  0.00  0.00    +0.000 NA
ATOM     19  C   UNL     1       0.288  10.128  19.467  0.00  0.00    +0.000 A 
ATOM     20  C   UNL     1       0.800   9.709  18.136  0.00  0.00    +0.000 C 
ATOM     21  C   UNL     1       0.507   9.489  20.675  0.00  0.00    +0.000 A 
ATOM     22  C   UNL     1       1.416   8.372  21.028  0.00  0.00    +0.000 C 
ATOM     23  S   UNL     1      -0.427  10.232  21.897  0.00  0.00    +0.000 S 
ENDROOT
BRANCH   1  27
ATOM     24  C   UNL     1       1.763  16.469  18.987  0.00  0.00    +0.000 A 
ATOM     25  C   UNL     1       1.613  15.109  18.653  0.00  0.00    +0.000 A 
ATOM     26  C   UNL     1       0.553  14.359  19.126  0.00  0.00    +0.000 A 
ATOM     27  C   UNL     1      -0.354  14.936  19.998  0.00  0.00    +0.000 A 
ATOM     28  C   UNL     1      -0.174  16.263  20.404  0.00  0.00    +0.000 A 
ATOM     29  C   UNL     1       0.871  17.046  19.904  0.00  0.00    +0.000 A 
BRANCH  29  30
ATOM     30  O   UNL     1       0.782  18.323  20.379  0.00  0.00    +0.000 OA
ATOM     31  C   UNL     1      -0.072  18.613  21.466  0.00  0.00    +0.000 C 
ENDBRANCH  29  30
BRANCH  24  32
ATOM     32  O   UNL     1       2.740  17.233  18.398  0.00  0.00    +0.000 OA
BRANCH  32  34
ATOM     33  C   UNL     1       1.438  18.143  16.593  0.00  0.00    +0.000 C 
ATOM     34  C   UNL     1       2.639  17.310  16.969  0.00  0.00    +0.000 C 
ENDBRANCH  32  34
ENDBRANCH  24  32
ENDBRANCH   1  27
TORSDOF 4
ENDMDL
MODEL 7
REMARK VINA RESULT:      -6.7      2.951      6.087
REMARK  Name = 
REMARK  9 active torsions:
REMARK  status: ('A' for Active; 'I' for Inactive)
REMARK    1  A    between atoms: C_1  and  C_2
REMARK    2  A    between atoms: C_2  and  O_3
REMARK    3  A    between atoms: O_3  and  C_4
REMARK    4  A    between atoms: C_7  and  C_8
REMARK    5  A    between atoms: C_15  and  C_16
REMARK    6  A    between atoms: C_26  and  C_27
REMARK    7  A    between atoms: C_28  and  C_29
REMARK    8  A    between atoms: C_32  and  O_33
REMARK    9  A    between atoms: O_33  and  C_34
REMARK                            x       y       z     vdW  Elec       q    Type
REMARK                         _______ _______ _______ _____ _____    ______ ____
ROOT
ATOM      1  C   UNL     1      -1.585  12.653  22.715  0.00  0.00    +0.000 C 
ATOM      2  C   UNL     1      -3.487  12.557  22.893  0.00  0.00    +0.000 A 
ATOM      3  C   UNL     1      -4.072  13.814  22.074  0.00  0.00    +0.000 A 
ATOM      4  O   UNL     1      -4.881  14.684  22.865  0.00  0.00    +0.000 OA
ATOM      5  C   UNL     1      -3.925  15.163  23.730  0.00  0.00    +0.000 A 
ATOM      6  C   UNL     1      -4.085  16.089  24.738  0.00  0.00    +0.000 A 
ATOM      7  C   UNL     1      -2.956  16.421  25.521  0.00  0.00    +0.000 A 
ATOM      8  C   UNL     1      -1.701  15.844  25.281  0.00  0.00    +0.000 A 
ATOM      9  C   UNL     1      -0.468  16.148  26.081  0.00  0.00    +0.000 C 
ATOM     10  C   UNL     1      -1.563  14.962  24.209  0.00  0.00    +0.000 A 
ATOM     11  C   UNL     1      -2.675  14.564  23.436  0.00  0.00    +0.000 A 
ATOM     12  C   UNL     1      -2.953  13.234  21.959  0.00  0.00    +0.000 A 
ATOM     13  O   UNL     1      -2.763  12.675  20.860  0.00  0.00    +0.000 OA
ATOM     14  C   UNL     1      -2.706  14.931  21.150  0.00  0.00    +0.000 C 
ATOM     15  O   UNL     1      -2.917  15.984  20.579  0.00  0.00    +0.000 OA
ATOM     16  N   UNL     1      -1.247  14.153  21.646  0.00  0.00    +0.000 N 
ATOM     17  C   UNL     1      -0.022  14.756  21.481  0.00  0.00    +0.000 A 
ATOM     18  N   UNL     1       1.056  14.480  22.178  0.00  0.00    +0.000 NA
ATOM     19  C   UNL     1       2.133  15.195  21.667  0.00  0.00    +0.000 A 
ATOM     20  C   UNL     1       3.465  15.060  22.312  0.00  0.00    +0.000 C 
ATOM     21  C   UNL     1       1.842  15.906  20.515  0.00  0.00    +0.000 A 
ATOM     22  C   UNL     1       2.736  16.551  19.524  0.00  0.00    +0.000 C 
ATOM     23  S   UNL     1       0.152  15.922  20.261  0.00  0.00    +0.000 S 
ENDROOT
BRANCH   1  27
ATOM     24  C   UNL     1       0.105   8.924  21.396  0.00  0.00    +0.000 A 
ATOM     25  C   UNL     1      -0.105   9.170  22.766  0.00  0.00    +0.000 A 
ATOM     26  C   UNL     1      -0.608  10.377  23.217  0.00  0.00    +0.000 A 
ATOM     27  C   UNL     1      -0.856  11.393  22.311  0.00  0.00    +0.000 A 
ATOM     28  C   UNL     1      -0.575  11.193  20.954  0.00  0.00    +0.000 A 
ATOM     29  C   UNL     1      -0.104   9.965  20.478  0.00  0.00    +0.000 A 
BRANCH  29  30
ATOM     30  O   UNL     1       0.008   9.991  19.118  0.00  0.00    +0.000 OA
ATOM     31  C   UNL     1      -1.119  10.303  18.323  0.00  0.00    +0.000 C 
ENDBRANCH  29  30
BRANCH  24  32
ATOM     32  O   UNL     1       0.471   7.677  20.955  0.00  0.00    +0.000 OA
BRANCH  32  34
ATOM     33  C   UNL     1       2.145   6.166  20.119  0.00  0.00    +0.000 C 
ATOM     34  C   UNL     1       1.838   7.586  20.530  0.00  0.00    +0.000 C 
ENDBRANCH  32  34
ENDBRANCH  24  32
ENDBRANCH   1  27
TORSDOF 4
ENDMDL
MODEL 8
REMARK VINA RESULT:      -6.6      2.040      2.659
REMARK  Name = 
REMARK  9 active torsions:
REMARK  status: ('A' for Active; 'I' for Inactive)
REMARK    1  A    between atoms: C_1  and  C_2
REMARK    2  A    between atoms: C_2  and  O_3
REMARK    3  A    between atoms: O_3  and  C_4
REMARK    4  A    between atoms: C_7  and  C_8
REMARK    5  A    between atoms: C_15  and  C_16
REMARK    6  A    between atoms: C_26  and  C_27
REMARK    7  A    between atoms: C_28  and  C_29
REMARK    8  A    between atoms: C_32  and  O_33
REMARK    9  A    between atoms: O_33  and  C_34
REMARK                            x       y       z     vdW  Elec       q    Type
REMARK                         _______ _______ _______ _____ _____    ______ ____
ROOT
ATOM      1  C   UNL     1      -2.646  14.693  21.247  0.00  0.00    +0.000 C 
ATOM      2  C   UNL     1      -4.211  15.470  22.026  0.00  0.00    +0.000 A 
ATOM      3  C   UNL     1      -4.692  14.442  23.169  0.00  0.00    +0.000 A 
ATOM      4  O   UNL     1      -6.031  13.979  22.992  0.00  0.00    +0.000 OA
ATOM      5  C   UNL     1      -5.873  13.260  21.830  0.00  0.00    +0.000 A 
ATOM      6  C   UNL     1      -6.825  12.531  21.152  0.00  0.00    +0.000 A 
ATOM      7  C   UNL     1      -6.438  11.882  19.958  0.00  0.00    +0.000 A 
ATOM      8  C   UNL     1      -5.124  11.956  19.473  0.00  0.00    +0.000 A 
ATOM      9  C   UNL     1      -4.655  11.297  18.209  0.00  0.00    +0.000 C 
ATOM     10  C   UNL     1      -4.172  12.648  20.223  0.00  0.00    +0.000 A 
ATOM     11  C   UNL     1      -4.529  13.354  21.392  0.00  0.00    +0.000 A 
ATOM     12  C   UNL     1      -3.548  14.578  22.644  0.00  0.00    +0.000 A 
ATOM     13  O   UNL     1      -2.652  14.947  23.430  0.00  0.00    +0.000 OA
ATOM     14  C   UNL     1      -3.526  12.847  23.418  0.00  0.00    +0.000 C 
ATOM     15  O   UNL     1      -3.767  11.897  24.138  0.00  0.00    +0.000 OA
ATOM     16  N   UNL     1      -2.353  13.093  22.176  0.00  0.00    +0.000 N 
ATOM     17  C   UNL     1      -1.505  12.085  21.782  0.00  0.00    +0.000 A 
ATOM     18  N   UNL     1      -0.908  12.013  20.614  0.00  0.00    +0.000 NA
ATOM     19  C   UNL     1      -0.042  10.926  20.604  0.00  0.00    +0.000 A 
ATOM     20  C   UNL     1       0.735  10.630  19.373  0.00  0.00    +0.000 C 
ATOM     21  C   UNL     1       0.065  10.279  21.824  0.00  0.00    +0.000 A 
ATOM     22  C   UNL     1       1.052   9.285  22.309  0.00  0.00    +0.000 C 
ATOM     23  S   UNL     1      -1.152  10.842  22.882  0.00  0.00    +0.000 S 
ENDROOT
BRANCH   1  27
ATOM     24  C   UNL     1       0.870  17.017  20.390  0.00  0.00    +0.000 A 
ATOM     25  C   UNL     1       0.901  16.007  21.372  0.00  0.00    +0.000 A 
ATOM     26  C   UNL     1      -0.227  15.275  21.693  0.00  0.00    +0.000 A 
ATOM     27  C   UNL     1      -1.433  15.578  21.085  0.00  0.00    +0.000 A 
ATOM     28  C   UNL     1      -1.497  16.634  20.167  0.00  0.00    +0.000 A 
ATOM     29  C   UNL     1      -0.357  17.356  19.802  0.00  0.00    +0.000 A 
BRANCH  29  30
ATOM     30  O   UNL     1      -0.659  18.268  18.832  0.00  0.00    +0.000 OA
ATOM     31  C   UNL     1      -0.586  17.900  17.469  0.00  0.00    +0.000 C 
ENDBRANCH  29  30
BRANCH  24  32
ATOM     32  O   UNL     1       2.027  17.635  19.985  0.00  0.00    +0.000 OA
BRANCH  32  34
ATOM     33  C   UNL     1       2.822  16.499  18.020  0.00  0.00    +0.000 C 
ATOM     34  C   UNL     1       3.031  16.735  19.496  0.00  0.00    +0.000 C 
ENDBRANCH  32  34
ENDBRANCH  24  32
ENDBRANCH   1  27
TORSDOF 4
ENDMDL
MODEL 9
REMARK VINA RESULT:      -6.6      1.286      1.946
REMARK  Name = 
REMARK  9 active torsions:
REMARK  status: ('A' for Active; 'I' for Inactive)
REMARK    1  A    between atoms: C_1  and  C_2
REMARK    2  A    between atoms: C_2  and  O_3
REMARK    3  A    between atoms: O_3  and  C_4
REMARK    4  A    between atoms: C_7  and  C_8
REMARK    5  A    between atoms: C_15  and  C_16
REMARK    6  A    between atoms: C_26  and  C_27
REMARK    7  A    between atoms: C_28  and  C_29
REMARK    8  A    between atoms: C_32  and  O_33
REMARK    9  A    between atoms: O_33  and  C_34
REMARK                            x       y       z     vdW  Elec       q    Type
REMARK                         _______ _______ _______ _____ _____    ______ ____
ROOT
ATOM      1  C   UNL     1      -1.456  14.179  20.273  0.00  0.00    +0.000 C 
ATOM      2  C   UNL     1      -2.727  15.219  21.255  0.00  0.00    +0.000 A 
ATOM      3  C   UNL     1      -3.176  14.305  22.502  0.00  0.00    +0.000 A 
ATOM      4  O   UNL     1      -4.582  14.067  22.559  0.00  0.00    +0.000 OA
ATOM      5  C   UNL     1      -4.733  13.313  21.420  0.00  0.00    +0.000 A 
ATOM      6  C   UNL     1      -5.888  12.740  20.932  0.00  0.00    +0.000 A 
ATOM      7  C   UNL     1      -5.811  12.015  19.722  0.00  0.00    +0.000 A 
ATOM      8  C   UNL     1      -4.598  11.863  19.033  0.00  0.00    +0.000 A 
ATOM      9  C   UNL     1      -4.453  11.113  17.741  0.00  0.00    +0.000 C 
ATOM     10  C   UNL     1      -3.438  12.399  19.592  0.00  0.00    +0.000 A 
ATOM     11  C   UNL     1      -3.481  13.174  20.772  0.00  0.00    +0.000 A 
ATOM     12  C   UNL     1      -2.126  14.240  21.799  0.00  0.00    +0.000 A 
ATOM     13  O   UNL     1      -1.066  14.469  22.416  0.00  0.00    +0.000 OA
ATOM     14  C   UNL     1      -2.257  12.542  22.634  0.00  0.00    +0.000 C 
ATOM     15  O   UNL     1      -2.528  11.659  23.424  0.00  0.00    +0.000 OA
ATOM     16  N   UNL     1      -1.278  12.569  21.213  0.00  0.00    +0.000 N 
ATOM     17  C   UNL     1      -0.679  11.428  20.735  0.00  0.00    +0.000 A 
ATOM     18  N   UNL     1      -0.299  11.238  19.492  0.00  0.00    +0.000 NA
ATOM     19  C   UNL     1       0.368  10.022  19.393  0.00  0.00    +0.000 A 
ATOM     20  C   UNL     1       0.876   9.580  18.068  0.00  0.00    +0.000 C 
ATOM     21  C   UNL     1       0.566   9.387  20.607  0.00  0.00    +0.000 A 
ATOM     22  C   UNL     1       1.445   8.252  20.974  0.00  0.00    +0.000 C 
ATOM     23  S   UNL     1      -0.357  10.163  21.818  0.00  0.00    +0.000 S 
ENDROOT
BRANCH   1  27
ATOM     24  C   UNL     1       2.155  16.379  19.482  0.00  0.00    +0.000 A 
ATOM     25  C   UNL     1       1.075  16.426  18.579  0.00  0.00    +0.000 A 
ATOM     26  C   UNL     1      -0.080  15.695  18.791  0.00  0.00    +0.000 A 
ATOM     27  C   UNL     1      -0.159  14.848  19.883  0.00  0.00    +0.000 A 
ATOM     28  C   UNL     1       0.938  14.727  20.745  0.00  0.00    +0.000 A 
ATOM     29  C   UNL     1       2.097  15.489  20.566  0.00  0.00    +0.000 A 
BRANCH  29  30
ATOM     30  O   UNL     1       2.981  15.260  21.580  0.00  0.00    +0.000 OA
ATOM     31  C   UNL     1       4.049  14.354  21.394  0.00  0.00    +0.000 C 
ENDBRANCH  29  30
BRANCH  24  32
ATOM     32  O   UNL     1       3.233  17.215  19.331  0.00  0.00    +0.000 OA
BRANCH  32  34
ATOM     33  C   UNL     1       5.616  16.994  19.089  0.00  0.00    +0.000 C 
ATOM     34  C   UNL     1       4.266  16.689  18.486  0.00  0.00    +0.000 C 
ENDBRANCH  32  34
ENDBRANCH  24  32
ENDBRANCH   1  27
TORSDOF 4
ENDMDL
