MODEL 1
REMARK VINA RESULT:      -5.8      0.000      0.000
REMARK  Name = 
REMARK  9 active torsions:
REMARK  status: ('A' for Active; 'I' for Inactive)
REMARK    1  A    between atoms: C_1  and  C_2
REMARK    2  A    between atoms: C_2  and  N_3
REMARK    3  A    between atoms: N_3  and  C_4
REMARK    4  A    between atoms: C_4  and  C_5
REMARK    5  A    between atoms: C_6  and  C_8
REMARK    6  A    between atoms: C_16  and  O_17
REMARK    7  A    between atoms: O_17  and  C_18
REMARK    8  A    between atoms: N_23  and  C_24
REMARK    9  A    between atoms: C_24  and  C_25
REMARK                            x       y       z     vdW  Elec       q    Type
REMARK                         _______ _______ _______ _____ _____    ______ ____
ROOT
ATOM      1  C   UNL     1      -5.145  13.367  20.074  0.00  0.00    +0.000 C 
ATOM      2  C   UNL     1      -6.210  13.759  19.021  0.00  0.00    +0.000 C 
ATOM      3  C   UNL     1      -6.682  12.608  18.113  0.00  0.00    +0.000 C 
ATOM      4  C   UNL     1      -5.561  11.807  17.436  0.00  0.00    +0.000 C 
ATOM      5  C   UNL     1      -4.359  11.709  18.309  0.00  0.00    +0.000 A 
ATOM      6  C   UNL     1      -4.129  12.441  19.459  0.00  0.00    +0.000 A 
ATOM      7  C   UNL     1      -2.786  12.192  19.854  0.00  0.00    +0.000 A 
ATOM      8  C   UNL     1      -1.959  12.717  20.872  0.00  0.00    +0.000 A 
ATOM      9  C   UNL     1      -0.630  12.294  20.995  0.00  0.00    +0.000 A 
ATOM     10  C   UNL     1      -0.145  11.326  20.117  0.00  0.00    +0.000 A 
ATOM     11  F   UNL     1       1.116  10.875  20.206  0.00  0.00    +0.000 F 
ATOM     12  C   UNL     1      -0.947  10.769  19.110  0.00  0.00    +0.000 A 
ATOM     13  C   UNL     1      -2.267  11.231  18.985  0.00  0.00    +0.000 A 
ATOM     14  N   UNL     1      -3.273  10.892  18.097  0.00  0.00    +0.000 N 
ENDROOT
BRANCH   1  16
ATOM     15  N   UNL     1      -5.666  13.507  22.563  0.00  0.00    +0.000 N 
ATOM     16  C   UNL     1      -5.776  12.770  21.363  0.00  0.00    +0.000 C 
ATOM     17  O   UNL     1      -6.365  11.685  21.346  0.00  0.00    +0.000 OA
BRANCH  15  19
ATOM     18  C   UNL     1      -7.493  13.353  24.278  0.00  0.00    +0.000 C 
ATOM     19  C   UNL     1      -6.146  12.840  23.785  0.00  0.00    +0.000 C 
ENDBRANCH  15  19
BRANCH  15  20
ATOM     20  C   UNL     1      -4.795  14.683  22.686  0.00  0.00    +0.000 C 
ATOM     21  C   UNL     1      -4.049  14.846  24.002  0.00  0.00    +0.000 C 
ENDBRANCH  15  20
ENDBRANCH   1  16
BRANCH   9  22
ATOM     22  O   UNL     1       0.056  12.924  22.002  0.00  0.00    +0.000 OA
ATOM     23  C   UNL     1       0.581  14.215  21.721  0.00  0.00    +0.000 C 
ENDBRANCH   9  22
BRANCH  14  24
ATOM     24  C   UNL     1      -3.211   9.809  17.137  0.00  0.00    +0.000 C 
BRANCH  24  25
ATOM     25  C   UNL     1      -2.507  10.179  15.849  0.00  0.00    +0.000 C 
ATOM     26  F   UNL     1      -3.048  11.334  15.372  0.00  0.00    +0.000 F 
ENDBRANCH  24  25
ENDBRANCH  14  24
TORSDOF 6
ENDMDL
MODEL 2
REMARK VINA RESULT:      -5.6      2.701      4.684
REMARK  Name = 
REMARK  9 active torsions:
REMARK  status: ('A' for Active; 'I' for Inactive)
REMARK    1  A    between atoms: C_1  and  C_2
REMARK    2  A    between atoms: C_2  and  N_3
REMARK    3  A    between atoms: N_3  and  C_4
REMARK    4  A    between atoms: C_4  and  C_5
REMARK    5  A    between atoms: C_6  and  C_8
REMARK    6  A    between atoms: C_16  and  O_17
REMARK    7  A    between atoms: O_17  and  C_18
REMARK    8  A    between atoms: N_23  and  C_24
REMARK    9  A    between atoms: C_24  and  C_25
REMARK                            x       y       z     vdW  Elec       q    Type
REMARK                         _______ _______ _______ _____ _____    ______ ____
ROOT
ATOM      1  C   UNL     1      -3.326  11.640  17.941  0.00  0.00    +0.000 C 
ATOM      2  C   UNL     1      -2.614  11.150  16.658  0.00  0.00    +0.000 C 
ATOM      3  C   UNL     1      -1.716   9.912  16.844  0.00  0.00    +0.000 C 
ATOM      4  C   UNL     1      -0.700  10.008  17.991  0.00  0.00    +0.000 C 
ATOM      5  C   UNL     1      -1.241  10.795  19.133  0.00  0.00    +0.000 A 
ATOM      6  C   UNL     1      -2.380  11.578  19.112  0.00  0.00    +0.000 A 
ATOM      7  C   UNL     1      -2.408  12.312  20.329  0.00  0.00    +0.000 A 
ATOM      8  C   UNL     1      -3.253  13.326  20.834  0.00  0.00    +0.000 A 
ATOM      9  C   UNL     1      -3.002  13.900  22.085  0.00  0.00    +0.000 A 
ATOM     10  C   UNL     1      -1.925  13.436  22.840  0.00  0.00    +0.000 A 
ATOM     11  F   UNL     1      -1.654  13.942  24.053  0.00  0.00    +0.000 F 
ATOM     12  C   UNL     1      -1.082  12.415  22.376  0.00  0.00    +0.000 A 
ATOM     13  C   UNL     1      -1.333  11.875  21.104  0.00  0.00    +0.000 A 
ATOM     14  N   UNL     1      -0.679  10.890  20.385  0.00  0.00    +0.000 N 
ENDROOT
BRANCH   1  16
ATOM     15  N   UNL     1      -5.856  11.607  18.235  0.00  0.00    +0.000 N 
ATOM     16  C   UNL     1      -4.649  10.873  18.217  0.00  0.00    +0.000 C 
ATOM     17  O   UNL     1      -4.655   9.653  18.409  0.00  0.00    +0.000 OA
BRANCH  15  19
ATOM     18  C   UNL     1      -7.393  11.001  20.126  0.00  0.00    +0.000 C 
ATOM     19  C   UNL     1      -7.063  10.869  18.645  0.00  0.00    +0.000 C 
ENDBRANCH  15  19
BRANCH  15  20
ATOM     20  C   UNL     1      -5.882  13.075  18.234  0.00  0.00    +0.000 C 
ATOM     21  C   UNL     1      -6.640  13.743  17.096  0.00  0.00    +0.000 C 
ENDBRANCH  15  20
ENDBRANCH   1  16
BRANCH   9  22
ATOM     22  O   UNL     1      -3.882  14.898  22.418  0.00  0.00    +0.000 OA
ATOM     23  C   UNL     1      -5.059  14.519  23.120  0.00  0.00    +0.000 C 
ENDBRANCH   9  22
BRANCH  14  24
ATOM     24  C   UNL     1       0.389  10.054  20.892  0.00  0.00    +0.000 C 
BRANCH  24  25
ATOM     25  C   UNL     1      -0.090   8.733  21.457  0.00  0.00    +0.000 C 
ATOM     26  F   UNL     1      -0.811   8.978  22.586  0.00  0.00    +0.000 F 
ENDBRANCH  24  25
ENDBRANCH  14  24
TORSDOF 6
ENDMDL
MODEL 3
REMARK VINA RESULT:      -5.6      2.615      6.649
REMARK  Name = 
REMARK  9 active torsions:
REMARK  status: ('A' for Active; 'I' for Inactive)
REMARK    1  A    between atoms: C_1  and  C_2
REMARK    2  A    between atoms: C_2  and  N_3
REMARK    3  A    between atoms: N_3  and  C_4
REMARK    4  A    between atoms: C_4  and  C_5
REMARK    5  A    between atoms: C_6  and  C_8
REMARK    6  A    between atoms: C_16  and  O_17
REMARK    7  A    between atoms: O_17  and  C_18
REMARK    8  A    between atoms: N_23  and  C_24
REMARK    9  A    between atoms: C_24  and  C_25
REMARK                            x       y       z     vdW  Elec       q    Type
REMARK                         _______ _______ _______ _____ _____    ______ ____
ROOT
ATOM      1  C   UNL     1       0.221  12.343  20.196  0.00  0.00    +0.000 C 
ATOM      2  C   UNL     1       0.959  13.579  20.766  0.00  0.00    +0.000 C 
ATOM      3  C   UNL     1       0.283  14.236  21.983  0.00  0.00    +0.000 C 
ATOM      4  C   UNL     1      -1.207  14.563  21.806  0.00  0.00    +0.000 C 
ATOM      5  C   UNL     1      -1.887  13.555  20.949  0.00  0.00    +0.000 A 
ATOM      6  C   UNL     1      -1.263  12.593  20.176  0.00  0.00    +0.000 A 
ATOM      7  C   UNL     1      -2.265  11.993  19.364  0.00  0.00    +0.000 A 
ATOM      8  C   UNL     1      -2.228  11.037  18.324  0.00  0.00    +0.000 A 
ATOM      9  C   UNL     1      -3.405  10.659  17.667  0.00  0.00    +0.000 A 
ATOM     10  C   UNL     1      -4.616  11.216  18.075  0.00  0.00    +0.000 A 
ATOM     11  F   UNL     1      -5.774  10.872  17.489  0.00  0.00    +0.000 F 
ATOM     12  C   UNL     1      -4.688  12.150  19.119  0.00  0.00    +0.000 A 
ATOM     13  C   UNL     1      -3.491  12.539  19.742  0.00  0.00    +0.000 A 
ATOM     14  N   UNL     1      -3.246  13.435  20.768  0.00  0.00    +0.000 N 
ENDROOT
BRANCH   1  16
ATOM     15  N   UNL     1       1.056   9.937  20.198  0.00  0.00    +0.000 N 
ATOM     16  C   UNL     1       0.584  11.034  20.952  0.00  0.00    +0.000 C 
ATOM     17  O   UNL     1       0.472  10.949  22.179  0.00  0.00    +0.000 OA
BRANCH  15  19
ATOM     18  C   UNL     1      -0.054   8.021  21.383  0.00  0.00    +0.000 C 
ATOM     19  C   UNL     1       1.246   8.674  20.933  0.00  0.00    +0.000 C 
ENDBRANCH  15  19
BRANCH  15  20
ATOM     20  C   UNL     1       1.000   9.908  18.731  0.00  0.00    +0.000 C 
ATOM     21  C   UNL     1       1.848   8.855  18.035  0.00  0.00    +0.000 C 
ENDBRANCH  15  20
ENDBRANCH   1  16
BRANCH   9  22
ATOM     22  O   UNL     1      -3.203   9.756  16.655  0.00  0.00    +0.000 OA
ATOM     23  C   UNL     1      -2.997  10.280  15.349  0.00  0.00    +0.000 C 
ENDBRANCH   9  22
BRANCH  14  24
ATOM     24  C   UNL     1      -4.260  14.095  21.564  0.00  0.00    +0.000 C 
BRANCH  24  25
ATOM     25  C   UNL     1      -4.892  13.199  22.608  0.00  0.00    +0.000 C 
ATOM     26  F   UNL     1      -3.946  12.336  23.072  0.00  0.00    +0.000 F 
ENDBRANCH  24  25
ENDBRANCH  14  24
TORSDOF 6
ENDMDL
MODEL 4
REMARK VINA RESULT:      -5.6      2.661      6.530
REMARK  Name = 
REMARK  9 active torsions:
REMARK  status: ('A' for Active; 'I' for Inactive)
REMARK    1  A    between atoms: C_1  and  C_2
REMARK    2  A    between atoms: C_2  and  N_3
REMARK    3  A    between atoms: N_3  and  C_4
REMARK    4  A    between atoms: C_4  and  C_5
REMARK    5  A    between atoms: C_6  and  C_8
REMARK    6  A    between atoms: C_16  and  O_17
REMARK    7  A    between atoms: O_17  and  C_18
REMARK    8  A    between atoms: N_23  and  C_24
REMARK    9  A    between atoms: C_24  and  C_25
REMARK                            x       y       z     vdW  Elec       q    Type
REMARK                         _______ _______ _______ _____ _____    ______ ____
ROOT
ATOM      1  C   UNL     1      -1.521  12.928  21.715  0.00  0.00    +0.000 C 
ATOM      2  C   UNL     1      -0.962  13.977  22.706  0.00  0.00    +0.000 C 
ATOM      3  C   UNL     1      -1.808  14.188  23.976  0.00  0.00    +0.000 C 
ATOM      4  C   UNL     1      -3.300  14.455  23.731  0.00  0.00    +0.000 C 
ATOM      5  C   UNL     1      -3.797  13.713  22.540  0.00  0.00    +0.000 A 
ATOM      6  C   UNL     1      -3.015  13.075  21.596  0.00  0.00    +0.000 A 
ATOM      7  C   UNL     1      -3.874  12.686  20.532  0.00  0.00    +0.000 A 
ATOM      8  C   UNL     1      -3.649  12.096  19.268  0.00  0.00    +0.000 A 
ATOM      9  C   UNL     1      -4.719  11.860  18.396  0.00  0.00    +0.000 A 
ATOM     10  C   UNL     1      -6.011  12.186  18.806  0.00  0.00    +0.000 A 
ATOM     11  F   UNL     1      -7.070  11.962  18.013  0.00  0.00    +0.000 F 
ATOM     12  C   UNL     1      -6.269  12.752  20.064  0.00  0.00    +0.000 A 
ATOM     13  C   UNL     1      -5.178  13.010  20.909  0.00  0.00    +0.000 A 
ATOM     14  N   UNL     1      -5.115  13.565  22.175  0.00  0.00    +0.000 N 
ENDROOT
BRANCH   1  16
ATOM     15  N   UNL     1      -0.284  10.766  21.183  0.00  0.00    +0.000 N 
ATOM     16  C   UNL     1      -1.103  11.478  22.087  0.00  0.00    +0.000 C 
ATOM     17  O   UNL     1      -1.468  10.957  23.146  0.00  0.00    +0.000 OA
BRANCH  15  19
ATOM     18  C   UNL     1       1.300   9.100  22.194  0.00  0.00    +0.000 C 
ATOM     19  C   UNL     1      -0.035   9.350  21.504  0.00  0.00    +0.000 C 
ENDBRANCH  15  19
BRANCH  15  20
ATOM     20  C   UNL     1      -0.007  11.250  19.825  0.00  0.00    +0.000 C 
ATOM     21  C   UNL     1      -0.101  10.227  18.702  0.00  0.00    +0.000 C 
ENDBRANCH  15  20
ENDBRANCH   1  16
BRANCH   9  22
ATOM     22  O   UNL     1      -4.338  11.323  17.193  0.00  0.00    +0.000 OA
ATOM     23  C   UNL     1      -3.466  10.200  17.230  0.00  0.00    +0.000 C 
ENDBRANCH   9  22
BRANCH  14  24
ATOM     24  C   UNL     1      -6.258  13.885  23.006  0.00  0.00    +0.000 C 
BRANCH  24  25
ATOM     25  C   UNL     1      -6.777  12.707  23.804  0.00  0.00    +0.000 C 
ATOM     26  F   UNL     1      -5.814  12.319  24.685  0.00  0.00    +0.000 F 
ENDBRANCH  24  25
ENDBRANCH  14  24
TORSDOF 6
ENDMDL
MODEL 5
REMARK VINA RESULT:      -5.5      2.501      5.239
REMARK  Name = 
REMARK  9 active torsions:
REMARK  status: ('A' for Active; 'I' for Inactive)
REMARK    1  A    between atoms: C_1  and  C_2
REMARK    2  A    between atoms: C_2  and  N_3
REMARK    3  A    between atoms: N_3  and  C_4
REMARK    4  A    between atoms: C_4  and  C_5
REMARK    5  A    between atoms: C_6  and  C_8
REMARK    6  A    between atoms: C_16  and  O_17
REMARK    7  A    between atoms: O_17  and  C_18
REMARK    8  A    between atoms: N_23  and  C_24
REMARK    9  A    between atoms: C_24  and  C_25
REMARK                            x       y       z     vdW  Elec       q    Type
REMARK                         _______ _______ _______ _____ _____    ______ ____
ROOT
ATOM      1  C   UNL     1      -1.134  12.166  20.055  0.00  0.00    +0.000 C 
ATOM      2  C   UNL     1       0.072  11.201  20.150  0.00  0.00    +0.000 C 
ATOM      3  C   UNL     1       0.528  10.596  18.809  0.00  0.00    +0.000 C 
ATOM      4  C   UNL     1      -0.584   9.948  17.972  0.00  0.00    +0.000 C 
ATOM      5  C   UNL     1      -1.878  10.664  18.139  0.00  0.00    +0.000 A 
ATOM      6  C   UNL     1      -2.161  11.615  19.102  0.00  0.00    +0.000 A 
ATOM      7  C   UNL     1      -3.558  11.876  19.036  0.00  0.00    +0.000 A 
ATOM      8  C   UNL     1      -4.436  12.664  19.813  0.00  0.00    +0.000 A 
ATOM      9  C   UNL     1      -5.805  12.695  19.522  0.00  0.00    +0.000 A 
ATOM     10  C   UNL     1      -6.283  11.964  18.435  0.00  0.00    +0.000 A 
ATOM     11  F   UNL     1      -7.584  11.976  18.105  0.00  0.00    +0.000 F 
ATOM     12  C   UNL     1      -5.432  11.190  17.631  0.00  0.00    +0.000 A 
ATOM     13  C   UNL     1      -4.068  11.147  17.961  0.00  0.00    +0.000 A 
ATOM     14  N   UNL     1      -3.008  10.475  17.378  0.00  0.00    +0.000 N 
ENDROOT
BRANCH   1  16
ATOM     15  N   UNL     1      -0.832  14.619  20.669  0.00  0.00    +0.000 N 
ATOM     16  C   UNL     1      -0.709  13.614  19.685  0.00  0.00    +0.000 C 
ATOM     17  O   UNL     1      -0.269  13.887  18.564  0.00  0.00    +0.000 OA
BRANCH  15  19
ATOM     18  C   UNL     1      -1.814  16.817  19.955  0.00  0.00    +0.000 C 
ATOM     19  C   UNL     1      -0.559  15.999  20.232  0.00  0.00    +0.000 C 
ENDBRANCH  15  19
BRANCH  15  20
ATOM     20  C   UNL     1      -1.549  14.398  21.932  0.00  0.00    +0.000 C 
ATOM     21  C   UNL     1      -0.813  14.771  23.210  0.00  0.00    +0.000 C 
ENDBRANCH  15  20
ENDBRANCH   1  16
BRANCH   9  22
ATOM     22  O   UNL     1      -6.534  13.469  20.389  0.00  0.00    +0.000 OA
ATOM     23  C   UNL     1      -7.328  12.791  21.354  0.00  0.00    +0.000 C 
ENDBRANCH   9  22
BRANCH  14  24
ATOM     24  C   UNL     1      -3.069   9.739  16.132  0.00  0.00    +0.000 C 
BRANCH  24  25
ATOM     25  C   UNL     1      -3.088  10.623  14.904  0.00  0.00    +0.000 C 
ATOM     26  F   UNL     1      -2.582   9.921  13.853  0.00  0.00    +0.000 F 
ENDBRANCH  24  25
ENDBRANCH  14  24
TORSDOF 6
ENDMDL
MODEL 6
REMARK VINA RESULT:      -5.5      2.284      3.744
REMARK  Name = 
REMARK  9 active torsions:
REMARK  status: ('A' for Active; 'I' for Inactive)
REMARK    1  A    between atoms: C_1  and  C_2
REMARK    2  A    between atoms: C_2  and  N_3
REMARK    3  A    between atoms: N_3  and  C_4
REMARK    4  A    between atoms: C_4  and  C_5
REMARK    5  A    between atoms: C_6  and  C_8
REMARK    6  A    between atoms: C_16  and  O_17
REMARK    7  A    between atoms: O_17  and  C_18
REMARK    8  A    between atoms: N_23  and  C_24
REMARK    9  A    between atoms: C_24  and  C_25
REMARK                            x       y       z     vdW  Elec       q    Type
REMARK                         _______ _______ _______ _____ _____    ______ ____
ROOT
ATOM      1  C   UNL     1      -4.174  11.791  17.819  0.00  0.00    +0.000 C 
ATOM      2  C   UNL     1      -3.973  11.258  16.380  0.00  0.00    +0.000 C 
ATOM      3  C   UNL     1      -3.193   9.933  16.280  0.00  0.00    +0.000 C 
ATOM      4  C   UNL     1      -1.855   9.904  17.030  0.00  0.00    +0.000 C 
ATOM      5  C   UNL     1      -1.911  10.718  18.275  0.00  0.00    +0.000 A 
ATOM      6  C   UNL     1      -2.909  11.610  18.617  0.00  0.00    +0.000 A 
ATOM      7  C   UNL     1      -2.464  12.318  19.767  0.00  0.00    +0.000 A 
ATOM      8  C   UNL     1      -2.992  13.401  20.506  0.00  0.00    +0.000 A 
ATOM      9  C   UNL     1      -2.290  13.922  21.599  0.00  0.00    +0.000 A 
ATOM     10  C   UNL     1      -1.078  13.337  21.967  0.00  0.00    +0.000 A 
ATOM     11  F   UNL     1      -0.377  13.788  23.018  0.00  0.00    +0.000 F 
ATOM     12  C   UNL     1      -0.540  12.246  21.267  0.00  0.00    +0.000 A 
ATOM     13  C   UNL     1      -1.245  11.761  20.154  0.00  0.00    +0.000 A 
ATOM     14  N   UNL     1      -0.964  10.731  19.274  0.00  0.00    +0.000 N 
ENDROOT
BRANCH   1  16
ATOM     15  N   UNL     1      -6.426  12.011  18.989  0.00  0.00    +0.000 N 
ATOM     16  C   UNL     1      -5.405  11.154  18.522  0.00  0.00    +0.000 C 
ATOM     17  O   UNL     1      -5.499   9.931  18.667  0.00  0.00    +0.000 OA
BRANCH  15  19
ATOM     18  C   UNL     1      -7.581  11.878  21.214  0.00  0.00    +0.000 C 
ATOM     19  C   UNL     1      -7.499  11.380  19.776  0.00  0.00    +0.000 C 
ENDBRANCH  15  19
BRANCH  15  20
ATOM     20  C   UNL     1      -6.264  13.470  19.041  0.00  0.00    +0.000 C 
ATOM     21  C   UNL     1      -6.900  14.269  17.913  0.00  0.00    +0.000 C 
ENDBRANCH  15  20
ENDBRANCH   1  16
BRANCH   9  22
ATOM     22  O   UNL     1      -2.907  14.995  22.188  0.00  0.00    +0.000 OA
ATOM     23  C   UNL     1      -4.278  15.207  21.876  0.00  0.00    +0.000 C 
ENDBRANCH   9  22
BRANCH  14  24
ATOM     24  C   UNL     1       0.120   9.781  19.415  0.00  0.00    +0.000 C 
BRANCH  24  25
ATOM     25  C   UNL     1       1.348  10.136  18.604  0.00  0.00    +0.000 C 
ATOM     26  F   UNL     1       1.417   9.303  17.530  0.00  0.00    +0.000 F 
ENDBRANCH  24  25
ENDBRANCH  14  24
TORSDOF 6
ENDMDL
MODEL 7
REMARK VINA RESULT:      -5.5      2.477      5.501
REMARK  Name = 
REMARK  9 active torsions:
REMARK  status: ('A' for Active; 'I' for Inactive)
REMARK    1  A    between atoms: C_1  and  C_2
REMARK    2  A    between atoms: C_2  and  N_3
REMARK    3  A    between atoms: N_3  and  C_4
REMARK    4  A    between atoms: C_4  and  C_5
REMARK    5  A    between atoms: C_6  and  C_8
REMARK    6  A    between atoms: C_16  and  O_17
REMARK    7  A    between atoms: O_17  and  C_18
REMARK    8  A    between atoms: N_23  and  C_24
REMARK    9  A    between atoms: C_24  and  C_25
REMARK                            x       y       z     vdW  Elec       q    Type
REMARK                         _______ _______ _______ _____ _____    ______ ____
ROOT
ATOM      1  C   UNL     1      -0.467  12.020  20.015  0.00  0.00    +0.000 C 
ATOM      2  C   UNL     1       0.690  10.993  19.984  0.00  0.00    +0.000 C 
ATOM      3  C   UNL     1       0.979  10.380  18.601  0.00  0.00    +0.000 C 
ATOM      4  C   UNL     1      -0.243   9.799  17.875  0.00  0.00    +0.000 C 
ATOM      5  C   UNL     1      -1.475  10.580  18.174  0.00  0.00    +0.000 A 
ATOM      6  C   UNL     1      -1.611  11.534  19.165  0.00  0.00    +0.000 A 
ATOM      7  C   UNL     1      -2.991  11.868  19.240  0.00  0.00    +0.000 A 
ATOM      8  C   UNL     1      -3.746  12.691  20.105  0.00  0.00    +0.000 A 
ATOM      9  C   UNL     1      -5.134  12.797  19.951  0.00  0.00    +0.000 A 
ATOM     10  C   UNL     1      -5.754  12.103  18.913  0.00  0.00    +0.000 A 
ATOM     11  F   UNL     1      -7.079  12.186  18.713  0.00  0.00    +0.000 F 
ATOM     12  C   UNL     1      -5.029  11.296  18.024  0.00  0.00    +0.000 A 
ATOM     13  C   UNL     1      -3.643  11.178  18.217  0.00  0.00    +0.000 A 
ATOM     14  N   UNL     1      -2.683  10.458  17.527  0.00  0.00    +0.000 N 
ENDROOT
BRANCH   1  16
ATOM     15  N   UNL     1       0.371  14.343  20.639  0.00  0.00    +0.000 N 
ATOM     16  C   UNL     1      -0.005  13.449  19.613  0.00  0.00    +0.000 C 
ATOM     17  O   UNL     1       0.041  13.798  18.429  0.00  0.00    +0.000 OA
BRANCH  15  19
ATOM     18  C   UNL     1       2.144  16.067  20.207  0.00  0.00    +0.000 C 
ATOM     19  C   UNL     1       0.659  15.727  20.226  0.00  0.00    +0.000 C 
ENDBRANCH  15  19
BRANCH  15  20
ATOM     20  C   UNL     1       0.127  14.057  22.059  0.00  0.00    +0.000 C 
ATOM     21  C   UNL     1      -1.158  14.612  22.656  0.00  0.00    +0.000 C 
ENDBRANCH  15  20
ENDBRANCH   1  16
BRANCH   9  22
ATOM     22  O   UNL     1      -5.731  13.597  20.890  0.00  0.00    +0.000 OA
ATOM     23  C   UNL     1      -6.331  12.953  22.006  0.00  0.00    +0.000 C 
ENDBRANCH   9  22
BRANCH  14  24
ATOM     24  C   UNL     1      -2.904   9.740  16.290  0.00  0.00    +0.000 C 
BRANCH  24  25
ATOM     25  C   UNL     1      -2.999  10.638  15.074  0.00  0.00    +0.000 C 
ATOM     26  F   UNL     1      -2.564   9.945  13.985  0.00  0.00    +0.000 F 
ENDBRANCH  24  25
ENDBRANCH  14  24
TORSDOF 6
ENDMDL
MODEL 8
REMARK VINA RESULT:      -5.5      2.894      5.520
REMARK  Name = 
REMARK  9 active torsions:
REMARK  status: ('A' for Active; 'I' for Inactive)
REMARK    1  A    between atoms: C_1  and  C_2
REMARK    2  A    between atoms: C_2  and  N_3
REMARK    3  A    between atoms: N_3  and  C_4
REMARK    4  A    between atoms: C_4  and  C_5
REMARK    5  A    between atoms: C_6  and  C_8
REMARK    6  A    between atoms: C_16  and  O_17
REMARK    7  A    between atoms: O_17  and  C_18
REMARK    8  A    between atoms: N_23  and  C_24
REMARK    9  A    between atoms: C_24  and  C_25
REMARK                            x       y       z     vdW  Elec       q    Type
REMARK                         _______ _______ _______ _____ _____    ______ ____
ROOT
ATOM      1  C   UNL     1      -2.140  11.171  18.745  0.00  0.00    +0.000 C 
ATOM      2  C   UNL     1      -1.992  10.129  17.611  0.00  0.00    +0.000 C 
ATOM      3  C   UNL     1      -2.657  10.519  16.278  0.00  0.00    +0.000 C 
ATOM      4  C   UNL     1      -4.124  10.958  16.383  0.00  0.00    +0.000 C 
ATOM      5  C   UNL     1      -4.386  11.678  17.660  0.00  0.00    +0.000 A 
ATOM      6  C   UNL     1      -3.537  11.734  18.749  0.00  0.00    +0.000 A 
ATOM      7  C   UNL     1      -4.261  12.334  19.816  0.00  0.00    +0.000 A 
ATOM      8  C   UNL     1      -3.968  12.570  21.177  0.00  0.00    +0.000 A 
ATOM      9  C   UNL     1      -4.920  13.162  22.016  0.00  0.00    +0.000 A 
ATOM     10  C   UNL     1      -6.148  13.545  21.479  0.00  0.00    +0.000 A 
ATOM     11  F   UNL     1      -7.087  14.134  22.237  0.00  0.00    +0.000 F 
ATOM     12  C   UNL     1      -6.461  13.346  20.126  0.00  0.00    +0.000 A 
ATOM     13  C   UNL     1      -5.504  12.720  19.311  0.00  0.00    +0.000 A 
ATOM     14  N   UNL     1      -5.528  12.380  17.970  0.00  0.00    +0.000 N 
ENDROOT
BRANCH   1  16
ATOM     15  N   UNL     1      -0.170  12.427  19.759  0.00  0.00    +0.000 N 
ATOM     16  C   UNL     1      -1.060  12.287  18.672  0.00  0.00    +0.000 C 
ATOM     17  O   UNL     1      -0.972  13.031  17.690  0.00  0.00    +0.000 OA
BRANCH  15  19
ATOM     18  C   UNL     1       2.193  13.218  19.452  0.00  0.00    +0.000 C 
ATOM     19  C   UNL     1       0.738  13.586  19.715  0.00  0.00    +0.000 C 
ENDBRANCH  15  19
BRANCH  15  20
ATOM     20  C   UNL     1      -0.368  11.724  21.033  0.00  0.00    +0.000 C 
ATOM     21  C   UNL     1       0.386  10.415  21.216  0.00  0.00    +0.000 C 
ENDBRANCH  15  20
ENDBRANCH   1  16
BRANCH   9  22
ATOM     22  O   UNL     1      -4.506  13.286  23.317  0.00  0.00    +0.000 OA
ATOM     23  C   UNL     1      -3.435  12.451  23.739  0.00  0.00    +0.000 C 
ENDBRANCH   9  22
BRANCH  14  24
ATOM     24  C   UNL     1      -6.564  12.756  17.030  0.00  0.00    +0.000 C 
BRANCH  24  25
ATOM     25  C   UNL     1      -6.624  14.244  16.755  0.00  0.00    +0.000 C 
ATOM     26  F   UNL     1      -7.650  14.486  15.892  0.00  0.00    +0.000 F 
ENDBRANCH  24  25
ENDBRANCH  14  24
TORSDOF 6
ENDMDL
MODEL 9
REMARK VINA RESULT:      -5.4      2.750      5.696
REMARK  Name = 
REMARK  9 active torsions:
REMARK  status: ('A' for Active; 'I' for Inactive)
REMARK    1  A    between atoms: C_1  and  C_2
REMARK    2  A    between atoms: C_2  and  N_3
REMARK    3  A    between atoms: N_3  and  C_4
REMARK    4  A    between atoms: C_4  and  C_5
REMARK    5  A    between atoms: C_6  and  C_8
REMARK    6  A    between atoms: C_16  and  O_17
REMARK    7  A    between atoms: O_17  and  C_18
REMARK    8  A    between atoms: N_23  and  C_24
REMARK    9  A    between atoms: C_24  and  C_25
REMARK                            x       y       z     vdW  Elec       q    Type
REMARK                         _______ _______ _______ _____ _____    ______ ____
ROOT
ATOM      1  C   UNL     1      -1.792  11.081  18.824  0.00  0.00    +0.000 C 
ATOM      2  C   UNL     1      -1.948  10.091  17.645  0.00  0.00    +0.000 C 
ATOM      3  C   UNL     1      -2.786  10.612  16.463  0.00  0.00    +0.000 C 
ATOM      4  C   UNL     1      -4.160  11.185  16.839  0.00  0.00    +0.000 C 
ATOM      5  C   UNL     1      -4.125  11.858  18.166  0.00  0.00    +0.000 A 
ATOM      6  C   UNL     1      -3.101  11.775  19.091  0.00  0.00    +0.000 A 
ATOM      7  C   UNL     1      -3.566  12.385  20.289  0.00  0.00    +0.000 A 
ATOM      8  C   UNL     1      -3.023  12.519  21.585  0.00  0.00    +0.000 A 
ATOM      9  C   UNL     1      -3.751  13.156  22.597  0.00  0.00    +0.000 A 
ATOM     10  C   UNL     1      -5.007  13.683  22.298  0.00  0.00    +0.000 A 
ATOM     11  F   UNL     1      -5.736  14.318  23.228  0.00  0.00    +0.000 F 
ATOM     12  C   UNL     1      -5.564  13.586  21.014  0.00  0.00    +0.000 A 
ATOM     13  C   UNL     1      -4.830  12.915  20.023  0.00  0.00    +0.000 A 
ATOM     14  N   UNL     1      -5.118  12.650  18.695  0.00  0.00    +0.000 N 
ENDROOT
BRANCH   1  16
ATOM     15  N   UNL     1       0.609  11.830  19.227  0.00  0.00    +0.000 N 
ATOM     16  C   UNL     1      -0.630  12.090  18.602  0.00  0.00    +0.000 C 
ATOM     17  O   UNL     1      -0.776  13.092  17.894  0.00  0.00    +0.000 OA
BRANCH  15  19
ATOM     18  C   UNL     1       2.692  12.599  18.054  0.00  0.00    +0.000 C 
ATOM     19  C   UNL     1       1.633  12.883  19.111  0.00  0.00    +0.000 C 
ENDBRANCH  15  19
BRANCH  15  20
ATOM     20  C   UNL     1       0.771  10.785  20.246  0.00  0.00    +0.000 C 
ATOM     21  C   UNL     1       1.116   9.390  19.746  0.00  0.00    +0.000 C 
ENDBRANCH  15  20
ENDBRANCH   1  16
BRANCH   9  22
ATOM     22  O   UNL     1      -3.111  13.170  23.810  0.00  0.00    +0.000 OA
ATOM     23  C   UNL     1      -2.546  14.405  24.231  0.00  0.00    +0.000 C 
ENDBRANCH   9  22
BRANCH  14  24
ATOM     24  C   UNL     1      -6.254  13.172  17.965  0.00  0.00    +0.000 C 
BRANCH  24  25
ATOM     25  C   UNL     1      -7.541  12.417  18.222  0.00  0.00    +0.000 C 
ATOM     26  F   UNL     1      -7.268  11.083  18.237  0.00  0.00    +0.000 F 
ENDBRANCH  24  25
ENDBRANCH  14  24
TORSDOF 6
ENDMDL
