MODEL 1
REMARK VINA RESULT:      -9.6      0.000      0.000
REMARK  Name = 
REMARK  6 active torsions:
REMARK  status: ('A' for Active; 'I' for Inactive)
REMARK    1  A    between atoms: C_1  and  O_2
REMARK    2  A    between atoms: O_2  and  C_3
REMARK    3  A    between atoms: C_7  and  C_8
REMARK    4  A    between atoms: C_8  and  N_9
REMARK    5  A    between atoms: C_13  and  C_14
REMARK    6  A    between atoms: C_19  and  C_20
REMARK                            x       y       z     vdW  Elec       q    Type
REMARK                         _______ _______ _______ _____ _____    ______ ____
ROOT
ATOM      1  N   UNL     1       8.698   8.889  17.824  0.00  0.00    +0.000 N 
ATOM      2  C   UNL     1       7.817   7.801  17.855  0.00  0.00    +0.000 A 
ATOM      3  N   UNL     1       6.672   7.869  17.174  0.00  0.00    +0.000 NA
ATOM      4  C   UNL     1       5.780   6.878  17.379  0.00  0.00    +0.000 A 
ATOM      5  C   UNL     1       5.938   5.829  18.266  0.00  0.00    +0.000 A 
ATOM      6  C   UNL     1       7.203   5.804  18.821  0.00  0.00    +0.000 A 
ATOM      7  N   UNL     1       8.145   6.772  18.644  0.00  0.00    +0.000 NA
ATOM      8  H   UNL     1       9.323   8.744  18.612  0.00  0.00    +0.000 HD
ENDROOT
BRANCH   5   9
ATOM      9  C   UNL     1       4.836   4.898  18.587  0.00  0.00    +0.000 A 
ATOM     10  C   UNL     1       4.084   5.042  19.775  0.00  0.00    +0.000 A 
ATOM     11  C   UNL     1       3.090   4.125  20.048  0.00  0.00    +0.000 A 
ATOM     12  C   UNL     1       2.877   3.022  19.253  0.00  0.00    +0.000 A 
ATOM     13  C   UNL     1       3.577   2.828  18.093  0.00  0.00    +0.000 A 
ATOM     14  C   UNL     1       4.490   3.820  17.699  0.00  0.00    +0.000 A 
ATOM     15  C   UNL     1       5.011   3.731  16.286  0.00  0.00    +0.000 C 
ATOM     16  O   UNL     1       1.861   2.237  19.701  0.00  0.00    +0.000 OA
ATOM     17  C   UNL     1       1.289   3.146  20.644  0.00  0.00    +0.000 C 
ATOM     18  F   UNL     1       0.206   3.724  20.062  0.00  0.00    +0.000 F 
ATOM     19  F   UNL     1       0.854   2.456  21.724  0.00  0.00    +0.000 F 
ATOM     20  O   UNL     1       2.190   4.184  21.073  0.00  0.00    +0.000 OA
ENDBRANCH   5   9
BRANCH   1  21
ATOM     21  C   UNL     1       7.970  10.149  17.871  0.00  0.00    +0.000 C 
BRANCH  21  26
ATOM     22  C   UNL     1      10.455  13.511  18.971  0.00  0.00    +0.000 A 
ATOM     23  C   UNL     1       9.502  13.640  17.964  0.00  0.00    +0.000 A 
ATOM     24  C   UNL     1       8.722  12.541  17.605  0.00  0.00    +0.000 A 
ATOM     25  F   UNL     1       7.794  12.709  16.653  0.00  0.00    +0.000 F 
ATOM     26  C   UNL     1       8.871  11.298  18.224  0.00  0.00    +0.000 A 
ATOM     27  C   UNL     1       9.833  11.190  19.226  0.00  0.00    +0.000 A 
ATOM     28  F   UNL     1       9.991  10.028  19.874  0.00  0.00    +0.000 F 
ATOM     29  C   UNL     1      10.628  12.274  19.591  0.00  0.00    +0.000 A 
BRANCH  22  31
ATOM     30  C   UNL     1      12.130  15.091  18.421  0.00  0.00    +0.000 C 
ATOM     31  O   UNL     1      11.285  14.508  19.406  0.00  0.00    +0.000 OA
ENDBRANCH  22  31
ENDBRANCH  21  26
ENDBRANCH   1  21
TORSDOF 4
ENDMDL
MODEL 2
REMARK VINA RESULT:      -9.5      0.139      1.509
REMARK  Name = 
REMARK  6 active torsions:
REMARK  status: ('A' for Active; 'I' for Inactive)
REMARK    1  A    between atoms: C_1  and  O_2
REMARK    2  A    between atoms: O_2  and  C_3
REMARK    3  A    between atoms: C_7  and  C_8
REMARK    4  A    between atoms: C_8  and  N_9
REMARK    5  A    between atoms: C_13  and  C_14
REMARK    6  A    between atoms: C_19  and  C_20
REMARK                            x       y       z     vdW  Elec       q    Type
REMARK                         _______ _______ _______ _____ _____    ______ ____
ROOT
ATOM      1  N   UNL     1       8.672   8.895  17.810  0.00  0.00    +0.000 N 
ATOM      2  C   UNL     1       7.792   7.806  17.844  0.00  0.00    +0.000 A 
ATOM      3  N   UNL     1       6.638   7.878  17.179  0.00  0.00    +0.000 NA
ATOM      4  C   UNL     1       5.750   6.884  17.386  0.00  0.00    +0.000 A 
ATOM      5  C   UNL     1       5.921   5.827  18.261  0.00  0.00    +0.000 A 
ATOM      6  C   UNL     1       7.194   5.798  18.798  0.00  0.00    +0.000 A 
ATOM      7  N   UNL     1       8.131   6.770  18.618  0.00  0.00    +0.000 NA
ATOM      8  H   UNL     1       9.307   8.743  18.589  0.00  0.00    +0.000 HD
ENDROOT
BRANCH   5   9
ATOM      9  C   UNL     1       4.825   4.892  18.587  0.00  0.00    +0.000 A 
ATOM     10  C   UNL     1       4.072   5.039  19.775  0.00  0.00    +0.000 A 
ATOM     11  C   UNL     1       3.084   4.117  20.054  0.00  0.00    +0.000 A 
ATOM     12  C   UNL     1       2.877   3.008  19.265  0.00  0.00    +0.000 A 
ATOM     13  C   UNL     1       3.578   2.812  18.106  0.00  0.00    +0.000 A 
ATOM     14  C   UNL     1       4.484   3.807  17.706  0.00  0.00    +0.000 A 
ATOM     15  C   UNL     1       5.005   3.712  16.293  0.00  0.00    +0.000 C 
ATOM     16  O   UNL     1       1.866   2.220  19.718  0.00  0.00    +0.000 OA
ATOM     17  C   UNL     1       1.289   3.132  20.657  0.00  0.00    +0.000 C 
ATOM     18  F   UNL     1       0.202   3.700  20.072  0.00  0.00    +0.000 F 
ATOM     19  F   UNL     1       0.858   2.445  21.741  0.00  0.00    +0.000 F 
ATOM     20  O   UNL     1       2.184   4.176  21.079  0.00  0.00    +0.000 OA
ENDBRANCH   5   9
BRANCH   1  21
ATOM     21  C   UNL     1       7.942  10.153  17.880  0.00  0.00    +0.000 C 
BRANCH  21  26
ATOM     22  C   UNL     1      10.641  13.391  18.840  0.00  0.00    +0.000 A 
ATOM     23  C   UNL     1      10.743  12.171  19.502  0.00  0.00    +0.000 A 
ATOM     24  C   UNL     1       9.852  11.142  19.197  0.00  0.00    +0.000 A 
ATOM     25  F   UNL     1       9.998   9.971  19.832  0.00  0.00    +0.000 F 
ATOM     26  C   UNL     1       8.844  11.298  18.244  0.00  0.00    +0.000 A 
ATOM     27  C   UNL     1       8.757  12.529  17.596  0.00  0.00    +0.000 A 
ATOM     28  F   UNL     1       7.829  12.718  16.648  0.00  0.00    +0.000 F 
ATOM     29  C   UNL     1       9.632  13.572  17.894  0.00  0.00    +0.000 A 
BRANCH  22  31
ATOM     30  C   UNL     1      12.080  15.020  17.901  0.00  0.00    +0.000 C 
ATOM     31  O   UNL     1      11.446  14.477  19.054  0.00  0.00    +0.000 OA
ENDBRANCH  22  31
ENDBRANCH  21  26
ENDBRANCH   1  21
TORSDOF 4
ENDMDL
MODEL 3
REMARK VINA RESULT:      -9.0      1.476      1.697
REMARK  Name = 
REMARK  6 active torsions:
REMARK  status: ('A' for Active; 'I' for Inactive)
REMARK    1  A    between atoms: C_1  and  O_2
REMARK    2  A    between atoms: O_2  and  C_3
REMARK    3  A    between atoms: C_7  and  C_8
REMARK    4  A    between atoms: C_8  and  N_9
REMARK    5  A    between atoms: C_13  and  C_14
REMARK    6  A    between atoms: C_19  and  C_20
REMARK                            x       y       z     vdW  Elec       q    Type
REMARK                         _______ _______ _______ _____ _____    ______ ____
ROOT
ATOM      1  N   UNL     1       9.322   9.377  18.935  0.00  0.00    +0.000 N 
ATOM      2  C   UNL     1       8.484   8.362  18.458  0.00  0.00    +0.000 A 
ATOM      3  N   UNL     1       7.592   8.645  17.508  0.00  0.00    +0.000 NA
ATOM      4  C   UNL     1       6.691   7.686  17.210  0.00  0.00    +0.000 A 
ATOM      5  C   UNL     1       6.592   6.458  17.838  0.00  0.00    +0.000 A 
ATOM      6  C   UNL     1       7.637   6.238  18.715  0.00  0.00    +0.000 A 
ATOM      7  N   UNL     1       8.576   7.166  19.049  0.00  0.00    +0.000 NA
ATOM      8  H   UNL     1       9.687   9.025  19.816  0.00  0.00    +0.000 HD
ENDROOT
BRANCH   5   9
ATOM      9  C   UNL     1       5.456   5.543  17.601  0.00  0.00    +0.000 A 
ATOM     10  C   UNL     1       4.312   5.572  18.431  0.00  0.00    +0.000 A 
ATOM     11  C   UNL     1       3.294   4.672  18.192  0.00  0.00    +0.000 A 
ATOM     12  C   UNL     1       3.402   3.686  17.239  0.00  0.00    +0.000 A 
ATOM     13  C   UNL     1       4.488   3.606  16.408  0.00  0.00    +0.000 A 
ATOM     14  C   UNL     1       5.475   4.599  16.516  0.00  0.00    +0.000 A 
ATOM     15  C   UNL     1       6.489   4.661  15.400  0.00  0.00    +0.000 C 
ATOM     16  O   UNL     1       2.297   2.896  17.169  0.00  0.00    +0.000 OA
ATOM     17  C   UNL     1       1.407   3.706  17.941  0.00  0.00    +0.000 C 
ATOM     18  F   UNL     1       0.618   4.398  17.078  0.00  0.00    +0.000 F 
ATOM     19  F   UNL     1       0.603   2.908  18.681  0.00  0.00    +0.000 F 
ATOM     20  O   UNL     1       2.075   4.643  18.806  0.00  0.00    +0.000 OA
ENDBRANCH   5   9
BRANCH   1  21
ATOM     21  C   UNL     1       8.597  10.634  19.058  0.00  0.00    +0.000 C 
BRANCH  21  26
ATOM     22  C   UNL     1      11.100  14.127  18.585  0.00  0.00    +0.000 A 
ATOM     23  C   UNL     1      10.086  13.859  17.670  0.00  0.00    +0.000 A 
ATOM     24  C   UNL     1       9.299  12.717  17.823  0.00  0.00    +0.000 A 
ATOM     25  F   UNL     1       8.312  12.508  16.941  0.00  0.00    +0.000 F 
ATOM     26  C   UNL     1       9.502  11.818  18.871  0.00  0.00    +0.000 A 
ATOM     27  C   UNL     1      10.525  12.103  19.773  0.00  0.00    +0.000 A 
ATOM     28  F   UNL     1      10.739  11.288  20.816  0.00  0.00    +0.000 F 
ATOM     29  C   UNL     1      11.328  13.233  19.631  0.00  0.00    +0.000 A 
BRANCH  22  31
ATOM     30  C   UNL     1      11.527  16.351  19.274  0.00  0.00    +0.000 C 
ATOM     31  O   UNL     1      11.942  15.204  18.540  0.00  0.00    +0.000 OA
ENDBRANCH  22  31
ENDBRANCH  21  26
ENDBRANCH   1  21
TORSDOF 4
ENDMDL
MODEL 4
REMARK VINA RESULT:      -8.9      7.147      9.676
REMARK  Name = 
REMARK  6 active torsions:
REMARK  status: ('A' for Active; 'I' for Inactive)
REMARK    1  A    between atoms: C_1  and  O_2
REMARK    2  A    between atoms: O_2  and  C_3
REMARK    3  A    between atoms: C_7  and  C_8
REMARK    4  A    between atoms: C_8  and  N_9
REMARK    5  A    between atoms: C_13  and  C_14
REMARK    6  A    between atoms: C_19  and  C_20
REMARK                            x       y       z     vdW  Elec       q    Type
REMARK                         _______ _______ _______ _____ _____    ______ ____
ROOT
ATOM      1  N   UNL     1      -0.100  10.663  19.585  0.00  0.00    +0.000 N 
ATOM      2  C   UNL     1       0.929   9.777  19.245  0.00  0.00    +0.000 A 
ATOM      3  N   UNL     1       1.633   9.988  18.133  0.00  0.00    +0.000 NA
ATOM      4  C   UNL     1       2.488   9.015  17.756  0.00  0.00    +0.000 A 
ATOM      5  C   UNL     1       2.659   7.806  18.403  0.00  0.00    +0.000 A 
ATOM      6  C   UNL     1       1.968   7.753  19.598  0.00  0.00    +0.000 A 
ATOM      7  N   UNL     1       1.098   8.707  20.031  0.00  0.00    +0.000 NA
ATOM      8  H   UNL     1      -0.664  10.164  20.268  0.00  0.00    +0.000 HD
ENDROOT
BRANCH   5   9
ATOM      9  C   UNL     1       3.460   6.709  17.820  0.00  0.00    +0.000 A 
ATOM     10  C   UNL     1       4.637   6.978  17.085  0.00  0.00    +0.000 A 
ATOM     11  C   UNL     1       5.329   5.921  16.529  0.00  0.00    +0.000 A 
ATOM     12  C   UNL     1       4.855   4.630  16.581  0.00  0.00    +0.000 A 
ATOM     13  C   UNL     1       3.719   4.311  17.275  0.00  0.00    +0.000 A 
ATOM     14  C   UNL     1       3.071   5.334  17.986  0.00  0.00    +0.000 A 
ATOM     15  C   UNL     1       2.017   4.900  18.975  0.00  0.00    +0.000 C 
ATOM     16  O   UNL     1       5.677   3.741  15.963  0.00  0.00    +0.000 OA
ATOM     17  C   UNL     1       6.829   4.576  15.825  0.00  0.00    +0.000 C 
ATOM     18  F   UNL     1       7.699   4.255  16.819  0.00  0.00    +0.000 F 
ATOM     19  F   UNL     1       7.438   4.307  14.646  0.00  0.00    +0.000 F 
ATOM     20  O   UNL     1       6.541   5.984  15.903  0.00  0.00    +0.000 OA
ENDBRANCH   5   9
BRANCH   1  21
ATOM     21  C   UNL     1      -0.839  11.077  18.400  0.00  0.00    +0.000 C 
BRANCH  21  26
ATOM     22  C   UNL     1      -4.964  12.070  19.234  0.00  0.00    +0.000 A 
ATOM     23  C   UNL     1      -3.935  12.675  19.952  0.00  0.00    +0.000 A 
ATOM     24  C   UNL     1      -2.610  12.330  19.685  0.00  0.00    +0.000 A 
ATOM     25  F   UNL     1      -1.645  12.955  20.374  0.00  0.00    +0.000 F 
ATOM     26  C   UNL     1      -2.276  11.380  18.719  0.00  0.00    +0.000 A 
ATOM     27  C   UNL     1      -3.320  10.783  18.016  0.00  0.00    +0.000 A 
ATOM     28  F   UNL     1      -3.050   9.890  17.054  0.00  0.00    +0.000 F 
ATOM     29  C   UNL     1      -4.650  11.108  18.274  0.00  0.00    +0.000 A 
BRANCH  22  31
ATOM     30  C   UNL     1      -7.135  12.014  18.294  0.00  0.00    +0.000 C 
ATOM     31  O   UNL     1      -6.298  12.315  19.405  0.00  0.00    +0.000 OA
ENDBRANCH  22  31
ENDBRANCH  21  26
ENDBRANCH   1  21
TORSDOF 4
ENDMDL
MODEL 5
REMARK VINA RESULT:      -8.8      6.881      8.766
REMARK  Name = 
REMARK  6 active torsions:
REMARK  status: ('A' for Active; 'I' for Inactive)
REMARK    1  A    between atoms: C_1  and  O_2
REMARK    2  A    between atoms: O_2  and  C_3
REMARK    3  A    between atoms: C_7  and  C_8
REMARK    4  A    between atoms: C_8  and  N_9
REMARK    5  A    between atoms: C_13  and  C_14
REMARK    6  A    between atoms: C_19  and  C_20
REMARK                            x       y       z     vdW  Elec       q    Type
REMARK                         _______ _______ _______ _____ _____    ______ ____
ROOT
ATOM      1  N   UNL     1       0.185  10.977  19.712  0.00  0.00    +0.000 N 
ATOM      2  C   UNL     1       0.786   9.806  19.234  0.00  0.00    +0.000 A 
ATOM      3  N   UNL     1       1.160   8.864  20.100  0.00  0.00    +0.000 NA
ATOM      4  C   UNL     1       1.893   7.841  19.612  0.00  0.00    +0.000 A 
ATOM      5  C   UNL     1       2.320   7.715  18.303  0.00  0.00    +0.000 A 
ATOM      6  C   UNL     1       1.773   8.684  17.483  0.00  0.00    +0.000 A 
ATOM      7  N   UNL     1       1.023   9.734  17.920  0.00  0.00    +0.000 NA
ATOM      8  H   UNL     1       0.257  11.641  18.946  0.00  0.00    +0.000 HD
ENDROOT
BRANCH   5   9
ATOM      9  C   UNL     1       3.287   6.679  17.888  0.00  0.00    +0.000 A 
ATOM     10  C   UNL     1       4.497   7.027  17.246  0.00  0.00    +0.000 A 
ATOM     11  C   UNL     1       5.351   6.020  16.844  0.00  0.00    +0.000 A 
ATOM     12  C   UNL     1       5.015   4.691  16.958  0.00  0.00    +0.000 A 
ATOM     13  C   UNL     1       3.855   4.294  17.568  0.00  0.00    +0.000 A 
ATOM     14  C   UNL     1       3.033   5.284  18.130  0.00  0.00    +0.000 A 
ATOM     15  C   UNL     1       1.937   4.804  19.050  0.00  0.00    +0.000 C 
ATOM     16  O   UNL     1       5.985   3.859  16.493  0.00  0.00    +0.000 OA
ATOM     17  C   UNL     1       7.050   4.809  16.394  0.00  0.00    +0.000 C 
ATOM     18  F   UNL     1       7.844   4.661  17.487  0.00  0.00    +0.000 F 
ATOM     19  F   UNL     1       7.799   4.528  15.303  0.00  0.00    +0.000 F 
ATOM     20  O   UNL     1       6.606   6.176  16.330  0.00  0.00    +0.000 OA
ENDBRANCH   5   9
BRANCH   1  21
ATOM     21  C   UNL     1       0.823  11.422  20.942  0.00  0.00    +0.000 C 
BRANCH  21  26
ATOM     22  C   UNL     1      -2.114  13.221  23.555  0.00  0.00    +0.000 A 
ATOM     23  C   UNL     1      -1.218  14.019  22.850  0.00  0.00    +0.000 A 
ATOM     24  C   UNL     1      -0.262  13.423  22.026  0.00  0.00    +0.000 A 
ATOM     25  F   UNL     1       0.564  14.223  21.338  0.00  0.00    +0.000 F 
ATOM     26  C   UNL     1      -0.167  12.038  21.890  0.00  0.00    +0.000 A 
ATOM     27  C   UNL     1      -1.071  11.258  22.609  0.00  0.00    +0.000 A 
ATOM     28  F   UNL     1      -1.042   9.923  22.486  0.00  0.00    +0.000 F 
ATOM     29  C   UNL     1      -2.026  11.834  23.444  0.00  0.00    +0.000 A 
BRANCH  22  31
ATOM     30  C   UNL     1      -4.192  12.808  24.612  0.00  0.00    +0.000 C 
ATOM     31  O   UNL     1      -3.088  13.681  24.398  0.00  0.00    +0.000 OA
ENDBRANCH  22  31
ENDBRANCH  21  26
ENDBRANCH   1  21
TORSDOF 4
ENDMDL
MODEL 6
REMARK VINA RESULT:      -8.8      7.140      9.696
REMARK  Name = 
REMARK  6 active torsions:
REMARK  status: ('A' for Active; 'I' for Inactive)
REMARK    1  A    between atoms: C_1  and  O_2
REMARK    2  A    between atoms: O_2  and  C_3
REMARK    3  A    between atoms: C_7  and  C_8
REMARK    4  A    between atoms: C_8  and  N_9
REMARK    5  A    between atoms: C_13  and  C_14
REMARK    6  A    between atoms: C_19  and  C_20
REMARK                            x       y       z     vdW  Elec       q    Type
REMARK                         _______ _______ _______ _____ _____    ______ ____
ROOT
ATOM      1  N   UNL     1      -0.255  10.679  19.480  0.00  0.00    +0.000 N 
ATOM      2  C   UNL     1       0.799   9.807  19.177  0.00  0.00    +0.000 A 
ATOM      3  N   UNL     1       1.520  10.013  18.075  0.00  0.00    +0.000 NA
ATOM      4  C   UNL     1       2.401   9.050  17.733  0.00  0.00    +0.000 A 
ATOM      5  C   UNL     1       2.584   7.856  18.406  0.00  0.00    +0.000 A 
ATOM      6  C   UNL     1       1.870   7.812  19.588  0.00  0.00    +0.000 A 
ATOM      7  N   UNL     1       0.973   8.756  19.986  0.00  0.00    +0.000 NA
ATOM      8  H   UNL     1      -0.821  10.181  20.161  0.00  0.00    +0.000 HD
ENDROOT
BRANCH   5   9
ATOM      9  C   UNL     1       3.417   6.765  17.859  0.00  0.00    +0.000 A 
ATOM     10  C   UNL     1       4.629   7.042  17.185  0.00  0.00    +0.000 A 
ATOM     11  C   UNL     1       5.352   5.991  16.660  0.00  0.00    +0.000 A 
ATOM     12  C   UNL     1       4.881   4.698  16.683  0.00  0.00    +0.000 A 
ATOM     13  C   UNL     1       3.713   4.371  17.318  0.00  0.00    +0.000 A 
ATOM     14  C   UNL     1       3.026   5.388  18.000  0.00  0.00    +0.000 A 
ATOM     15  C   UNL     1       1.925   4.946  18.933  0.00  0.00    +0.000 C 
ATOM     16  O   UNL     1       5.737   3.814  16.103  0.00  0.00    +0.000 OA
ATOM     17  C   UNL     1       6.891   4.655  16.027  0.00  0.00    +0.000 C 
ATOM     18  F   UNL     1       7.711   4.333  17.062  0.00  0.00    +0.000 F 
ATOM     19  F   UNL     1       7.560   4.394  14.879  0.00  0.00    +0.000 F 
ATOM     20  O   UNL     1       6.594   6.061  16.096  0.00  0.00    +0.000 OA
ENDBRANCH   5   9
BRANCH   1  21
ATOM     21  C   UNL     1      -0.978  11.057  18.274  0.00  0.00    +0.000 C 
BRANCH  21  26
ATOM     22  C   UNL     1      -5.139  11.784  19.192  0.00  0.00    +0.000 A 
ATOM     23  C   UNL     1      -4.785  10.828  18.244  0.00  0.00    +0.000 A 
ATOM     24  C   UNL     1      -3.439  10.619  17.943  0.00  0.00    +0.000 A 
ATOM     25  F   UNL     1      -3.133   9.669  17.048  0.00  0.00    +0.000 F 
ATOM     26  C   UNL     1      -2.423  11.350  18.561  0.00  0.00    +0.000 A 
ATOM     27  C   UNL     1      -2.800  12.304  19.503  0.00  0.00    +0.000 A 
ATOM     28  F   UNL     1      -1.860  13.008  20.150  0.00  0.00    +0.000 F 
ATOM     29  C   UNL     1      -4.140  12.535  19.811  0.00  0.00    +0.000 A 
BRANCH  22  31
ATOM     30  C   UNL     1      -6.554  12.833  20.774  0.00  0.00    +0.000 C 
ATOM     31  O   UNL     1      -6.419  12.088  19.568  0.00  0.00    +0.000 OA
ENDBRANCH  22  31
ENDBRANCH  21  26
ENDBRANCH   1  21
TORSDOF 4
ENDMDL
MODEL 7
REMARK VINA RESULT:      -8.6      7.080      8.530
REMARK  Name = 
REMARK  6 active torsions:
REMARK  status: ('A' for Active; 'I' for Inactive)
REMARK    1  A    between atoms: C_1  and  O_2
REMARK    2  A    between atoms: O_2  and  C_3
REMARK    3  A    between atoms: C_7  and  C_8
REMARK    4  A    between atoms: C_8  and  N_9
REMARK    5  A    between atoms: C_13  and  C_14
REMARK    6  A    between atoms: C_19  and  C_20
REMARK                            x       y       z     vdW  Elec       q    Type
REMARK                         _______ _______ _______ _____ _____    ______ ____
ROOT
ATOM      1  N   UNL     1       0.104  10.859  19.928  0.00  0.00    +0.000 N 
ATOM      2  C   UNL     1       0.706   9.705  19.412  0.00  0.00    +0.000 A 
ATOM      3  N   UNL     1       1.183   8.786  20.253  0.00  0.00    +0.000 NA
ATOM      4  C   UNL     1       1.910   7.785  19.715  0.00  0.00    +0.000 A 
ATOM      5  C   UNL     1       2.234   7.661  18.377  0.00  0.00    +0.000 A 
ATOM      6  C   UNL     1       1.588   8.600  17.596  0.00  0.00    +0.000 A 
ATOM      7  N   UNL     1       0.839   9.628  18.084  0.00  0.00    +0.000 NA
ATOM      8  H   UNL     1       0.090  11.518  19.154  0.00  0.00    +0.000 HD
ENDROOT
BRANCH   5   9
ATOM      9  C   UNL     1       3.202   6.654  17.893  0.00  0.00    +0.000 A 
ATOM     10  C   UNL     1       4.414   7.046  17.279  0.00  0.00    +0.000 A 
ATOM     11  C   UNL     1       5.268   6.068  16.810  0.00  0.00    +0.000 A 
ATOM     12  C   UNL     1       4.930   4.735  16.830  0.00  0.00    +0.000 A 
ATOM     13  C   UNL     1       3.769   4.297  17.408  0.00  0.00    +0.000 A 
ATOM     14  C   UNL     1       2.946   5.246  18.035  0.00  0.00    +0.000 A 
ATOM     15  C   UNL     1       1.847   4.704  18.916  0.00  0.00    +0.000 C 
ATOM     16  O   UNL     1       5.901   3.936  16.311  0.00  0.00    +0.000 OA
ATOM     17  C   UNL     1       6.966   4.890  16.281  0.00  0.00    +0.000 C 
ATOM     18  F   UNL     1       7.757   4.664  17.363  0.00  0.00    +0.000 F 
ATOM     19  F   UNL     1       7.719   4.685  15.174  0.00  0.00    +0.000 F 
ATOM     20  O   UNL     1       6.525   6.259  16.311  0.00  0.00    +0.000 OA
ENDBRANCH   5   9
BRANCH   1  21
ATOM     21  C   UNL     1       0.823  11.339  21.100  0.00  0.00    +0.000 C 
BRANCH  21  26
ATOM     22  C   UNL     1      -1.317  14.374  23.314  0.00  0.00    +0.000 A 
ATOM     23  C   UNL     1      -1.665  13.032  23.444  0.00  0.00    +0.000 A 
ATOM     24  C   UNL     1      -0.979  12.066  22.707  0.00  0.00    +0.000 A 
ATOM     25  F   UNL     1      -1.320  10.781  22.880  0.00  0.00    +0.000 F 
ATOM     26  C   UNL     1       0.051  12.403  21.828  0.00  0.00    +0.000 A 
ATOM     27  C   UNL     1       0.379  13.752  21.710  0.00  0.00    +0.000 A 
ATOM     28  F   UNL     1       1.384  14.124  20.904  0.00  0.00    +0.000 F 
ATOM     29  C   UNL     1      -0.301  14.733  22.430  0.00  0.00    +0.000 A 
BRANCH  22  31
ATOM     30  C   UNL     1      -2.487  15.103  25.239  0.00  0.00    +0.000 C 
ATOM     31  O   UNL     1      -1.916  15.413  23.972  0.00  0.00    +0.000 OA
ENDBRANCH  22  31
ENDBRANCH  21  26
ENDBRANCH   1  21
TORSDOF 4
ENDMDL
MODEL 8
REMARK VINA RESULT:      -8.6      1.622      2.134
REMARK  Name = 
REMARK  6 active torsions:
REMARK  status: ('A' for Active; 'I' for Inactive)
REMARK    1  A    between atoms: C_1  and  O_2
REMARK    2  A    between atoms: O_2  and  C_3
REMARK    3  A    between atoms: C_7  and  C_8
REMARK    4  A    between atoms: C_8  and  N_9
REMARK    5  A    between atoms: C_13  and  C_14
REMARK    6  A    between atoms: C_19  and  C_20
REMARK                            x       y       z     vdW  Elec       q    Type
REMARK                         _______ _______ _______ _____ _____    ______ ____
ROOT
ATOM      1  N   UNL     1       9.294   9.497  18.787  0.00  0.00    +0.000 N 
ATOM      2  C   UNL     1       8.475   8.448  18.353  0.00  0.00    +0.000 A 
ATOM      3  N   UNL     1       7.575   8.675  17.395  0.00  0.00    +0.000 NA
ATOM      4  C   UNL     1       6.693   7.687  17.138  0.00  0.00    +0.000 A 
ATOM      5  C   UNL     1       6.620   6.484  17.815  0.00  0.00    +0.000 A 
ATOM      6  C   UNL     1       7.670   6.319  18.697  0.00  0.00    +0.000 A 
ATOM      7  N   UNL     1       8.592   7.278  18.990  0.00  0.00    +0.000 NA
ATOM      8  H   UNL     1       9.668   9.187  19.680  0.00  0.00    +0.000 HD
ENDROOT
BRANCH   5   9
ATOM      9  C   UNL     1       5.502   5.538  17.618  0.00  0.00    +0.000 A 
ATOM     10  C   UNL     1       4.341   5.605  18.422  0.00  0.00    +0.000 A 
ATOM     11  C   UNL     1       3.340   4.676  18.224  0.00  0.00    +0.000 A 
ATOM     12  C   UNL     1       3.481   3.630  17.341  0.00  0.00    +0.000 A 
ATOM     13  C   UNL     1       4.584   3.512  16.538  0.00  0.00    +0.000 A 
ATOM     14  C   UNL     1       5.554   4.524  16.599  0.00  0.00    +0.000 A 
ATOM     15  C   UNL     1       6.590   4.528  15.500  0.00  0.00    +0.000 C 
ATOM     16  O   UNL     1       2.388   2.820  17.303  0.00  0.00    +0.000 OA
ATOM     17  C   UNL     1       1.472   3.667  18.002  0.00  0.00    +0.000 C 
ATOM     18  F   UNL     1       0.691   4.288  17.080  0.00  0.00    +0.000 F 
ATOM     19  F   UNL     1       0.664   2.907  18.778  0.00  0.00    +0.000 F 
ATOM     20  O   UNL     1       2.109   4.669  18.815  0.00  0.00    +0.000 OA
ENDBRANCH   5   9
BRANCH   1  21
ATOM     21  C   UNL     1       8.544  10.743  18.861  0.00  0.00    +0.000 C 
BRANCH  21  26
ATOM     22  C   UNL     1      11.175  13.976  20.011  0.00  0.00    +0.000 A 
ATOM     23  C   UNL     1      10.302  13.415  20.939  0.00  0.00    +0.000 A 
ATOM     24  C   UNL     1       9.444  12.387  20.549  0.00  0.00    +0.000 A 
ATOM     25  F   UNL     1       8.639  11.850  21.476  0.00  0.00    +0.000 F 
ATOM     26  C   UNL     1       9.425  11.900  19.241  0.00  0.00    +0.000 A 
ATOM     27  C   UNL     1      10.304  12.478  18.327  0.00  0.00    +0.000 A 
ATOM     28  F   UNL     1      10.348  12.022  17.067  0.00  0.00    +0.000 F 
ATOM     29  C   UNL     1      11.161  13.512  18.696  0.00  0.00    +0.000 A 
BRANCH  22  31
ATOM     30  C   UNL     1      12.319  15.875  19.183  0.00  0.00    +0.000 C 
ATOM     31  O   UNL     1      12.056  14.990  20.266  0.00  0.00    +0.000 OA
ENDBRANCH  22  31
ENDBRANCH  21  26
ENDBRANCH   1  21
TORSDOF 4
ENDMDL
MODEL 9
REMARK VINA RESULT:      -8.5      1.783      2.132
REMARK  Name = 
REMARK  6 active torsions:
REMARK  status: ('A' for Active; 'I' for Inactive)
REMARK    1  A    between atoms: C_1  and  O_2
REMARK    2  A    between atoms: O_2  and  C_3
REMARK    3  A    between atoms: C_7  and  C_8
REMARK    4  A    between atoms: C_8  and  N_9
REMARK    5  A    between atoms: C_13  and  C_14
REMARK    6  A    between atoms: C_19  and  C_20
REMARK                            x       y       z     vdW  Elec       q    Type
REMARK                         _______ _______ _______ _____ _____    ______ ____
ROOT
ATOM      1  N   UNL     1       9.308   9.642  18.837  0.00  0.00    +0.000 N 
ATOM      2  C   UNL     1       8.490   8.603  18.378  0.00  0.00    +0.000 A 
ATOM      3  N   UNL     1       7.600   8.849  17.417  0.00  0.00    +0.000 NA
ATOM      4  C   UNL     1       6.717   7.868  17.136  0.00  0.00    +0.000 A 
ATOM      5  C   UNL     1       6.634   6.653  17.791  0.00  0.00    +0.000 A 
ATOM      6  C   UNL     1       7.677   6.471  18.680  0.00  0.00    +0.000 A 
ATOM      7  N   UNL     1       8.598   7.422  18.997  0.00  0.00    +0.000 NA
ATOM      8  H   UNL     1       9.674   9.316  19.728  0.00  0.00    +0.000 HD
ENDROOT
BRANCH   5   9
ATOM      9  C   UNL     1       5.515   5.714  17.569  0.00  0.00    +0.000 A 
ATOM     10  C   UNL     1       4.353   5.764  18.372  0.00  0.00    +0.000 A 
ATOM     11  C   UNL     1       3.351   4.841  18.148  0.00  0.00    +0.000 A 
ATOM     12  C   UNL     1       3.492   3.817  17.241  0.00  0.00    +0.000 A 
ATOM     13  C   UNL     1       4.597   3.716  16.438  0.00  0.00    +0.000 A 
ATOM     14  C   UNL     1       5.569   4.726  16.526  0.00  0.00    +0.000 A 
ATOM     15  C   UNL     1       6.607   4.754  15.430  0.00  0.00    +0.000 C 
ATOM     16  O   UNL     1       2.399   3.010  17.181  0.00  0.00    +0.000 OA
ATOM     17  C   UNL     1       1.482   3.841  17.898  0.00  0.00    +0.000 C 
ATOM     18  F   UNL     1       0.704   4.485  16.989  0.00  0.00    +0.000 F 
ATOM     19  F   UNL     1       0.671   3.063  18.653  0.00  0.00    +0.000 F 
ATOM     20  O   UNL     1       2.119   4.822  18.737  0.00  0.00    +0.000 OA
ENDBRANCH   5   9
BRANCH   1  21
ATOM     21  C   UNL     1       8.561  10.889  18.927  0.00  0.00    +0.000 C 
BRANCH  21  26
ATOM     22  C   UNL     1      10.970  14.336  17.920  0.00  0.00    +0.000 A 
ATOM     23  C   UNL     1      11.209  13.107  17.310  0.00  0.00    +0.000 A 
ATOM     24  C   UNL     1      10.438  11.999  17.660  0.00  0.00    +0.000 A 
ATOM     25  F   UNL     1      10.676  10.840  17.030  0.00  0.00    +0.000 F 
ATOM     26  C   UNL     1       9.427  12.078  18.619  0.00  0.00    +0.000 A 
ATOM     27  C   UNL     1       9.207  13.315  19.220  0.00  0.00    +0.000 A 
ATOM     28  F   UNL     1       8.225  13.451  20.122  0.00  0.00    +0.000 F 
ATOM     29  C   UNL     1       9.973  14.431  18.891  0.00  0.00    +0.000 A 
BRANCH  22  31
ATOM     30  C   UNL     1      10.921  16.536  17.048  0.00  0.00    +0.000 C 
ATOM     31  O   UNL     1      11.659  15.490  17.671  0.00  0.00    +0.000 OA
ENDBRANCH  22  31
ENDBRANCH  21  26
ENDBRANCH   1  21
TORSDOF 4
ENDMDL
