MODEL 1
REMARK VINA RESULT:      -8.0      0.000      0.000
REMARK  Name = 
REMARK  5 active torsions:
REMARK  status: ('A' for Active; 'I' for Inactive)
REMARK    1  A    between atoms: C_1  and  C_2
REMARK    2  A    between atoms: C_5  and  C_6
REMARK    3  A    between atoms: C_6  and  C_7
REMARK    4  A    between atoms: C_6  and  N_8
REMARK    5  A    between atoms: C_9  and  C_11
REMARK                            x       y       z     vdW  Elec       q    Type
REMARK                         _______ _______ _______ _____ _____    ______ ____
ROOT
ATOM      1  N   UNL     1       4.891   4.922  17.537  0.00  0.00    +0.000 N 
ATOM      2  C   UNL     1       4.899   4.224  18.726  0.00  0.00    +0.000 C 
ATOM      3  O   UNL     1       5.932   3.992  19.345  0.00  0.00    +0.000 OA
ATOM      4  H   UNL     1       4.013   5.121  17.080  0.00  0.00    +0.000 HD
ENDROOT
BRANCH   2   5
ATOM      5  C   UNL     1       3.508   3.803  19.236  0.00  0.00    +0.000 C 
ATOM      6  C   UNL     1       3.402   2.265  19.362  0.00  0.00    +0.000 C 
ATOM      7  C   UNL     1       1.994   1.858  19.830  0.00  0.00    +0.000 C 
ATOM      8  C   UNL     1       1.716   2.479  21.206  0.00  0.00    +0.000 C 
ATOM      9  C   UNL     1       1.807   4.011  21.117  0.00  0.00    +0.000 C 
ATOM     10  C   UNL     1       0.759   4.517  20.113  0.00  0.00    +0.000 C 
ATOM     11  C   UNL     1       1.025   3.909  18.726  0.00  0.00    +0.000 C 
ATOM     12  C   UNL     1       0.957   2.376  18.818  0.00  0.00    +0.000 C 
ATOM     13  C   UNL     1       2.426   4.320  18.254  0.00  0.00    +0.000 C 
ATOM     14  C   UNL     1       3.214   4.412  20.633  0.00  0.00    +0.000 C 
ENDBRANCH   2   5
BRANCH   1  15
ATOM     15  C   UNL     1       6.089   5.519  16.970  0.00  0.00    +0.000 C 
ATOM     16  C   UNL     1       6.022   7.049  17.035  0.00  0.00    +0.000 C 
BRANCH  15  21
ATOM     17  C   UNL     1       6.871   3.532  11.525  0.00  0.00    +0.000 C 
ATOM     18  C   UNL     1       6.665   4.056  12.915  0.00  0.00    +0.000 A 
ATOM     19  C   UNL     1       5.520   3.724  13.645  0.00  0.00    +0.000 A 
ATOM     20  C   UNL     1       5.339   4.209  14.943  0.00  0.00    +0.000 A 
ATOM     21  C   UNL     1       6.301   5.032  15.546  0.00  0.00    +0.000 A 
ATOM     22  C   UNL     1       7.443   5.373  14.803  0.00  0.00    +0.000 A 
ATOM     23  C   UNL     1       7.622   4.890  13.503  0.00  0.00    +0.000 A 
ENDBRANCH  15  21
ENDBRANCH   1  15
TORSDOF 3
ENDMDL
MODEL 2
REMARK VINA RESULT:      -8.0      0.075      1.614
REMARK  Name = 
REMARK  5 active torsions:
REMARK  status: ('A' for Active; 'I' for Inactive)
REMARK    1  A    between atoms: C_1  and  C_2
REMARK    2  A    between atoms: C_5  and  C_6
REMARK    3  A    between atoms: C_6  and  C_7
REMARK    4  A    between atoms: C_6  and  N_8
REMARK    5  A    between atoms: C_9  and  C_11
REMARK                            x       y       z     vdW  Elec       q    Type
REMARK                         _______ _______ _______ _____ _____    ______ ____
ROOT
ATOM      1  N   UNL     1       4.936   4.868  17.489  0.00  0.00    +0.000 N 
ATOM      2  C   UNL     1       4.909   4.200  18.694  0.00  0.00    +0.000 C 
ATOM      3  O   UNL     1       5.924   3.978  19.347  0.00  0.00    +0.000 OA
ATOM      4  H   UNL     1       4.073   5.060  17.004  0.00  0.00    +0.000 HD
ENDROOT
BRANCH   2   5
ATOM      5  C   UNL     1       3.503   3.799  19.177  0.00  0.00    +0.000 C 
ATOM      6  C   UNL     1       2.412   4.300  18.201  0.00  0.00    +0.000 C 
ATOM      7  C   UNL     1       1.012   3.930  18.719  0.00  0.00    +0.000 C 
ATOM      8  C   UNL     1       0.899   2.403  18.832  0.00  0.00    +0.000 C 
ATOM      9  C   UNL     1       1.966   1.869  19.800  0.00  0.00    +0.000 C 
ATOM     10  C   UNL     1       1.742   2.495  21.186  0.00  0.00    +0.000 C 
ATOM     11  C   UNL     1       1.857   4.025  21.095  0.00  0.00    +0.000 C 
ATOM     12  C   UNL     1       0.806   4.559  20.108  0.00  0.00    +0.000 C 
ATOM     13  C   UNL     1       3.256   4.397  20.584  0.00  0.00    +0.000 C 
ATOM     14  C   UNL     1       3.365   2.256  19.285  0.00  0.00    +0.000 C 
ENDBRANCH   2   5
BRANCH   1  15
ATOM     15  C   UNL     1       6.153   5.444  16.940  0.00  0.00    +0.000 C 
ATOM     16  C   UNL     1       6.129   6.973  17.044  0.00  0.00    +0.000 C 
BRANCH  15  21
ATOM     17  C   UNL     1       6.898   3.578  11.448  0.00  0.00    +0.000 C 
ATOM     18  C   UNL     1       6.700   4.071  12.850  0.00  0.00    +0.000 A 
ATOM     19  C   UNL     1       5.586   3.680  13.598  0.00  0.00    +0.000 A 
ATOM     20  C   UNL     1       5.414   4.137  14.908  0.00  0.00    +0.000 A 
ATOM     21  C   UNL     1       6.354   4.990  15.504  0.00  0.00    +0.000 A 
ATOM     22  C   UNL     1       7.464   5.390  14.743  0.00  0.00    +0.000 A 
ATOM     23  C   UNL     1       7.635   4.935  13.431  0.00  0.00    +0.000 A 
ENDBRANCH  15  21
ENDBRANCH   1  15
TORSDOF 3
ENDMDL
MODEL 3
REMARK VINA RESULT:      -8.0      0.057      1.606
REMARK  Name = 
REMARK  5 active torsions:
REMARK  status: ('A' for Active; 'I' for Inactive)
REMARK    1  A    between atoms: C_1  and  C_2
REMARK    2  A    between atoms: C_5  and  C_6
REMARK    3  A    between atoms: C_6  and  C_7
REMARK    4  A    between atoms: C_6  and  N_8
REMARK    5  A    between atoms: C_9  and  C_11
REMARK                            x       y       z     vdW  Elec       q    Type
REMARK                         _______ _______ _______ _____ _____    ______ ____
ROOT
ATOM      1  N   UNL     1       4.858   4.980  17.543  0.00  0.00    +0.000 N 
ATOM      2  C   UNL     1       4.864   4.215  18.690  0.00  0.00    +0.000 C 
ATOM      3  O   UNL     1       5.901   3.899  19.265  0.00  0.00    +0.000 OA
ATOM      4  H   UNL     1       3.980   5.246  17.123  0.00  0.00    +0.000 HD
ENDROOT
BRANCH   2   5
ATOM      5  C   UNL     1       3.469   3.829  19.214  0.00  0.00    +0.000 C 
ATOM      6  C   UNL     1       3.202   4.454  20.604  0.00  0.00    +0.000 C 
ATOM      7  C   UNL     1       1.824   4.024  21.135  0.00  0.00    +0.000 C 
ATOM      8  C   UNL     1       0.733   4.507  20.167  0.00  0.00    +0.000 C 
ATOM      9  C   UNL     1       0.964   3.900  18.774  0.00  0.00    +0.000 C 
ATOM     10  C   UNL     1       0.902   2.368  18.879  0.00  0.00    +0.000 C 
ATOM     11  C   UNL     1       1.990   1.864  19.841  0.00  0.00    +0.000 C 
ATOM     12  C   UNL     1       1.776   2.489  21.229  0.00  0.00    +0.000 C 
ATOM     13  C   UNL     1       3.367   2.286  19.310  0.00  0.00    +0.000 C 
ATOM     14  C   UNL     1       2.352   4.321  18.255  0.00  0.00    +0.000 C 
ENDBRANCH   2   5
BRANCH   1  15
ATOM     15  C   UNL     1       6.069   5.553  16.977  0.00  0.00    +0.000 C 
ATOM     16  C   UNL     1       6.025   7.084  17.026  0.00  0.00    +0.000 C 
BRANCH  15  21
ATOM     17  C   UNL     1       6.854   3.500  11.557  0.00  0.00    +0.000 C 
ATOM     18  C   UNL     1       6.646   4.041  12.941  0.00  0.00    +0.000 A 
ATOM     19  C   UNL     1       5.508   3.706  13.680  0.00  0.00    +0.000 A 
ATOM     20  C   UNL     1       5.326   4.207  14.972  0.00  0.00    +0.000 A 
ATOM     21  C   UNL     1       6.281   5.050  15.559  0.00  0.00    +0.000 A 
ATOM     22  C   UNL     1       7.416   5.393  14.807  0.00  0.00    +0.000 A 
ATOM     23  C   UNL     1       7.596   4.894  13.513  0.00  0.00    +0.000 A 
ENDBRANCH  15  21
ENDBRANCH   1  15
TORSDOF 3
ENDMDL
MODEL 4
REMARK VINA RESULT:      -7.9      0.053      1.028
REMARK  Name = 
REMARK  5 active torsions:
REMARK  status: ('A' for Active; 'I' for Inactive)
REMARK    1  A    between atoms: C_1  and  C_2
REMARK    2  A    between atoms: C_5  and  C_6
REMARK    3  A    between atoms: C_6  and  C_7
REMARK    4  A    between atoms: C_6  and  N_8
REMARK    5  A    between atoms: C_9  and  C_11
REMARK                            x       y       z     vdW  Elec       q    Type
REMARK                         _______ _______ _______ _____ _____    ______ ____
ROOT
ATOM      1  N   UNL     1       4.853   4.931  17.532  0.00  0.00    +0.000 N 
ATOM      2  C   UNL     1       4.877   4.206  18.703  0.00  0.00    +0.000 C 
ATOM      3  O   UNL     1       5.921   3.943  19.294  0.00  0.00    +0.000 OA
ATOM      4  H   UNL     1       3.969   5.154  17.100  0.00  0.00    +0.000 HD
ENDROOT
BRANCH   2   5
ATOM      5  C   UNL     1       3.493   3.793  19.235  0.00  0.00    +0.000 C 
ATOM      6  C   UNL     1       3.384   2.256  19.378  0.00  0.00    +0.000 C 
ATOM      7  C   UNL     1       1.981   1.856  19.867  0.00  0.00    +0.000 C 
ATOM      8  C   UNL     1       1.722   2.492  21.240  0.00  0.00    +0.000 C 
ATOM      9  C   UNL     1       1.816   4.022  21.135  0.00  0.00    +0.000 C 
ATOM     10  C   UNL     1       0.756   4.521  20.140  0.00  0.00    +0.000 C 
ATOM     11  C   UNL     1       1.003   3.899  18.756  0.00  0.00    +0.000 C 
ATOM     12  C   UNL     1       0.933   2.367  18.864  0.00  0.00    +0.000 C 
ATOM     13  C   UNL     1       2.399   4.302  18.263  0.00  0.00    +0.000 C 
ATOM     14  C   UNL     1       3.217   4.416  20.630  0.00  0.00    +0.000 C 
ENDBRANCH   2   5
BRANCH   1  15
ATOM     15  C   UNL     1       6.047   5.524  16.952  0.00  0.00    +0.000 C 
ATOM     16  C   UNL     1       5.965   7.054  16.974  0.00  0.00    +0.000 C 
BRANCH  15  21
ATOM     17  C   UNL     1       6.932   3.626  11.492  0.00  0.00    +0.000 C 
ATOM     18  C   UNL     1       6.712   4.098  12.898  0.00  0.00    +0.000 A 
ATOM     19  C   UNL     1       7.639   4.931  13.530  0.00  0.00    +0.000 A 
ATOM     20  C   UNL     1       7.422   5.374  14.838  0.00  0.00    +0.000 A 
ATOM     21  C   UNL     1       6.269   5.001  15.543  0.00  0.00    +0.000 A 
ATOM     22  C   UNL     1       5.347   4.153  14.907  0.00  0.00    +0.000 A 
ATOM     23  C   UNL     1       5.567   3.707  13.600  0.00  0.00    +0.000 A 
ENDBRANCH  15  21
ENDBRANCH   1  15
TORSDOF 3
ENDMDL
MODEL 5
REMARK VINA RESULT:      -7.9      0.082      1.916
REMARK  Name = 
REMARK  5 active torsions:
REMARK  status: ('A' for Active; 'I' for Inactive)
REMARK    1  A    between atoms: C_1  and  C_2
REMARK    2  A    between atoms: C_5  and  C_6
REMARK    3  A    between atoms: C_6  and  C_7
REMARK    4  A    between atoms: C_6  and  N_8
REMARK    5  A    between atoms: C_9  and  C_11
REMARK                            x       y       z     vdW  Elec       q    Type
REMARK                         _______ _______ _______ _____ _____    ______ ____
ROOT
ATOM      1  N   UNL     1       4.889   4.877  17.501  0.00  0.00    +0.000 N 
ATOM      2  C   UNL     1       4.885   4.204  18.704  0.00  0.00    +0.000 C 
ATOM      3  O   UNL     1       5.913   3.984  19.338  0.00  0.00    +0.000 OA
ATOM      4  H   UNL     1       4.016   5.067  17.032  0.00  0.00    +0.000 HD
ENDROOT
BRANCH   2   5
ATOM      5  C   UNL     1       3.490   3.794  19.209  0.00  0.00    +0.000 C 
ATOM      6  C   UNL     1       2.380   4.298  18.256  0.00  0.00    +0.000 C 
ATOM      7  C   UNL     1       0.990   3.919  18.797  0.00  0.00    +0.000 C 
ATOM      8  C   UNL     1       0.885   2.391  18.902  0.00  0.00    +0.000 C 
ATOM      9  C   UNL     1       1.971   1.854  19.848  0.00  0.00    +0.000 C 
ATOM     10  C   UNL     1       1.770   2.471  21.241  0.00  0.00    +0.000 C 
ATOM     11  C   UNL     1       1.877   4.002  21.158  0.00  0.00    +0.000 C 
ATOM     12  C   UNL     1       0.806   4.539  20.193  0.00  0.00    +0.000 C 
ATOM     13  C   UNL     1       3.265   4.383  20.624  0.00  0.00    +0.000 C 
ATOM     14  C   UNL     1       3.360   2.251  19.310  0.00  0.00    +0.000 C 
ENDBRANCH   2   5
BRANCH   1  15
ATOM     15  C   UNL     1       6.092   5.462  16.934  0.00  0.00    +0.000 C 
ATOM     16  C   UNL     1       6.035   6.993  16.986  0.00  0.00    +0.000 C 
BRANCH  15  21
ATOM     17  C   UNL     1       6.947   3.660  11.436  0.00  0.00    +0.000 C 
ATOM     18  C   UNL     1       6.734   4.107  12.851  0.00  0.00    +0.000 A 
ATOM     19  C   UNL     1       7.663   4.933  13.491  0.00  0.00    +0.000 A 
ATOM     20  C   UNL     1       7.453   5.353  14.807  0.00  0.00    +0.000 A 
ATOM     21  C   UNL     1       6.306   4.963  15.514  0.00  0.00    +0.000 A 
ATOM     22  C   UNL     1       5.383   4.123  14.871  0.00  0.00    +0.000 A 
ATOM     23  C   UNL     1       5.596   3.700  13.554  0.00  0.00    +0.000 A 
ENDBRANCH  15  21
ENDBRANCH   1  15
TORSDOF 3
ENDMDL
MODEL 6
REMARK VINA RESULT:      -7.9      0.104      1.904
REMARK  Name = 
REMARK  5 active torsions:
REMARK  status: ('A' for Active; 'I' for Inactive)
REMARK    1  A    between atoms: C_1  and  C_2
REMARK    2  A    between atoms: C_5  and  C_6
REMARK    3  A    between atoms: C_6  and  C_7
REMARK    4  A    between atoms: C_6  and  N_8
REMARK    5  A    between atoms: C_9  and  C_11
REMARK                            x       y       z     vdW  Elec       q    Type
REMARK                         _______ _______ _______ _____ _____    ______ ____
ROOT
ATOM      1  N   UNL     1       4.934   4.820  17.489  0.00  0.00    +0.000 N 
ATOM      2  C   UNL     1       4.906   4.227  18.734  0.00  0.00    +0.000 C 
ATOM      3  O   UNL     1       5.919   4.068  19.410  0.00  0.00    +0.000 OA
ATOM      4  H   UNL     1       4.072   4.962  16.984  0.00  0.00    +0.000 HD
ENDROOT
BRANCH   2   5
ATOM      5  C   UNL     1       3.504   3.824  19.225  0.00  0.00    +0.000 C 
ATOM      6  C   UNL     1       3.209   4.420  20.622  0.00  0.00    +0.000 C 
ATOM      7  C   UNL     1       1.823   3.972  21.118  0.00  0.00    +0.000 C 
ATOM      8  C   UNL     1       0.748   4.469  20.141  0.00  0.00    +0.000 C 
ATOM      9  C   UNL     1       1.007   3.890  18.740  0.00  0.00    +0.000 C 
ATOM     10  C   UNL     1       0.952   2.356  18.814  0.00  0.00    +0.000 C 
ATOM     11  C   UNL     1       2.025   1.839  19.786  0.00  0.00    +0.000 C 
ATOM     12  C   UNL     1       1.782   2.435  21.182  0.00  0.00    +0.000 C 
ATOM     13  C   UNL     1       3.410   2.279  19.289  0.00  0.00    +0.000 C 
ATOM     14  C   UNL     1       2.402   4.329  18.255  0.00  0.00    +0.000 C 
ENDBRANCH   2   5
BRANCH   1  15
ATOM     15  C   UNL     1       6.144   5.389  16.919  0.00  0.00    +0.000 C 
ATOM     16  C   UNL     1       6.116   6.920  16.993  0.00  0.00    +0.000 C 
BRANCH  15  21
ATOM     17  C   UNL     1       6.911   3.648  11.389  0.00  0.00    +0.000 C 
ATOM     18  C   UNL     1       6.721   4.080  12.813  0.00  0.00    +0.000 A 
ATOM     19  C   UNL     1       7.649   4.916  13.439  0.00  0.00    +0.000 A 
ATOM     20  C   UNL     1       7.460   5.321  14.764  0.00  0.00    +0.000 A 
ATOM     21  C   UNL     1       6.336   4.906  15.491  0.00  0.00    +0.000 A 
ATOM     22  C   UNL     1       5.414   4.055  14.861  0.00  0.00    +0.000 A 
ATOM     23  C   UNL     1       5.605   3.647  13.536  0.00  0.00    +0.000 A 
ENDBRANCH  15  21
ENDBRANCH   1  15
TORSDOF 3
ENDMDL
MODEL 7
REMARK VINA RESULT:      -7.9      1.946      4.064
REMARK  Name = 
REMARK  5 active torsions:
REMARK  status: ('A' for Active; 'I' for Inactive)
REMARK    1  A    between atoms: C_1  and  C_2
REMARK    2  A    between atoms: C_5  and  C_6
REMARK    3  A    between atoms: C_6  and  C_7
REMARK    4  A    between atoms: C_6  and  N_8
REMARK    5  A    between atoms: C_9  and  C_11
REMARK                            x       y       z     vdW  Elec       q    Type
REMARK                         _______ _______ _______ _____ _____    ______ ____
ROOT
ATOM      1  N   UNL     1       5.262   4.894  17.499  0.00  0.00    +0.000 N 
ATOM      2  C   UNL     1       4.048   5.417  17.893  0.00  0.00    +0.000 C 
ATOM      3  O   UNL     1       3.673   6.535  17.553  0.00  0.00    +0.000 OA
ATOM      4  H   UNL     1       5.514   3.956  17.773  0.00  0.00    +0.000 HD
ENDROOT
BRANCH   2   5
ATOM      5  C   UNL     1       3.186   4.472  18.749  0.00  0.00    +0.000 C 
ATOM      6  C   UNL     1       1.847   4.146  18.046  0.00  0.00    +0.000 C 
ATOM      7  C   UNL     1       0.978   3.238  18.933  0.00  0.00    +0.000 C 
ATOM      8  C   UNL     1       1.723   1.921  19.196  0.00  0.00    +0.000 C 
ATOM      9  C   UNL     1       3.059   2.207  19.901  0.00  0.00    +0.000 C 
ATOM     10  C   UNL     1       2.778   2.904  21.241  0.00  0.00    +0.000 C 
ATOM     11  C   UNL     1       2.036   4.228  20.998  0.00  0.00    +0.000 C 
ATOM     12  C   UNL     1       0.711   3.947  20.272  0.00  0.00    +0.000 C 
ATOM     13  C   UNL     1       2.904   5.139  20.119  0.00  0.00    +0.000 C 
ATOM     14  C   UNL     1       3.918   3.130  19.015  0.00  0.00    +0.000 C 
ENDBRANCH   2   5
BRANCH   1  15
ATOM     15  C   UNL     1       6.150   5.582  16.577  0.00  0.00    +0.000 C 
ATOM     16  C   UNL     1       7.072   4.589  15.861  0.00  0.00    +0.000 C 
BRANCH  15  21
ATOM     17  C   UNL     1       9.252   9.745  19.270  0.00  0.00    +0.000 C 
ATOM     18  C   UNL     1       8.444   8.679  18.591  0.00  0.00    +0.000 A 
ATOM     19  C   UNL     1       7.623   8.984  17.502  0.00  0.00    +0.000 A 
ATOM     20  C   UNL     1       6.881   7.983  16.869  0.00  0.00    +0.000 A 
ATOM     21  C   UNL     1       6.946   6.652  17.306  0.00  0.00    +0.000 A 
ATOM     22  C   UNL     1       7.762   6.354  18.409  0.00  0.00    +0.000 A 
ATOM     23  C   UNL     1       8.503   7.357  19.044  0.00  0.00    +0.000 A 
ENDBRANCH  15  21
ENDBRANCH   1  15
TORSDOF 3
ENDMDL
MODEL 8
REMARK VINA RESULT:      -7.9      1.974      3.848
REMARK  Name = 
REMARK  5 active torsions:
REMARK  status: ('A' for Active; 'I' for Inactive)
REMARK    1  A    between atoms: C_1  and  C_2
REMARK    2  A    between atoms: C_5  and  C_6
REMARK    3  A    between atoms: C_6  and  C_7
REMARK    4  A    between atoms: C_6  and  N_8
REMARK    5  A    between atoms: C_9  and  C_11
REMARK                            x       y       z     vdW  Elec       q    Type
REMARK                         _______ _______ _______ _____ _____    ______ ____
ROOT
ATOM      1  N   UNL     1       5.286   4.907  17.651  0.00  0.00    +0.000 N 
ATOM      2  C   UNL     1       4.024   5.387  17.930  0.00  0.00    +0.000 C 
ATOM      3  O   UNL     1       3.602   6.439  17.460  0.00  0.00    +0.000 OA
ATOM      4  H   UNL     1       5.578   4.019  18.031  0.00  0.00    +0.000 HD
ENDROOT
BRANCH   2   5
ATOM      5  C   UNL     1       3.174   4.478  18.836  0.00  0.00    +0.000 C 
ATOM      6  C   UNL     1       3.980   3.243  19.304  0.00  0.00    +0.000 C 
ATOM      7  C   UNL     1       3.104   2.323  20.171  0.00  0.00    +0.000 C 
ATOM      8  C   UNL     1       2.630   3.093  21.412  0.00  0.00    +0.000 C 
ATOM      9  C   UNL     1       1.818   4.327  20.984  0.00  0.00    +0.000 C 
ATOM     10  C   UNL     1       0.594   3.864  20.178  0.00  0.00    +0.000 C 
ATOM     11  C   UNL     1       1.049   3.094  18.928  0.00  0.00    +0.000 C 
ATOM     12  C   UNL     1       1.881   1.873  19.353  0.00  0.00    +0.000 C 
ATOM     13  C   UNL     1       1.917   4.013  18.058  0.00  0.00    +0.000 C 
ATOM     14  C   UNL     1       2.695   5.236  20.103  0.00  0.00    +0.000 C 
ENDBRANCH   2   5
BRANCH   1  15
ATOM     15  C   UNL     1       6.181   5.556  16.708  0.00  0.00    +0.000 C 
ATOM     16  C   UNL     1       7.105   4.533  16.037  0.00  0.00    +0.000 C 
BRANCH  15  21
ATOM     17  C   UNL     1       9.275   9.817  19.251  0.00  0.00    +0.000 C 
ATOM     18  C   UNL     1       8.469   8.726  18.611  0.00  0.00    +0.000 A 
ATOM     19  C   UNL     1       7.635   8.994  17.522  0.00  0.00    +0.000 A 
ATOM     20  C   UNL     1       6.894   7.970  16.925  0.00  0.00    +0.000 A 
ATOM     21  C   UNL     1       6.975   6.652  17.398  0.00  0.00    +0.000 A 
ATOM     22  C   UNL     1       7.805   6.391  18.500  0.00  0.00    +0.000 A 
ATOM     23  C   UNL     1       8.544   7.417  19.099  0.00  0.00    +0.000 A 
ENDBRANCH  15  21
ENDBRANCH   1  15
TORSDOF 3
ENDMDL
MODEL 9
REMARK VINA RESULT:      -7.8      1.085      2.033
REMARK  Name = 
REMARK  5 active torsions:
REMARK  status: ('A' for Active; 'I' for Inactive)
REMARK    1  A    between atoms: C_1  and  C_2
REMARK    2  A    between atoms: C_5  and  C_6
REMARK    3  A    between atoms: C_6  and  C_7
REMARK    4  A    between atoms: C_6  and  N_8
REMARK    5  A    between atoms: C_9  and  C_11
REMARK                            x       y       z     vdW  Elec       q    Type
REMARK                         _______ _______ _______ _____ _____    ______ ____
ROOT
ATOM      1  N   UNL     1       5.890   4.290  18.391  0.00  0.00    +0.000 N 
ATOM      2  C   UNL     1       4.722   5.022  18.447  0.00  0.00    +0.000 C 
ATOM      3  O   UNL     1       4.619   6.135  17.942  0.00  0.00    +0.000 OA
ATOM      4  H   UNL     1       5.918   3.363  18.789  0.00  0.00    +0.000 HD
ENDROOT
BRANCH   2   5
ATOM      5  C   UNL     1       3.551   4.313  19.150  0.00  0.00    +0.000 C 
ATOM      6  C   UNL     1       2.974   5.185  20.291  0.00  0.00    +0.000 C 
ATOM      7  C   UNL     1       1.834   4.446  21.013  0.00  0.00    +0.000 C 
ATOM      8  C   UNL     1       0.708   4.147  20.012  0.00  0.00    +0.000 C 
ATOM      9  C   UNL     1       1.245   3.276  18.865  0.00  0.00    +0.000 C 
ATOM     10  C   UNL     1       1.768   1.953  19.445  0.00  0.00    +0.000 C 
ATOM     11  C   UNL     1       2.900   2.231  20.447  0.00  0.00    +0.000 C 
ATOM     12  C   UNL     1       2.372   3.122  21.583  0.00  0.00    +0.000 C 
ATOM     13  C   UNL     1       4.042   2.962  19.728  0.00  0.00    +0.000 C 
ATOM     14  C   UNL     1       2.397   4.014  18.157  0.00  0.00    +0.000 C 
ENDBRANCH   2   5
BRANCH   1  15
ATOM     15  C   UNL     1       7.058   4.735  17.650  0.00  0.00    +0.000 C 
ATOM     16  C   UNL     1       7.383   6.199  17.968  0.00  0.00    +0.000 C 
BRANCH  15  21
ATOM     17  C   UNL     1       6.267   3.795  11.932  0.00  0.00    +0.000 C 
ATOM     18  C   UNL     1       6.460   4.050  13.397  0.00  0.00    +0.000 A 
ATOM     19  C   UNL     1       5.685   3.384  14.350  0.00  0.00    +0.000 A 
ATOM     20  C   UNL     1       5.877   3.621  15.715  0.00  0.00    +0.000 A 
ATOM     21  C   UNL     1       6.854   4.523  16.159  0.00  0.00    +0.000 A 
ATOM     22  C   UNL     1       7.621   5.199  15.197  0.00  0.00    +0.000 A 
ATOM     23  C   UNL     1       7.425   4.965  13.832  0.00  0.00    +0.000 A 
ENDBRANCH  15  21
ENDBRANCH   1  15
TORSDOF 3
ENDMDL
