MODEL 1
REMARK VINA RESULT:      -8.8      0.000      0.000
REMARK  Name = 
REMARK  10 active torsions:
REMARK  status: ('A' for Active; 'I' for Inactive)
REMARK    1  A    between atoms: C_1  and  O_2
REMARK    2  A    between atoms: O_2  and  C_3
REMARK    3  A    between atoms: C_8  and  C_9
REMARK    4  A    between atoms: C_9  and  C_22
REMARK    5  A    between atoms: C_10  and  C_11
REMARK    6  A    between atoms: C_11  and  C_12
REMARK    7  A    between atoms: C_12  and  N_13
REMARK    8  A    between atoms: C_17  and  C_18
REMARK    9  A    between atoms: C_18  and  O_20
REMARK   10  A    between atoms: C_27  and  C_28
REMARK                            x       y       z     vdW  Elec       q    Type
REMARK                         _______ _______ _______ _____ _____    ______ ____
ROOT
ATOM      1  C   UNL     1       3.700   5.653  18.242  0.00  0.00    +0.000 C 
ATOM      2  C   UNL     1       3.360   6.958  18.035  0.00  0.00    +0.000 C 
ENDROOT
BRANCH   1   3
ATOM      3  C   UNL     1       2.822   4.834  19.138  0.00  0.00    +0.000 A 
ATOM      4  C   UNL     1       3.157   4.725  20.502  0.00  0.00    +0.000 A 
ATOM      5  C   UNL     1       2.410   3.930  21.379  0.00  0.00    +0.000 A 
ATOM      6  C   UNL     1       1.304   3.231  20.911  0.00  0.00    +0.000 A 
ATOM      7  C   UNL     1       0.961   3.313  19.564  0.00  0.00    +0.000 A 
ATOM      8  C   UNL     1       1.715   4.093  18.664  0.00  0.00    +0.000 A 
ATOM      9  C   UNL     1       1.286   4.122  17.224  0.00  0.00    +0.000 C 
ENDBRANCH   1   3
BRANCH   1  15
ATOM     10  C   UNL     1       6.149   4.866  17.959  0.00  0.00    +0.000 A 
ATOM     11  C   UNL     1       7.187   4.493  17.086  0.00  0.00    +0.000 A 
ATOM     12  C   UNL     1       6.961   4.285  15.735  0.00  0.00    +0.000 A 
ATOM     13  C   UNL     1       5.685   4.475  15.224  0.00  0.00    +0.000 A 
ATOM     14  C   UNL     1       4.649   4.899  16.064  0.00  0.00    +0.000 A 
ATOM     15  C   UNL     1       4.853   5.118  17.444  0.00  0.00    +0.000 A 
BRANCH  10  17
ATOM     16  C   UNL     1       7.576   5.722  19.644  0.00  0.00    +0.000 C 
ATOM     17  O   UNL     1       6.381   5.004  19.309  0.00  0.00    +0.000 OA
ENDBRANCH  10  17
ENDBRANCH   1  15
BRANCH   2  18
ATOM     18  C   UNL     1       2.220   7.660  18.733  0.00  0.00    +0.000 C 
BRANCH  18  19
ATOM     19  C   UNL     1       1.724   8.966  18.076  0.00  0.00    +0.000 C 
BRANCH  19  20
ATOM     20  N   UNL     1       1.228   9.950  19.075  0.00  0.00    +0.000 NA
ATOM     21  C   UNL     1       0.057  10.686  18.571  0.00  0.00    +0.000 C 
ATOM     22  C   UNL     1      -0.455  11.694  19.593  0.00  0.00    +0.000 C 
ATOM     23  C   UNL     1      -0.797  11.022  20.913  0.00  0.00    +0.000 C 
ATOM     24  C   UNL     1       0.392  10.206  21.427  0.00  0.00    +0.000 C 
ATOM     25  C   UNL     1       0.913   9.254  20.339  0.00  0.00    +0.000 C 
BRANCH  24  26
ATOM     26  C   UNL     1       0.002   9.397  22.662  0.00  0.00    +0.000 C 
ATOM     27  O   UNL     1       0.284   9.704  23.814  0.00  0.00    +0.000 OA
BRANCH  26  28
ATOM     28  O   UNL     1      -0.724   8.304  22.380  0.00  0.00    +0.000 OA
ATOM     29  H   UNL     1      -0.683   8.011  21.451  0.00  0.00    +0.000 HD
ENDBRANCH  26  28
ENDBRANCH  24  26
ENDBRANCH  19  20
ENDBRANCH  18  19
ENDBRANCH   2  18
TORSDOF 8
ENDMDL
MODEL 2
REMARK VINA RESULT:      -8.5      2.064      2.500
REMARK  Name = 
REMARK  10 active torsions:
REMARK  status: ('A' for Active; 'I' for Inactive)
REMARK    1  A    between atoms: C_1  and  O_2
REMARK    2  A    between atoms: O_2  and  C_3
REMARK    3  A    between atoms: C_8  and  C_9
REMARK    4  A    between atoms: C_9  and  C_22
REMARK    5  A    between atoms: C_10  and  C_11
REMARK    6  A    between atoms: C_11  and  C_12
REMARK    7  A    between atoms: C_12  and  N_13
REMARK    8  A    between atoms: C_17  and  C_18
REMARK    9  A    between atoms: C_18  and  O_20
REMARK   10  A    between atoms: C_27  and  C_28
REMARK                            x       y       z     vdW  Elec       q    Type
REMARK                         _______ _______ _______ _____ _____    ______ ____
ROOT
ATOM      1  C   UNL     1       3.676   5.639  18.318  0.00  0.00    +0.000 C 
ATOM      2  C   UNL     1       3.349   6.947  18.117  0.00  0.00    +0.000 C 
ENDROOT
BRANCH   1   3
ATOM      3  C   UNL     1       2.777   4.819  19.192  0.00  0.00    +0.000 A 
ATOM      4  C   UNL     1       3.086   4.700  20.562  0.00  0.00    +0.000 A 
ATOM      5  C   UNL     1       2.318   3.903  21.420  0.00  0.00    +0.000 A 
ATOM      6  C   UNL     1       1.217   3.214  20.928  0.00  0.00    +0.000 A 
ATOM      7  C   UNL     1       0.899   3.307  19.576  0.00  0.00    +0.000 A 
ATOM      8  C   UNL     1       1.674   4.087  18.694  0.00  0.00    +0.000 A 
ATOM      9  C   UNL     1       1.272   4.128  17.247  0.00  0.00    +0.000 C 
ENDBRANCH   1   3
BRANCH   1  15
ATOM     10  C   UNL     1       6.153   4.949  18.036  0.00  0.00    +0.000 A 
ATOM     11  C   UNL     1       7.191   4.562  17.168  0.00  0.00    +0.000 A 
ATOM     12  C   UNL     1       6.948   4.243  15.841  0.00  0.00    +0.000 A 
ATOM     13  C   UNL     1       5.654   4.336  15.348  0.00  0.00    +0.000 A 
ATOM     14  C   UNL     1       4.616   4.771  16.179  0.00  0.00    +0.000 A 
ATOM     15  C   UNL     1       4.837   5.100  17.534  0.00  0.00    +0.000 A 
BRANCH  10  17
ATOM     16  C   UNL     1       7.727   5.674  19.650  0.00  0.00    +0.000 C 
ATOM     17  O   UNL     1       6.405   5.196  19.366  0.00  0.00    +0.000 OA
ENDBRANCH  10  17
ENDBRANCH   1  15
BRANCH   2  18
ATOM     18  C   UNL     1       2.204   7.653  18.802  0.00  0.00    +0.000 C 
BRANCH  18  19
ATOM     19  C   UNL     1       1.810   9.028  18.221  0.00  0.00    +0.000 C 
BRANCH  19  20
ATOM     20  N   UNL     1       0.610   9.602  18.887  0.00  0.00    +0.000 NA
ATOM     21  C   UNL     1       0.958  10.770  19.712  0.00  0.00    +0.000 C 
ATOM     22  C   UNL     1      -0.270  11.361  20.395  0.00  0.00    +0.000 C 
ATOM     23  C   UNL     1      -1.337  11.745  19.382  0.00  0.00    +0.000 C 
ATOM     24  C   UNL     1      -1.675  10.556  18.479  0.00  0.00    +0.000 C 
ATOM     25  C   UNL     1      -0.399   9.954  17.868  0.00  0.00    +0.000 C 
BRANCH  24  26
ATOM     26  C   UNL     1      -2.621  10.978  17.357  0.00  0.00    +0.000 C 
ATOM     27  O   UNL     1      -3.806  10.676  17.295  0.00  0.00    +0.000 OA
BRANCH  26  28
ATOM     28  O   UNL     1      -2.041  11.759  16.431  0.00  0.00    +0.000 OA
ATOM     29  H   UNL     1      -1.509  12.494  16.787  0.00  0.00    +0.000 HD
ENDBRANCH  26  28
ENDBRANCH  24  26
ENDBRANCH  19  20
ENDBRANCH  18  19
ENDBRANCH   2  18
TORSDOF 8
ENDMDL
MODEL 3
REMARK VINA RESULT:      -8.4      1.776      2.219
REMARK  Name = 
REMARK  10 active torsions:
REMARK  status: ('A' for Active; 'I' for Inactive)
REMARK    1  A    between atoms: C_1  and  O_2
REMARK    2  A    between atoms: O_2  and  C_3
REMARK    3  A    between atoms: C_8  and  C_9
REMARK    4  A    between atoms: C_9  and  C_22
REMARK    5  A    between atoms: C_10  and  C_11
REMARK    6  A    between atoms: C_11  and  C_12
REMARK    7  A    between atoms: C_12  and  N_13
REMARK    8  A    between atoms: C_17  and  C_18
REMARK    9  A    between atoms: C_18  and  O_20
REMARK   10  A    between atoms: C_27  and  C_28
REMARK                            x       y       z     vdW  Elec       q    Type
REMARK                         _______ _______ _______ _____ _____    ______ ____
ROOT
ATOM      1  C   UNL     1       3.729   5.453  18.400  0.00  0.00    +0.000 C 
ATOM      2  C   UNL     1       3.407   6.770  18.251  0.00  0.00    +0.000 C 
ENDROOT
BRANCH   1   3
ATOM      3  C   UNL     1       2.827   4.602  19.240  0.00  0.00    +0.000 A 
ATOM      4  C   UNL     1       3.172   4.372  20.587  0.00  0.00    +0.000 A 
ATOM      5  C   UNL     1       2.402   3.541  21.409  0.00  0.00    +0.000 A 
ATOM      6  C   UNL     1       1.263   2.928  20.905  0.00  0.00    +0.000 A 
ATOM      7  C   UNL     1       0.908   3.131  19.574  0.00  0.00    +0.000 A 
ATOM      8  C   UNL     1       1.684   3.948  18.726  0.00  0.00    +0.000 A 
ATOM      9  C   UNL     1       1.240   4.109  17.300  0.00  0.00    +0.000 C 
ENDBRANCH   1   3
BRANCH   1  15
ATOM     10  C   UNL     1       6.227   4.878  18.052  0.00  0.00    +0.000 A 
ATOM     11  C   UNL     1       7.252   4.508  17.162  0.00  0.00    +0.000 A 
ATOM     12  C   UNL     1       6.979   4.125  15.858  0.00  0.00    +0.000 A 
ATOM     13  C   UNL     1       5.666   4.132  15.411  0.00  0.00    +0.000 A 
ATOM     14  C   UNL     1       4.637   4.548  16.262  0.00  0.00    +0.000 A 
ATOM     15  C   UNL     1       4.888   4.942  17.595  0.00  0.00    +0.000 A 
BRANCH  10  17
ATOM     16  C   UNL     1       7.828   5.717  19.582  0.00  0.00    +0.000 C 
ATOM     17  O   UNL     1       6.512   5.191  19.361  0.00  0.00    +0.000 OA
ENDBRANCH  10  17
ENDBRANCH   1  15
BRANCH   2  18
ATOM     18  C   UNL     1       2.264   7.451  18.964  0.00  0.00    +0.000 C 
BRANCH  18  19
ATOM     19  C   UNL     1       1.865   8.844  18.429  0.00  0.00    +0.000 C 
BRANCH  19  20
ATOM     20  N   UNL     1       0.694   9.413  19.148  0.00  0.00    +0.000 NA
ATOM     21  C   UNL     1       0.910   9.431  20.603  0.00  0.00    +0.000 C 
ATOM     22  C   UNL     1      -0.288  10.015  21.342  0.00  0.00    +0.000 C 
ATOM     23  C   UNL     1      -0.612  11.417  20.853  0.00  0.00    +0.000 C 
ATOM     24  C   UNL     1      -0.789  11.429  19.332  0.00  0.00    +0.000 C 
ATOM     25  C   UNL     1       0.413  10.770  18.637  0.00  0.00    +0.000 C 
BRANCH  24  26
ATOM     26  C   UNL     1      -0.950  12.858  18.816  0.00  0.00    +0.000 C 
ATOM     27  O   UNL     1      -0.976  13.856  19.525  0.00  0.00    +0.000 OA
BRANCH  26  28
ATOM     28  O   UNL     1      -1.031  12.939  17.478  0.00  0.00    +0.000 OA
ATOM     29  H   UNL     1      -1.888  13.256  17.137  0.00  0.00    +0.000 HD
ENDBRANCH  26  28
ENDBRANCH  24  26
ENDBRANCH  19  20
ENDBRANCH  18  19
ENDBRANCH   2  18
TORSDOF 8
ENDMDL
MODEL 4
REMARK VINA RESULT:      -8.2      1.150      1.901
REMARK  Name = 
REMARK  10 active torsions:
REMARK  status: ('A' for Active; 'I' for Inactive)
REMARK    1  A    between atoms: C_1  and  O_2
REMARK    2  A    between atoms: O_2  and  C_3
REMARK    3  A    between atoms: C_8  and  C_9
REMARK    4  A    between atoms: C_9  and  C_22
REMARK    5  A    between atoms: C_10  and  C_11
REMARK    6  A    between atoms: C_11  and  C_12
REMARK    7  A    between atoms: C_12  and  N_13
REMARK    8  A    between atoms: C_17  and  C_18
REMARK    9  A    between atoms: C_18  and  O_20
REMARK   10  A    between atoms: C_27  and  C_28
REMARK                            x       y       z     vdW  Elec       q    Type
REMARK                         _______ _______ _______ _____ _____    ______ ____
ROOT
ATOM      1  C   UNL     1       3.852   5.931  18.381  0.00  0.00    +0.000 C 
ATOM      2  C   UNL     1       3.436   7.124  17.868  0.00  0.00    +0.000 C 
ENDROOT
BRANCH   1   3
ATOM      3  C   UNL     1       2.827   5.051  19.029  0.00  0.00    +0.000 A 
ATOM      4  C   UNL     1       2.516   5.258  20.387  0.00  0.00    +0.000 A 
ATOM      5  C   UNL     1       1.609   4.434  21.065  0.00  0.00    +0.000 A 
ATOM      6  C   UNL     1       0.986   3.389  20.396  0.00  0.00    +0.000 A 
ATOM      7  C   UNL     1       1.287   3.158  19.056  0.00  0.00    +0.000 A 
ATOM      8  C   UNL     1       2.213   3.964  18.364  0.00  0.00    +0.000 A 
ATOM      9  C   UNL     1       2.491   3.644  16.923  0.00  0.00    +0.000 C 
ENDBRANCH   1   3
BRANCH   1  15
ATOM     10  C   UNL     1       5.805   5.149  16.874  0.00  0.00    +0.000 A 
ATOM     11  C   UNL     1       7.128   4.679  16.786  0.00  0.00    +0.000 A 
ATOM     12  C   UNL     1       7.969   4.666  17.889  0.00  0.00    +0.000 A 
ATOM     13  C   UNL     1       7.486   5.101  19.114  0.00  0.00    +0.000 A 
ATOM     14  C   UNL     1       6.158   5.522  19.236  0.00  0.00    +0.000 A 
ATOM     15  C   UNL     1       5.281   5.546  18.130  0.00  0.00    +0.000 A 
BRANCH  10  17
ATOM     16  C   UNL     1       5.498   4.488  14.622  0.00  0.00    +0.000 C 
ATOM     17  O   UNL     1       5.007   5.217  15.755  0.00  0.00    +0.000 OA
ENDBRANCH  10  17
ENDBRANCH   1  15
BRANCH   2  18
ATOM     18  C   UNL     1       2.033   7.665  18.005  0.00  0.00    +0.000 C 
BRANCH  18  19
ATOM     19  C   UNL     1       1.815   9.115  17.522  0.00  0.00    +0.000 C 
BRANCH  19  20
ATOM     20  N   UNL     1       1.177   9.969  18.559  0.00  0.00    +0.000 NA
ATOM     21  C   UNL     1      -0.259  10.153  18.298  0.00  0.00    +0.000 C 
ATOM     22  C   UNL     1      -0.916  11.027  19.360  0.00  0.00    +0.000 C 
ATOM     23  C   UNL     1      -0.715  10.453  20.753  0.00  0.00    +0.000 C 
ATOM     24  C   UNL     1       0.770  10.203  21.024  0.00  0.00    +0.000 C 
ATOM     25  C   UNL     1       1.401   9.376  19.893  0.00  0.00    +0.000 C 
BRANCH  24  26
ATOM     26  C   UNL     1       0.965   9.473  22.352  0.00  0.00    +0.000 C 
ATOM     27  O   UNL     1       0.411   9.778  23.401  0.00  0.00    +0.000 OA
BRANCH  26  28
ATOM     28  O   UNL     1       1.792   8.420  22.270  0.00  0.00    +0.000 OA
ATOM     29  H   UNL     1       1.814   7.850  23.061  0.00  0.00    +0.000 HD
ENDBRANCH  26  28
ENDBRANCH  24  26
ENDBRANCH  19  20
ENDBRANCH  18  19
ENDBRANCH   2  18
TORSDOF 8
ENDMDL
MODEL 5
REMARK VINA RESULT:      -8.1      2.280      3.093
REMARK  Name = 
REMARK  10 active torsions:
REMARK  status: ('A' for Active; 'I' for Inactive)
REMARK    1  A    between atoms: C_1  and  O_2
REMARK    2  A    between atoms: O_2  and  C_3
REMARK    3  A    between atoms: C_8  and  C_9
REMARK    4  A    between atoms: C_9  and  C_22
REMARK    5  A    between atoms: C_10  and  C_11
REMARK    6  A    between atoms: C_11  and  C_12
REMARK    7  A    between atoms: C_12  and  N_13
REMARK    8  A    between atoms: C_17  and  C_18
REMARK    9  A    between atoms: C_18  and  O_20
REMARK   10  A    between atoms: C_27  and  C_28
REMARK                            x       y       z     vdW  Elec       q    Type
REMARK                         _______ _______ _______ _____ _____    ______ ____
ROOT
ATOM      1  C   UNL     1       3.820   5.989  18.313  0.00  0.00    +0.000 C 
ATOM      2  C   UNL     1       3.417   7.183  17.792  0.00  0.00    +0.000 C 
ENDROOT
BRANCH   1   3
ATOM      3  C   UNL     1       2.776   5.100  18.916  0.00  0.00    +0.000 A 
ATOM      4  C   UNL     1       2.373   5.332  20.246  0.00  0.00    +0.000 A 
ATOM      5  C   UNL     1       1.444   4.503  20.886  0.00  0.00    +0.000 A 
ATOM      6  C   UNL     1       0.889   3.427  20.206  0.00  0.00    +0.000 A 
ATOM      7  C   UNL     1       1.280   3.171  18.894  0.00  0.00    +0.000 A 
ATOM      8  C   UNL     1       2.230   3.983  18.242  0.00  0.00    +0.000 A 
ATOM      9  C   UNL     1       2.607   3.635  16.830  0.00  0.00    +0.000 C 
ENDBRANCH   1   3
BRANCH   1  15
ATOM     10  C   UNL     1       5.846   5.286  16.865  0.00  0.00    +0.000 A 
ATOM     11  C   UNL     1       7.170   4.815  16.817  0.00  0.00    +0.000 A 
ATOM     12  C   UNL     1       7.954   4.733  17.958  0.00  0.00    +0.000 A 
ATOM     13  C   UNL     1       7.410   5.098  19.181  0.00  0.00    +0.000 A 
ATOM     14  C   UNL     1       6.078   5.518  19.260  0.00  0.00    +0.000 A 
ATOM     15  C   UNL     1       5.259   5.611  18.113  0.00  0.00    +0.000 A 
BRANCH  10  17
ATOM     16  C   UNL     1       5.517   4.575  14.630  0.00  0.00    +0.000 C 
ATOM     17  O   UNL     1       5.107   5.423  15.712  0.00  0.00    +0.000 OA
ENDBRANCH  10  17
ENDBRANCH   1  15
BRANCH   2  18
ATOM     18  C   UNL     1       2.008   7.717  17.880  0.00  0.00    +0.000 C 
BRANCH  18  19
ATOM     19  C   UNL     1       1.869   9.251  17.977  0.00  0.00    +0.000 C 
BRANCH  19  20
ATOM     20  N   UNL     1       0.650   9.664  18.723  0.00  0.00    +0.000 NA
ATOM     21  C   UNL     1       0.945  10.734  19.689  0.00  0.00    +0.000 C 
ATOM     22  C   UNL     1      -0.303  11.159  20.454  0.00  0.00    +0.000 C 
ATOM     23  C   UNL     1      -1.407  11.608  19.510  0.00  0.00    +0.000 C 
ATOM     24  C   UNL     1      -1.691  10.529  18.463  0.00  0.00    +0.000 C 
ATOM     25  C   UNL     1      -0.394  10.086  17.768  0.00  0.00    +0.000 C 
BRANCH  24  26
ATOM     26  C   UNL     1      -2.678  11.037  17.414  0.00  0.00    +0.000 C 
ATOM     27  O   UNL     1      -3.887  10.841  17.442  0.00  0.00    +0.000 OA
BRANCH  26  28
ATOM     28  O   UNL     1      -2.103  11.766  16.445  0.00  0.00    +0.000 OA
ATOM     29  H   UNL     1      -2.603  11.808  15.609  0.00  0.00    +0.000 HD
ENDBRANCH  26  28
ENDBRANCH  24  26
ENDBRANCH  19  20
ENDBRANCH  18  19
ENDBRANCH   2  18
TORSDOF 8
ENDMDL
MODEL 6
REMARK VINA RESULT:      -8.1      1.515      1.906
REMARK  Name = 
REMARK  10 active torsions:
REMARK  status: ('A' for Active; 'I' for Inactive)
REMARK    1  A    between atoms: C_1  and  O_2
REMARK    2  A    between atoms: O_2  and  C_3
REMARK    3  A    between atoms: C_8  and  C_9
REMARK    4  A    between atoms: C_9  and  C_22
REMARK    5  A    between atoms: C_10  and  C_11
REMARK    6  A    between atoms: C_11  and  C_12
REMARK    7  A    between atoms: C_12  and  N_13
REMARK    8  A    between atoms: C_17  and  C_18
REMARK    9  A    between atoms: C_18  and  O_20
REMARK   10  A    between atoms: C_27  and  C_28
REMARK                            x       y       z     vdW  Elec       q    Type
REMARK                         _______ _______ _______ _____ _____    ______ ____
ROOT
ATOM      1  C   UNL     1       3.661   5.414  18.666  0.00  0.00    +0.000 C 
ATOM      2  C   UNL     1       3.343   6.740  18.696  0.00  0.00    +0.000 C 
ENDROOT
BRANCH   1   3
ATOM      3  C   UNL     1       2.785   4.466  19.426  0.00  0.00    +0.000 A 
ATOM      4  C   UNL     1       3.141   4.123  20.745  0.00  0.00    +0.000 A 
ATOM      5  C   UNL     1       2.395   3.200  21.489  0.00  0.00    +0.000 A 
ATOM      6  C   UNL     1       1.271   2.605  20.932  0.00  0.00    +0.000 A 
ATOM      7  C   UNL     1       0.906   2.920  19.625  0.00  0.00    +0.000 A 
ATOM      8  C   UNL     1       1.658   3.831  18.855  0.00  0.00    +0.000 A 
ATOM      9  C   UNL     1       1.205   4.110  17.450  0.00  0.00    +0.000 C 
ENDBRANCH   1   3
BRANCH   1  15
ATOM     10  C   UNL     1       6.146   4.920  18.142  0.00  0.00    +0.000 A 
ATOM     11  C   UNL     1       7.131   4.659  17.172  0.00  0.00    +0.000 A 
ATOM     12  C   UNL     1       6.798   4.402  15.851  0.00  0.00    +0.000 A 
ATOM     13  C   UNL     1       5.464   4.429  15.470  0.00  0.00    +0.000 A 
ATOM     14  C   UNL     1       4.473   4.741  16.407  0.00  0.00    +0.000 A 
ATOM     15  C   UNL     1       4.785   5.006  17.759  0.00  0.00    +0.000 A 
BRANCH  10  17
ATOM     16  C   UNL     1       7.789   5.684  19.667  0.00  0.00    +0.000 C 
ATOM     17  O   UNL     1       6.492   5.108  19.461  0.00  0.00    +0.000 OA
ENDBRANCH  10  17
ENDBRANCH   1  15
BRANCH   2  18
ATOM     18  C   UNL     1       2.233   7.329  19.533  0.00  0.00    +0.000 C 
BRANCH  18  19
ATOM     19  C   UNL     1       1.774   8.751  19.146  0.00  0.00    +0.000 C 
BRANCH  19  20
ATOM     20  N   UNL     1       0.700   9.263  20.038  0.00  0.00    +0.000 NA
ATOM     21  C   UNL     1       0.705   8.575  21.339  0.00  0.00    +0.000 C 
ATOM     22  C   UNL     1      -0.394   9.098  22.256  0.00  0.00    +0.000 C 
ATOM     23  C   UNL     1      -0.275  10.599  22.466  0.00  0.00    +0.000 C 
ATOM     24  C   UNL     1      -0.225  11.329  21.121  0.00  0.00    +0.000 C 
ATOM     25  C   UNL     1       0.853  10.722  20.209  0.00  0.00    +0.000 C 
BRANCH  24  26
ATOM     26  C   UNL     1       0.062  12.816  21.321  0.00  0.00    +0.000 C 
ATOM     27  O   UNL     1       1.160  13.283  21.595  0.00  0.00    +0.000 OA
BRANCH  26  28
ATOM     28  O   UNL     1      -1.013  13.599  21.136  0.00  0.00    +0.000 OA
ATOM     29  H   UNL     1      -0.871  14.545  21.328  0.00  0.00    +0.000 HD
ENDBRANCH  26  28
ENDBRANCH  24  26
ENDBRANCH  19  20
ENDBRANCH  18  19
ENDBRANCH   2  18
TORSDOF 8
ENDMDL
MODEL 7
REMARK VINA RESULT:      -8.1      0.801      1.100
REMARK  Name = 
REMARK  10 active torsions:
REMARK  status: ('A' for Active; 'I' for Inactive)
REMARK    1  A    between atoms: C_1  and  O_2
REMARK    2  A    between atoms: O_2  and  C_3
REMARK    3  A    between atoms: C_8  and  C_9
REMARK    4  A    between atoms: C_9  and  C_22
REMARK    5  A    between atoms: C_10  and  C_11
REMARK    6  A    between atoms: C_11  and  C_12
REMARK    7  A    between atoms: C_12  and  N_13
REMARK    8  A    between atoms: C_17  and  C_18
REMARK    9  A    between atoms: C_18  and  O_20
REMARK   10  A    between atoms: C_27  and  C_28
REMARK                            x       y       z     vdW  Elec       q    Type
REMARK                         _______ _______ _______ _____ _____    ______ ____
ROOT
ATOM      1  C   UNL     1       3.600   6.062  18.019  0.00  0.00    +0.000 C 
ATOM      2  C   UNL     1       3.272   7.364  17.780  0.00  0.00    +0.000 C 
ENDROOT
BRANCH   1   3
ATOM      3  C   UNL     1       2.632   5.228  18.802  0.00  0.00    +0.000 A 
ATOM      4  C   UNL     1       2.347   5.590  20.133  0.00  0.00    +0.000 A 
ATOM      5  C   UNL     1       1.496   4.821  20.935  0.00  0.00    +0.000 A 
ATOM      6  C   UNL     1       0.903   3.676  20.420  0.00  0.00    +0.000 A 
ATOM      7  C   UNL     1       1.178   3.292  19.110  0.00  0.00    +0.000 A 
ATOM      8  C   UNL     1       2.050   4.043  18.296  0.00  0.00    +0.000 A 
ATOM      9  C   UNL     1       2.305   3.557  16.897  0.00  0.00    +0.000 C 
ENDBRANCH   1   3
BRANCH   1  15
ATOM     10  C   UNL     1       5.883   4.844  18.021  0.00  0.00    +0.000 A 
ATOM     11  C   UNL     1       7.064   4.525  17.326  0.00  0.00    +0.000 A 
ATOM     12  C   UNL     1       7.211   4.805  15.976  0.00  0.00    +0.000 A 
ATOM     13  C   UNL     1       6.180   5.442  15.300  0.00  0.00    +0.000 A 
ATOM     14  C   UNL     1       5.019   5.817  15.984  0.00  0.00    +0.000 A 
ATOM     15  C   UNL     1       4.843   5.542  17.358  0.00  0.00    +0.000 A 
BRANCH  10  17
ATOM     16  C   UNL     1       5.169   3.196  19.564  0.00  0.00    +0.000 C 
ATOM     17  O   UNL     1       5.730   4.497  19.344  0.00  0.00    +0.000 OA
ENDBRANCH  10  17
ENDBRANCH   1  15
BRANCH   2  18
ATOM     18  C   UNL     1       2.051   8.050  18.343  0.00  0.00    +0.000 C 
BRANCH  18  19
ATOM     19  C   UNL     1       1.827   9.510  17.895  0.00  0.00    +0.000 C 
BRANCH  19  20
ATOM     20  N   UNL     1       1.248  10.353  18.976  0.00  0.00    +0.000 NA
ATOM     21  C   UNL     1       0.061  11.087  18.511  0.00  0.00    +0.000 C 
ATOM     22  C   UNL     1      -0.535  11.950  19.617  0.00  0.00    +0.000 C 
ATOM     23  C   UNL     1      -0.889  11.120  20.840  0.00  0.00    +0.000 C 
ATOM     24  C   UNL     1       0.321  10.307  21.307  0.00  0.00    +0.000 C 
ATOM     25  C   UNL     1       0.925   9.507  20.143  0.00  0.00    +0.000 C 
BRANCH  24  26
ATOM     26  C   UNL     1      -0.070   9.347  22.430  0.00  0.00    +0.000 C 
ATOM     27  O   UNL     1      -0.749   8.340  22.279  0.00  0.00    +0.000 OA
BRANCH  26  28
ATOM     28  O   UNL     1       0.431   9.689  23.627  0.00  0.00    +0.000 OA
ATOM     29  H   UNL     1       1.144  10.353  23.600  0.00  0.00    +0.000 HD
ENDBRANCH  26  28
ENDBRANCH  24  26
ENDBRANCH  19  20
ENDBRANCH  18  19
ENDBRANCH   2  18
TORSDOF 8
ENDMDL
MODEL 8
REMARK VINA RESULT:      -8.0      2.117      2.471
REMARK  Name = 
REMARK  10 active torsions:
REMARK  status: ('A' for Active; 'I' for Inactive)
REMARK    1  A    between atoms: C_1  and  O_2
REMARK    2  A    between atoms: O_2  and  C_3
REMARK    3  A    between atoms: C_8  and  C_9
REMARK    4  A    between atoms: C_9  and  C_22
REMARK    5  A    between atoms: C_10  and  C_11
REMARK    6  A    between atoms: C_11  and  C_12
REMARK    7  A    between atoms: C_12  and  N_13
REMARK    8  A    between atoms: C_17  and  C_18
REMARK    9  A    between atoms: C_18  and  O_20
REMARK   10  A    between atoms: C_27  and  C_28
REMARK                            x       y       z     vdW  Elec       q    Type
REMARK                         _______ _______ _______ _____ _____    ______ ____
ROOT
ATOM      1  C   UNL     1       3.753   5.600  18.358  0.00  0.00    +0.000 C 
ATOM      2  C   UNL     1       3.480   6.925  18.192  0.00  0.00    +0.000 C 
ENDROOT
BRANCH   1   3
ATOM      3  C   UNL     1       2.811   4.790  19.196  0.00  0.00    +0.000 A 
ATOM      4  C   UNL     1       3.105   4.606  20.561  0.00  0.00    +0.000 A 
ATOM      5  C   UNL     1       2.295   3.814  21.385  0.00  0.00    +0.000 A 
ATOM      6  C   UNL     1       1.168   3.195  20.862  0.00  0.00    +0.000 A 
ATOM      7  C   UNL     1       0.863   3.353  19.512  0.00  0.00    +0.000 A 
ATOM      8  C   UNL     1       1.680   4.129  18.664  0.00  0.00    +0.000 A 
ATOM      9  C   UNL     1       1.290   4.243  17.218  0.00  0.00    +0.000 C 
ENDBRANCH   1   3
BRANCH   1  15
ATOM     10  C   UNL     1       6.229   4.913  18.056  0.00  0.00    +0.000 A 
ATOM     11  C   UNL     1       7.254   4.501  17.185  0.00  0.00    +0.000 A 
ATOM     12  C   UNL     1       6.990   4.135  15.874  0.00  0.00    +0.000 A 
ATOM     13  C   UNL     1       5.687   4.202  15.402  0.00  0.00    +0.000 A 
ATOM     14  C   UNL     1       4.661   4.661  16.235  0.00  0.00    +0.000 A 
ATOM     15  C   UNL     1       4.903   5.040  17.574  0.00  0.00    +0.000 A 
BRANCH  10  17
ATOM     16  C   UNL     1       7.806   5.758  19.608  0.00  0.00    +0.000 C 
ATOM     17  O   UNL     1       6.503   5.209  19.373  0.00  0.00    +0.000 OA
ENDBRANCH  10  17
ENDBRANCH   1  15
BRANCH   2  18
ATOM     18  C   UNL     1       2.353   7.654  18.883  0.00  0.00    +0.000 C 
BRANCH  18  19
ATOM     19  C   UNL     1       1.408   8.465  17.969  0.00  0.00    +0.000 C 
BRANCH  19  20
ATOM     20  N   UNL     1       0.880   9.683  18.638  0.00  0.00    +0.000 NA
ATOM     21  C   UNL     1       0.765   9.494  20.093  0.00  0.00    +0.000 C 
ATOM     22  C   UNL     1       0.225  10.742  20.781  0.00  0.00    +0.000 C 
ATOM     23  C   UNL     1       1.089  11.957  20.486  0.00  0.00    +0.000 C 
ATOM     24  C   UNL     1       1.264  12.140  18.976  0.00  0.00    +0.000 C 
ATOM     25  C   UNL     1       1.746  10.836  18.320  0.00  0.00    +0.000 C 
BRANCH  24  26
ATOM     26  C   UNL     1       2.264  13.256  18.677  0.00  0.00    +0.000 C 
ATOM     27  O   UNL     1       2.733  14.013  19.516  0.00  0.00    +0.000 OA
BRANCH  26  28
ATOM     28  O   UNL     1       2.622  13.322  17.385  0.00  0.00    +0.000 OA
ATOM     29  H   UNL     1       1.880  13.343  16.753  0.00  0.00    +0.000 HD
ENDBRANCH  26  28
ENDBRANCH  24  26
ENDBRANCH  19  20
ENDBRANCH  18  19
ENDBRANCH   2  18
TORSDOF 8
ENDMDL
MODEL 9
REMARK VINA RESULT:      -8.0      0.956      1.127
REMARK  Name = 
REMARK  10 active torsions:
REMARK  status: ('A' for Active; 'I' for Inactive)
REMARK    1  A    between atoms: C_1  and  O_2
REMARK    2  A    between atoms: O_2  and  C_3
REMARK    3  A    between atoms: C_8  and  C_9
REMARK    4  A    between atoms: C_9  and  C_22
REMARK    5  A    between atoms: C_10  and  C_11
REMARK    6  A    between atoms: C_11  and  C_12
REMARK    7  A    between atoms: C_12  and  N_13
REMARK    8  A    between atoms: C_17  and  C_18
REMARK    9  A    between atoms: C_18  and  O_20
REMARK   10  A    between atoms: C_27  and  C_28
REMARK                            x       y       z     vdW  Elec       q    Type
REMARK                         _______ _______ _______ _____ _____    ______ ____
ROOT
ATOM      1  C   UNL     1       3.618   5.995  18.016  0.00  0.00    +0.000 C 
ATOM      2  C   UNL     1       3.240   7.285  17.787  0.00  0.00    +0.000 C 
ENDROOT
BRANCH   1   3
ATOM      3  C   UNL     1       2.800   5.185  18.976  0.00  0.00    +0.000 A 
ATOM      4  C   UNL     1       3.179   5.154  20.332  0.00  0.00    +0.000 A 
ATOM      5  C   UNL     1       2.490   4.373  21.268  0.00  0.00    +0.000 A 
ATOM      6  C   UNL     1       1.400   3.611  20.869  0.00  0.00    +0.000 A 
ATOM      7  C   UNL     1       1.014   3.617  19.531  0.00  0.00    +0.000 A 
ATOM      8  C   UNL     1       1.709   4.381  18.572  0.00  0.00    +0.000 A 
ATOM      9  C   UNL     1       1.237   4.326  17.147  0.00  0.00    +0.000 C 
ENDBRANCH   1   3
BRANCH   1  15
ATOM     10  C   UNL     1       5.968   6.129  16.943  0.00  0.00    +0.000 A 
ATOM     11  C   UNL     1       6.895   5.589  16.032  0.00  0.00    +0.000 A 
ATOM     12  C   UNL     1       6.678   4.368  15.413  0.00  0.00    +0.000 A 
ATOM     13  C   UNL     1       5.507   3.673  15.676  0.00  0.00    +0.000 A 
ATOM     14  C   UNL     1       4.547   4.216  16.537  0.00  0.00    +0.000 A 
ATOM     15  C   UNL     1       4.743   5.458  17.181  0.00  0.00    +0.000 A 
BRANCH  10  17
ATOM     16  C   UNL     1       7.610   7.708  17.588  0.00  0.00    +0.000 C 
ATOM     17  O   UNL     1       6.232   7.310  17.597  0.00  0.00    +0.000 OA
ENDBRANCH  10  17
ENDBRANCH   1  15
BRANCH   2  18
ATOM     18  C   UNL     1       2.119   7.985  18.517  0.00  0.00    +0.000 C 
BRANCH  18  19
ATOM     19  C   UNL     1       1.731   9.381  17.985  0.00  0.00    +0.000 C 
BRANCH  19  20
ATOM     20  N   UNL     1       1.179  10.261  19.049  0.00  0.00    +0.000 NA
ATOM     21  C   UNL     1      -0.006  10.997  18.580  0.00  0.00    +0.000 C 
ATOM     22  C   UNL     1      -0.575  11.898  19.669  0.00  0.00    +0.000 C 
ATOM     23  C   UNL     1      -0.923  11.106  20.919  0.00  0.00    +0.000 C 
ATOM     24  C   UNL     1       0.283  10.291  21.393  0.00  0.00    +0.000 C 
ATOM     25  C   UNL     1       0.860   9.451  20.243  0.00  0.00    +0.000 C 
BRANCH  24  26
ATOM     26  C   UNL     1      -0.106   9.368  22.547  0.00  0.00    +0.000 C 
ATOM     27  O   UNL     1      -0.816   8.376  22.436  0.00  0.00    +0.000 OA
BRANCH  26  28
ATOM     28  O   UNL     1       0.435   9.722  23.723  0.00  0.00    +0.000 OA
ATOM     29  H   UNL     1       0.953   9.025  24.164  0.00  0.00    +0.000 HD
ENDBRANCH  26  28
ENDBRANCH  24  26
ENDBRANCH  19  20
ENDBRANCH  18  19
ENDBRANCH   2  18
TORSDOF 8
ENDMDL
