MODEL 1
REMARK VINA RESULT:      -7.8      0.000      0.000
REMARK  Name = 
REMARK  6 active torsions:
REMARK  status: ('A' for Active; 'I' for Inactive)
REMARK    1  A    between atoms: C_1  and  O_2
REMARK    2  A    between atoms: O_2  and  C_3
REMARK    3  A    between atoms: C_6  and  C_7
REMARK    4  A    between atoms: C_7  and  N_8
REMARK    5  A    between atoms: C_13  and  C_14
REMARK    6  A    between atoms: C_14  and  N_15
REMARK                            x       y       z     vdW  Elec       q    Type
REMARK                         _______ _______ _______ _____ _____    ______ ____
ROOT
ATOM      1  N   UNL     1       6.213   4.798  16.855  0.00  0.00    +0.000 NA
ATOM      2  C   UNL     1       6.642   4.559  18.238  0.00  0.00    +0.000 C 
ATOM      3  C   UNL     1       7.827   5.419  18.704  0.00  0.00    +0.000 C 
ATOM      4  N   UNL     1       7.727   6.780  18.245  0.00  0.00    +0.000 N 
ATOM      5  C   UNL     1       8.373   7.874  18.727  0.00  0.00    +0.000 A 
ATOM      6  C   UNL     1       7.976   8.919  17.912  0.00  0.00    +0.000 A 
ATOM      7  N   UNL     1       7.084   8.458  16.961  0.00  0.00    +0.000 NA
ATOM      8  C   UNL     1       6.948   7.166  17.189  0.00  0.00    +0.000 A 
ATOM      9  C   UNL     1       6.022   6.216  16.504  0.00  0.00    +0.000 C 
ENDROOT
BRANCH   1  10
ATOM     10  C   UNL     1       5.062   3.971  16.443  0.00  0.00    +0.000 C 
BRANCH  10  14
ATOM     11  C   UNL     1       1.875   3.444  19.359  0.00  0.00    +0.000 A 
ATOM     12  C   UNL     1       2.734   2.387  19.052  0.00  0.00    +0.000 A 
ATOM     13  C   UNL     1       3.764   2.557  18.122  0.00  0.00    +0.000 A 
ATOM     14  C   UNL     1       3.940   3.778  17.455  0.00  0.00    +0.000 A 
ATOM     15  C   UNL     1       3.058   4.827  17.757  0.00  0.00    +0.000 A 
ATOM     16  C   UNL     1       2.034   4.661  18.699  0.00  0.00    +0.000 A 
BRANCH  11  18
ATOM     17  C   UNL     1       1.381   2.733  21.557  0.00  0.00    +0.000 C 
ATOM     18  O   UNL     1       0.910   3.169  20.284  0.00  0.00    +0.000 OA
ENDBRANCH  11  18
ENDBRANCH  10  14
ENDBRANCH   1  10
BRANCH   6  19
ATOM     19  C   UNL     1       8.358  10.369  17.952  0.00  0.00    +0.000 C 
BRANCH  19  20
ATOM     20  N   UNL     1       9.579  10.600  18.756  0.00  0.00    +0.000 NA
ATOM     21  C   UNL     1      10.618  11.276  17.958  0.00  0.00    +0.000 C 
ATOM     22  C   UNL     1      11.880  11.530  18.787  0.00  0.00    +0.000 C 
ATOM     23  C   UNL     1      11.567  12.339  20.039  0.00  0.00    +0.000 C 
ATOM     24  C   UNL     1      10.449  11.668  20.827  0.00  0.00    +0.000 C 
ATOM     25  C   UNL     1       9.230  11.404  19.940  0.00  0.00    +0.000 C 
ENDBRANCH  19  20
ENDBRANCH   6  19
TORSDOF 5
ENDMDL
MODEL 2
REMARK VINA RESULT:      -7.4      0.507      1.085
REMARK  Name = 
REMARK  6 active torsions:
REMARK  status: ('A' for Active; 'I' for Inactive)
REMARK    1  A    between atoms: C_1  and  O_2
REMARK    2  A    between atoms: O_2  and  C_3
REMARK    3  A    between atoms: C_6  and  C_7
REMARK    4  A    between atoms: C_7  and  N_8
REMARK    5  A    between atoms: C_13  and  C_14
REMARK    6  A    between atoms: C_14  and  N_15
REMARK                            x       y       z     vdW  Elec       q    Type
REMARK                         _______ _______ _______ _____ _____    ______ ____
ROOT
ATOM      1  N   UNL     1       6.635   4.750  16.795  0.00  0.00    +0.000 NA
ATOM      2  C   UNL     1       6.881   4.551  18.228  0.00  0.00    +0.000 C 
ATOM      3  C   UNL     1       7.963   5.461  18.829  0.00  0.00    +0.000 C 
ATOM      4  N   UNL     1       7.880   6.810  18.331  0.00  0.00    +0.000 N 
ATOM      5  C   UNL     1       8.418   7.935  18.870  0.00  0.00    +0.000 A 
ATOM      6  C   UNL     1       8.100   8.950  17.986  0.00  0.00    +0.000 A 
ATOM      7  N   UNL     1       7.360   8.440  16.935  0.00  0.00    +0.000 NA
ATOM      8  C   UNL     1       7.238   7.148  17.171  0.00  0.00    +0.000 A 
ATOM      9  C   UNL     1       6.445   6.153  16.390  0.00  0.00    +0.000 C 
ENDROOT
BRANCH   1  10
ATOM     10  C   UNL     1       5.577   3.874  16.252  0.00  0.00    +0.000 C 
BRANCH  10  14
ATOM     11  C   UNL     1       1.995   3.277  18.648  0.00  0.00    +0.000 A 
ATOM     12  C   UNL     1       2.326   4.549  18.176  0.00  0.00    +0.000 A 
ATOM     13  C   UNL     1       3.472   4.741  17.399  0.00  0.00    +0.000 A 
ATOM     14  C   UNL     1       4.329   3.672  17.101  0.00  0.00    +0.000 A 
ATOM     15  C   UNL     1       3.997   2.402  17.598  0.00  0.00    +0.000 A 
ATOM     16  C   UNL     1       2.842   2.208  18.366  0.00  0.00    +0.000 A 
BRANCH  11  18
ATOM     17  C   UNL     1       0.920   3.795  20.687  0.00  0.00    +0.000 C 
ATOM     18  O   UNL     1       0.853   3.204  19.392  0.00  0.00    +0.000 OA
ENDBRANCH  11  18
ENDBRANCH  10  14
ENDBRANCH   1  10
BRANCH   6  19
ATOM     19  C   UNL     1       8.424  10.413  18.045  0.00  0.00    +0.000 C 
BRANCH  19  20
ATOM     20  N   UNL     1       9.655  10.679  18.822  0.00  0.00    +0.000 NA
ATOM     21  C   UNL     1      10.675  11.340  17.988  0.00  0.00    +0.000 C 
ATOM     22  C   UNL     1      11.947  11.631  18.790  0.00  0.00    +0.000 C 
ATOM     23  C   UNL     1      11.646  12.474  20.022  0.00  0.00    +0.000 C 
ATOM     24  C   UNL     1      10.546  11.817  20.847  0.00  0.00    +0.000 C 
ATOM     25  C   UNL     1       9.316  11.516  19.987  0.00  0.00    +0.000 C 
ENDBRANCH  19  20
ENDBRANCH   6  19
TORSDOF 5
ENDMDL
MODEL 3
REMARK VINA RESULT:      -7.2      5.132      8.018
REMARK  Name = 
REMARK  6 active torsions:
REMARK  status: ('A' for Active; 'I' for Inactive)
REMARK    1  A    between atoms: C_1  and  O_2
REMARK    2  A    between atoms: O_2  and  C_3
REMARK    3  A    between atoms: C_6  and  C_7
REMARK    4  A    between atoms: C_7  and  N_8
REMARK    5  A    between atoms: C_13  and  C_14
REMARK    6  A    between atoms: C_14  and  N_15
REMARK                            x       y       z     vdW  Elec       q    Type
REMARK                         _______ _______ _______ _____ _____    ______ ____
ROOT
ATOM      1  N   UNL     1       3.492   4.808  18.854  0.00  0.00    +0.000 NA
ATOM      2  C   UNL     1       2.473   4.308  19.784  0.00  0.00    +0.000 C 
ATOM      3  C   UNL     1       2.016   5.320  20.845  0.00  0.00    +0.000 C 
ATOM      4  N   UNL     1       1.856   6.645  20.303  0.00  0.00    +0.000 N 
ATOM      5  C   UNL     1       1.158   7.684  20.830  0.00  0.00    +0.000 A 
ATOM      6  C   UNL     1       1.364   8.739  19.958  0.00  0.00    +0.000 A 
ATOM      7  N   UNL     1       2.164   8.328  18.908  0.00  0.00    +0.000 NA
ATOM      8  C   UNL     1       2.441   7.060  19.138  0.00  0.00    +0.000 A 
ATOM      9  C   UNL     1       3.192   6.119  18.255  0.00  0.00    +0.000 C 
ENDROOT
BRANCH   1  10
ATOM     10  C   UNL     1       3.896   3.818  17.834  0.00  0.00    +0.000 C 
BRANCH  10  14
ATOM     11  C   UNL     1       7.004   4.957  15.011  0.00  0.00    +0.000 A 
ATOM     12  C   UNL     1       7.267   4.941  16.383  0.00  0.00    +0.000 A 
ATOM     13  C   UNL     1       6.271   4.567  17.291  0.00  0.00    +0.000 A 
ATOM     14  C   UNL     1       4.983   4.230  16.851  0.00  0.00    +0.000 A 
ATOM     15  C   UNL     1       4.726   4.269  15.471  0.00  0.00    +0.000 A 
ATOM     16  C   UNL     1       5.727   4.632  14.561  0.00  0.00    +0.000 A 
BRANCH  11  18
ATOM     17  C   UNL     1       7.832   5.211  12.813  0.00  0.00    +0.000 C 
ATOM     18  O   UNL     1       8.049   5.332  14.217  0.00  0.00    +0.000 OA
ENDBRANCH  11  18
ENDBRANCH  10  14
ENDBRANCH   1  10
BRANCH   6  19
ATOM     19  C   UNL     1       0.849  10.147  20.013  0.00  0.00    +0.000 C 
BRANCH  19  20
ATOM     20  N   UNL     1      -0.510  10.264  19.436  0.00  0.00    +0.000 NA
ATOM     21  C   UNL     1      -1.079  11.600  19.691  0.00  0.00    +0.000 C 
ATOM     22  C   UNL     1      -2.479  11.732  19.085  0.00  0.00    +0.000 C 
ATOM     23  C   UNL     1      -2.467  11.440  17.591  0.00  0.00    +0.000 C 
ATOM     24  C   UNL     1      -1.821  10.085  17.330  0.00  0.00    +0.000 C 
ATOM     25  C   UNL     1      -0.442   9.996  17.989  0.00  0.00    +0.000 C 
ENDBRANCH  19  20
ENDBRANCH   6  19
TORSDOF 5
ENDMDL
MODEL 4
REMARK VINA RESULT:      -7.1      5.059      7.995
REMARK  Name = 
REMARK  6 active torsions:
REMARK  status: ('A' for Active; 'I' for Inactive)
REMARK    1  A    between atoms: C_1  and  O_2
REMARK    2  A    between atoms: O_2  and  C_3
REMARK    3  A    between atoms: C_6  and  C_7
REMARK    4  A    between atoms: C_7  and  N_8
REMARK    5  A    between atoms: C_13  and  C_14
REMARK    6  A    between atoms: C_14  and  N_15
REMARK                            x       y       z     vdW  Elec       q    Type
REMARK                         _______ _______ _______ _____ _____    ______ ____
ROOT
ATOM      1  N   UNL     1       3.437   4.644  19.273  0.00  0.00    +0.000 NA
ATOM      2  C   UNL     1       2.292   4.183  20.068  0.00  0.00    +0.000 C 
ATOM      3  C   UNL     1       1.750   5.211  21.073  0.00  0.00    +0.000 C 
ATOM      4  N   UNL     1       1.711   6.542  20.526  0.00  0.00    +0.000 N 
ATOM      5  C   UNL     1       0.996   7.608  20.971  0.00  0.00    +0.000 A 
ATOM      6  C   UNL     1       1.350   8.656  20.139  0.00  0.00    +0.000 A 
ATOM      7  N   UNL     1       2.256   8.216  19.191  0.00  0.00    +0.000 NA
ATOM      8  C   UNL     1       2.451   6.936  19.444  0.00  0.00    +0.000 A 
ATOM      9  C   UNL     1       3.265   5.968  18.652  0.00  0.00    +0.000 C 
ENDROOT
BRANCH   1  10
ATOM     10  C   UNL     1       3.922   3.641  18.303  0.00  0.00    +0.000 C 
BRANCH  10  14
ATOM     11  C   UNL     1       7.023   4.925  15.534  0.00  0.00    +0.000 A 
ATOM     12  C   UNL     1       5.767   4.540  15.060  0.00  0.00    +0.000 A 
ATOM     13  C   UNL     1       4.767   4.136  15.949  0.00  0.00    +0.000 A 
ATOM     14  C   UNL     1       5.009   4.078  17.329  0.00  0.00    +0.000 A 
ATOM     15  C   UNL     1       6.281   4.448  17.792  0.00  0.00    +0.000 A 
ATOM     16  C   UNL     1       7.279   4.865  16.902  0.00  0.00    +0.000 A 
BRANCH  11  18
ATOM     17  C   UNL     1       7.520   5.085  13.230  0.00  0.00    +0.000 C 
ATOM     18  O   UNL     1       7.921   5.307  14.580  0.00  0.00    +0.000 OA
ENDBRANCH  11  18
ENDBRANCH  10  14
ENDBRANCH   1  10
BRANCH   6  19
ATOM     19  C   UNL     1       0.889  10.083  20.141  0.00  0.00    +0.000 C 
BRANCH  19  20
ATOM     20  N   UNL     1      -0.483  10.225  19.605  0.00  0.00    +0.000 NA
ATOM     21  C   UNL     1      -1.070  11.522  19.988  0.00  0.00    +0.000 C 
ATOM     22  C   UNL     1      -2.485  11.681  19.425  0.00  0.00    +0.000 C 
ATOM     23  C   UNL     1      -2.501  11.522  17.911  0.00  0.00    +0.000 C 
ATOM     24  C   UNL     1      -1.836  10.208  17.518  0.00  0.00    +0.000 C 
ATOM     25  C   UNL     1      -0.443  10.087  18.138  0.00  0.00    +0.000 C 
ENDBRANCH  19  20
ENDBRANCH   6  19
TORSDOF 5
ENDMDL
MODEL 5
REMARK VINA RESULT:      -7.1      5.161      7.628
REMARK  Name = 
REMARK  6 active torsions:
REMARK  status: ('A' for Active; 'I' for Inactive)
REMARK    1  A    between atoms: C_1  and  O_2
REMARK    2  A    between atoms: O_2  and  C_3
REMARK    3  A    between atoms: C_6  and  C_7
REMARK    4  A    between atoms: C_7  and  N_8
REMARK    5  A    between atoms: C_13  and  C_14
REMARK    6  A    between atoms: C_14  and  N_15
REMARK                            x       y       z     vdW  Elec       q    Type
REMARK                         _______ _______ _______ _____ _____    ______ ____
ROOT
ATOM      1  N   UNL     1       3.339   4.531  18.738  0.00  0.00    +0.000 NA
ATOM      2  C   UNL     1       2.331   3.916  19.610  0.00  0.00    +0.000 C 
ATOM      3  C   UNL     1       1.948   4.752  20.841  0.00  0.00    +0.000 C 
ATOM      4  N   UNL     1       1.823   6.153  20.533  0.00  0.00    +0.000 N 
ATOM      5  C   UNL     1       1.183   7.112  21.251  0.00  0.00    +0.000 A 
ATOM      6  C   UNL     1       1.402   8.291  20.559  0.00  0.00    +0.000 A 
ATOM      7  N   UNL     1       2.152   8.035  19.425  0.00  0.00    +0.000 NA
ATOM      8  C   UNL     1       2.387   6.737  19.432  0.00  0.00    +0.000 A 
ATOM      9  C   UNL     1       3.072   5.933  18.377  0.00  0.00    +0.000 C 
ENDROOT
BRANCH   1  10
ATOM     10  C   UNL     1       3.672   3.713  17.554  0.00  0.00    +0.000 C 
BRANCH  10  14
ATOM     11  C   UNL     1       7.064   5.009  15.157  0.00  0.00    +0.000 A 
ATOM     12  C   UNL     1       5.841   4.713  14.550  0.00  0.00    +0.000 A 
ATOM     13  C   UNL     1       4.748   4.305  15.320  0.00  0.00    +0.000 A 
ATOM     14  C   UNL     1       4.860   4.154  16.709  0.00  0.00    +0.000 A 
ATOM     15  C   UNL     1       6.099   4.435  17.305  0.00  0.00    +0.000 A 
ATOM     16  C   UNL     1       7.191   4.856  16.535  0.00  0.00    +0.000 A 
BRANCH  11  18
ATOM     17  C   UNL     1       7.823   5.169  12.926  0.00  0.00    +0.000 C 
ATOM     18  O   UNL     1       8.060   5.403  14.311  0.00  0.00    +0.000 OA
ENDBRANCH  11  18
ENDBRANCH  10  14
ENDBRANCH   1  10
BRANCH   6  19
ATOM     19  C   UNL     1       0.944   9.685  20.866  0.00  0.00    +0.000 C 
BRANCH  19  20
ATOM     20  N   UNL     1       0.490  10.401  19.652  0.00  0.00    +0.000 NA
ATOM     21  C   UNL     1      -0.929  10.115  19.370  0.00  0.00    +0.000 C 
ATOM     22  C   UNL     1      -1.409  10.863  18.123  0.00  0.00    +0.000 C 
ATOM     23  C   UNL     1      -1.190  12.363  18.257  0.00  0.00    +0.000 C 
ATOM     24  C   UNL     1       0.264  12.649  18.611  0.00  0.00    +0.000 C 
ATOM     25  C   UNL     1       0.700  11.847  19.840  0.00  0.00    +0.000 C 
ENDBRANCH  19  20
ENDBRANCH   6  19
TORSDOF 5
ENDMDL
MODEL 6
REMARK VINA RESULT:      -7.0      5.526      8.581
REMARK  Name = 
REMARK  6 active torsions:
REMARK  status: ('A' for Active; 'I' for Inactive)
REMARK    1  A    between atoms: C_1  and  O_2
REMARK    2  A    between atoms: O_2  and  C_3
REMARK    3  A    between atoms: C_6  and  C_7
REMARK    4  A    between atoms: C_7  and  N_8
REMARK    5  A    between atoms: C_13  and  C_14
REMARK    6  A    between atoms: C_14  and  N_15
REMARK                            x       y       z     vdW  Elec       q    Type
REMARK                         _______ _______ _______ _____ _____    ______ ____
ROOT
ATOM      1  N   UNL     1       3.390   6.031  19.117  0.00  0.00    +0.000 NA
ATOM      2  C   UNL     1       2.519   5.779  20.271  0.00  0.00    +0.000 C 
ATOM      3  C   UNL     1       1.975   7.042  20.956  0.00  0.00    +0.000 C 
ATOM      4  N   UNL     1       1.578   8.050  20.007  0.00  0.00    +0.000 N 
ATOM      5  C   UNL     1       0.760   9.115  20.212  0.00  0.00    +0.000 A 
ATOM      6  C   UNL     1       0.746   9.800  19.010  0.00  0.00    +0.000 A 
ATOM      7  N   UNL     1       1.536   9.139  18.086  0.00  0.00    +0.000 NA
ATOM      8  C   UNL     1       2.020   8.085  18.713  0.00  0.00    +0.000 A 
ATOM      9  C   UNL     1       2.854   6.989  18.135  0.00  0.00    +0.000 C 
ENDROOT
BRANCH   1  10
ATOM     10  C   UNL     1       3.881   4.798  18.469  0.00  0.00    +0.000 C 
BRANCH  10  14
ATOM     11  C   UNL     1       6.863   5.201  15.326  0.00  0.00    +0.000 A 
ATOM     12  C   UNL     1       6.999   5.906  16.524  0.00  0.00    +0.000 A 
ATOM     13  C   UNL     1       6.047   5.770  17.539  0.00  0.00    +0.000 A 
ATOM     14  C   UNL     1       4.921   4.952  17.367  0.00  0.00    +0.000 A 
ATOM     15  C   UNL     1       4.785   4.265  16.150  0.00  0.00    +0.000 A 
ATOM     16  C   UNL     1       5.746   4.391  15.139  0.00  0.00    +0.000 A 
BRANCH  11  18
ATOM     17  C   UNL     1       7.560   4.981  13.080  0.00  0.00    +0.000 C 
ATOM     18  O   UNL     1       7.853   5.404  14.409  0.00  0.00    +0.000 OA
ENDBRANCH  11  18
ENDBRANCH  10  14
ENDBRANCH   1  10
BRANCH   6  19
ATOM     19  C   UNL     1       0.022  11.056  18.626  0.00  0.00    +0.000 C 
BRANCH  19  20
ATOM     20  N   UNL     1      -1.447  10.871  18.620  0.00  0.00    +0.000 NA
ATOM     21  C   UNL     1      -2.142  12.147  18.863  0.00  0.00    +0.000 C 
ATOM     22  C   UNL     1      -3.663  11.966  18.844  0.00  0.00    +0.000 C 
ATOM     23  C   UNL     1      -4.131  11.352  17.531  0.00  0.00    +0.000 C 
ATOM     24  C   UNL     1      -3.364  10.065  17.254  0.00  0.00    +0.000 C 
ATOM     25  C   UNL     1      -1.853  10.298  17.324  0.00  0.00    +0.000 C 
ENDBRANCH  19  20
ENDBRANCH   6  19
TORSDOF 5
ENDMDL
MODEL 7
REMARK VINA RESULT:      -6.9      5.536      8.173
REMARK  Name = 
REMARK  6 active torsions:
REMARK  status: ('A' for Active; 'I' for Inactive)
REMARK    1  A    between atoms: C_1  and  O_2
REMARK    2  A    between atoms: O_2  and  C_3
REMARK    3  A    between atoms: C_6  and  C_7
REMARK    4  A    between atoms: C_7  and  N_8
REMARK    5  A    between atoms: C_13  and  C_14
REMARK    6  A    between atoms: C_14  and  N_15
REMARK                            x       y       z     vdW  Elec       q    Type
REMARK                         _______ _______ _______ _____ _____    ______ ____
ROOT
ATOM      1  N   UNL     1       1.066   8.990  19.198  0.00  0.00    +0.000 NA
ATOM      2  C   UNL     1       1.213   8.552  20.591  0.00  0.00    +0.000 C 
ATOM      3  C   UNL     1       1.541   7.062  20.767  0.00  0.00    +0.000 C 
ATOM      4  N   UNL     1       2.499   6.595  19.799  0.00  0.00    +0.000 N 
ATOM      5  C   UNL     1       3.267   5.475  19.856  0.00  0.00    +0.000 A 
ATOM      6  C   UNL     1       3.969   5.456  18.664  0.00  0.00    +0.000 A 
ATOM      7  N   UNL     1       3.640   6.566  17.908  0.00  0.00    +0.000 NA
ATOM      8  C   UNL     1       2.756   7.238  18.619  0.00  0.00    +0.000 A 
ATOM      9  C   UNL     1       2.153   8.566  18.299  0.00  0.00    +0.000 C 
ENDROOT
BRANCH   1  10
ATOM     10  C   UNL     1       0.770  10.430  19.060  0.00  0.00    +0.000 C 
BRANCH  10  14
ATOM     11  C   UNL     1      -3.379  11.547  18.382  0.00  0.00    +0.000 A 
ATOM     12  C   UNL     1      -2.769  10.578  17.582  0.00  0.00    +0.000 A 
ATOM     13  C   UNL     1      -1.438  10.212  17.805  0.00  0.00    +0.000 A 
ATOM     14  C   UNL     1      -0.679  10.827  18.811  0.00  0.00    +0.000 A 
ATOM     15  C   UNL     1      -1.298  11.814  19.594  0.00  0.00    +0.000 A 
ATOM     16  C   UNL     1      -2.635  12.172  19.379  0.00  0.00    +0.000 A 
BRANCH  11  18
ATOM     17  C   UNL     1      -5.605  10.759  18.300  0.00  0.00    +0.000 C 
ATOM     18  O   UNL     1      -4.682  11.823  18.080  0.00  0.00    +0.000 OA
ENDBRANCH  11  18
ENDBRANCH  10  14
ENDBRANCH   1  10
BRANCH   6  19
ATOM     19  C   UNL     1       4.972   4.463  18.154  0.00  0.00    +0.000 C 
BRANCH  19  20
ATOM     20  N   UNL     1       5.487   4.829  16.816  0.00  0.00    +0.000 NA
ATOM     21  C   UNL     1       6.949   4.656  16.746  0.00  0.00    +0.000 C 
ATOM     22  C   UNL     1       7.487   5.021  15.360  0.00  0.00    +0.000 C 
ATOM     23  C   UNL     1       6.807   4.206  14.269  0.00  0.00    +0.000 C 
ATOM     24  C   UNL     1       5.294   4.338  14.385  0.00  0.00    +0.000 C 
ATOM     25  C   UNL     1       4.817   3.999  15.799  0.00  0.00    +0.000 C 
ENDBRANCH  19  20
ENDBRANCH   6  19
TORSDOF 5
ENDMDL
MODEL 8
REMARK VINA RESULT:      -6.9      5.559      8.517
REMARK  Name = 
REMARK  6 active torsions:
REMARK  status: ('A' for Active; 'I' for Inactive)
REMARK    1  A    between atoms: C_1  and  O_2
REMARK    2  A    between atoms: O_2  and  C_3
REMARK    3  A    between atoms: C_6  and  C_7
REMARK    4  A    between atoms: C_7  and  N_8
REMARK    5  A    between atoms: C_13  and  C_14
REMARK    6  A    between atoms: C_14  and  N_15
REMARK                            x       y       z     vdW  Elec       q    Type
REMARK                         _______ _______ _______ _____ _____    ______ ____
ROOT
ATOM      1  N   UNL     1       2.782   6.487  19.567  0.00  0.00    +0.000 NA
ATOM      2  C   UNL     1       1.845   6.439  20.695  0.00  0.00    +0.000 C 
ATOM      3  C   UNL     1       1.407   7.812  21.228  0.00  0.00    +0.000 C 
ATOM      4  N   UNL     1       1.155   8.754  20.168  0.00  0.00    +0.000 N 
ATOM      5  C   UNL     1       0.442   9.909  20.229  0.00  0.00    +0.000 A 
ATOM      6  C   UNL     1       0.547  10.468  18.967  0.00  0.00    +0.000 A 
ATOM      7  N   UNL     1       1.301   9.643  18.152  0.00  0.00    +0.000 NA
ATOM      8  C   UNL     1       1.649   8.614  18.900  0.00  0.00    +0.000 A 
ATOM      9  C   UNL     1       2.387   7.389  18.473  0.00  0.00    +0.000 C 
ENDROOT
BRANCH   1  10
ATOM     10  C   UNL     1       3.169   5.152  19.066  0.00  0.00    +0.000 C 
BRANCH  10  14
ATOM     11  C   UNL     1       6.583   4.976  16.375  0.00  0.00    +0.000 A 
ATOM     12  C   UNL     1       5.351   4.445  15.989  0.00  0.00    +0.000 A 
ATOM     13  C   UNL     1       4.250   4.509  16.849  0.00  0.00    +0.000 A 
ATOM     14  C   UNL     1       4.365   5.077  18.125  0.00  0.00    +0.000 A 
ATOM     15  C   UNL     1       5.614   5.589  18.510  0.00  0.00    +0.000 A 
ATOM     16  C   UNL     1       6.713   5.537  17.643  0.00  0.00    +0.000 A 
BRANCH  11  18
ATOM     17  C   UNL     1       7.176   4.862  14.090  0.00  0.00    +0.000 C 
ATOM     18  O   UNL     1       7.586   4.865  15.455  0.00  0.00    +0.000 OA
ENDBRANCH  11  18
ENDBRANCH  10  14
ENDBRANCH   1  10
BRANCH   6  19
ATOM     19  C   UNL     1      -0.028  11.744  18.430  0.00  0.00    +0.000 C 
BRANCH  19  20
ATOM     20  N   UNL     1      -1.390  11.553  17.882  0.00  0.00    +0.000 NA
ATOM     21  C   UNL     1      -1.569  10.180  17.377  0.00  0.00    +0.000 C 
ATOM     22  C   UNL     1      -2.980   9.972  16.820  0.00  0.00    +0.000 C 
ATOM     23  C   UNL     1      -4.041  10.291  17.865  0.00  0.00    +0.000 C 
ATOM     24  C   UNL     1      -3.812  11.688  18.429  0.00  0.00    +0.000 C 
ATOM     25  C   UNL     1      -2.377  11.851  18.935  0.00  0.00    +0.000 C 
ENDBRANCH  19  20
ENDBRANCH   6  19
TORSDOF 5
ENDMDL
MODEL 9
REMARK VINA RESULT:      -6.9      7.048      8.914
REMARK  Name = 
REMARK  6 active torsions:
REMARK  status: ('A' for Active; 'I' for Inactive)
REMARK    1  A    between atoms: C_1  and  O_2
REMARK    2  A    between atoms: O_2  and  C_3
REMARK    3  A    between atoms: C_6  and  C_7
REMARK    4  A    between atoms: C_7  and  N_8
REMARK    5  A    between atoms: C_13  and  C_14
REMARK    6  A    between atoms: C_14  and  N_15
REMARK                            x       y       z     vdW  Elec       q    Type
REMARK                         _______ _______ _______ _____ _____    ______ ____
ROOT
ATOM      1  N   UNL     1       1.777   8.227  18.598  0.00  0.00    +0.000 NA
ATOM      2  C   UNL     1       1.479   9.468  17.874  0.00  0.00    +0.000 C 
ATOM      3  C   UNL     1       0.203  10.191  18.331  0.00  0.00    +0.000 C 
ATOM      4  N   UNL     1       0.055  10.183  19.763  0.00  0.00    +0.000 N 
ATOM      5  C   UNL     1      -0.727  10.991  20.527  0.00  0.00    +0.000 A 
ATOM      6  C   UNL     1      -0.554  10.542  21.824  0.00  0.00    +0.000 A 
ATOM      7  N   UNL     1       0.339   9.486  21.840  0.00  0.00    +0.000 NA
ATOM      8  C   UNL     1       0.695   9.295  20.584  0.00  0.00    +0.000 A 
ATOM      9  C   UNL     1       1.716   8.338  20.065  0.00  0.00    +0.000 C 
ENDROOT
BRANCH   1  10
ATOM     10  C   UNL     1       3.019   7.566  18.149  0.00  0.00    +0.000 C 
BRANCH  10  14
ATOM     11  C   UNL     1       3.017   3.223  17.877  0.00  0.00    +0.000 A 
ATOM     12  C   UNL     1       1.817   3.935  17.823  0.00  0.00    +0.000 A 
ATOM     13  C   UNL     1       1.816   5.331  17.901  0.00  0.00    +0.000 A 
ATOM     14  C   UNL     1       3.012   6.045  18.066  0.00  0.00    +0.000 A 
ATOM     15  C   UNL     1       4.210   5.317  18.140  0.00  0.00    +0.000 A 
ATOM     16  C   UNL     1       4.211   3.919  18.049  0.00  0.00    +0.000 A 
BRANCH  11  18
ATOM     17  C   UNL     1       3.845   1.113  18.543  0.00  0.00    +0.000 C 
ATOM     18  O   UNL     1       2.901   1.866  17.786  0.00  0.00    +0.000 OA
ENDBRANCH  11  18
ENDBRANCH  10  14
ENDBRANCH   1  10
BRANCH   6  19
ATOM     19  C   UNL     1      -1.161  11.040  23.103  0.00  0.00    +0.000 C 
BRANCH  19  20
ATOM     20  N   UNL     1      -2.004  12.237  22.889  0.00  0.00    +0.000 NA
ATOM     21  C   UNL     1      -3.248  12.155  23.675  0.00  0.00    +0.000 C 
ATOM     22  C   UNL     1      -4.120  13.397  23.469  0.00  0.00    +0.000 C 
ATOM     23  C   UNL     1      -3.361  14.671  23.814  0.00  0.00    +0.000 C 
ATOM     24  C   UNL     1      -2.047  14.719  23.045  0.00  0.00    +0.000 C 
ATOM     25  C   UNL     1      -1.236  13.439  23.258  0.00  0.00    +0.000 C 
ENDBRANCH  19  20
ENDBRANCH   6  19
TORSDOF 5
ENDMDL
