MODEL 1
REMARK VINA RESULT:      -7.8      0.000      0.000
REMARK  Name = 
REMARK  0 active torsions:
REMARK  status: ('A' for Active; 'I' for Inactive)
REMARK                            x       y       z     vdW  Elec       q    Type
REMARK                         _______ _______ _______ _____ _____    ______ ____
ROOT
ATOM      1  O   UNL     1       4.189   6.532  16.705  0.00  0.00    +0.000 OA
ATOM      2  C   UNL     1       3.659   5.849  17.561  0.00  0.00    +0.000 C 
ATOM      3  N   UNL     1       3.836   4.492  17.794  0.00  0.00    +0.000 N 
ATOM      4  C   UNL     1       3.017   4.033  18.832  0.00  0.00    +0.000 A 
ATOM      5  C   UNL     1       2.900   2.742  19.330  0.00  0.00    +0.000 A 
ATOM      6 BR   UNL     1       3.929   1.312  18.655  0.00  0.00    +0.000 Br
ATOM      7  C   UNL     1       1.981   2.502  20.354  0.00  0.00    +0.000 A 
ATOM      8  C   UNL     1       1.156   3.534  20.812  0.00  0.00    +0.000 A 
ATOM      9  C   UNL     1       1.258   4.814  20.265  0.00  0.00    +0.000 A 
ATOM     10  C   UNL     1       2.242   5.084  19.326  0.00  0.00    +0.000 A 
ATOM     11  C   UNL     1       2.669   6.298  18.602  0.00  0.00    +0.000 C 
ATOM     12  C   UNL     1       2.368   7.594  18.792  0.00  0.00    +0.000 C 
ATOM     13  N   UNL     1       2.684   8.757  18.091  0.00  0.00    +0.000 N 
ATOM     14  C   UNL     1       1.879   9.805  18.551  0.00  0.00    +0.000 A 
ATOM     15  C   UNL     1       1.826  11.132  18.192  0.00  0.00    +0.000 A 
ATOM     16  C   UNL     1       0.972  11.992  18.920  0.00  0.00    +0.000 A 
ATOM     17  C   UNL     1       0.189  11.517  19.993  0.00  0.00    +0.000 A 
ATOM     18 BR   UNL     1      -0.942  12.691  20.950  0.00  0.00    +0.000 Br
ATOM     19  C   UNL     1       0.264  10.195  20.386  0.00  0.00    +0.000 A 
ATOM     20  C   UNL     1       1.132   9.404  19.661  0.00  0.00    +0.000 A 
ATOM     21  C   UNL     1       1.515   8.038  19.955  0.00  0.00    +0.000 C 
ATOM     22  O   UNL     1       1.281   7.514  21.017  0.00  0.00    +0.000 OA
ATOM     23  H   UNL     1       4.459   3.906  17.257  0.00  0.00    +0.000 HD
ATOM     24  H   UNL     1       3.086   8.702  17.163  0.00  0.00    +0.000 HD
ENDROOT
TORSDOF 0
ENDMDL
MODEL 2
REMARK VINA RESULT:      -7.8      1.788      6.781
REMARK  Name = 
REMARK  0 active torsions:
REMARK  status: ('A' for Active; 'I' for Inactive)
REMARK                            x       y       z     vdW  Elec       q    Type
REMARK                         _______ _______ _______ _____ _____    ______ ____
ROOT
ATOM      1  O   UNL     1       1.941  10.294  17.484  0.00  0.00    +0.000 OA
ATOM      2  C   UNL     1       1.438  10.201  18.588  0.00  0.00    +0.000 C 
ATOM      3  N   UNL     1       0.664  11.145  19.249  0.00  0.00    +0.000 N 
ATOM      4  C   UNL     1       0.300  10.712  20.529  0.00  0.00    +0.000 A 
ATOM      5  C   UNL     1      -0.444  11.386  21.487  0.00  0.00    +0.000 A 
ATOM      6 BR   UNL     1      -1.162  13.102  21.172  0.00  0.00    +0.000 Br
ATOM      7  C   UNL     1      -0.654  10.772  22.724  0.00  0.00    +0.000 A 
ATOM      8  C   UNL     1      -0.065   9.535  23.002  0.00  0.00    +0.000 A 
ATOM      9  C   UNL     1       0.719   8.895  22.040  0.00  0.00    +0.000 A 
ATOM     10  C   UNL     1       0.841   9.447  20.775  0.00  0.00    +0.000 A 
ATOM     11  C   UNL     1       1.517   9.030  19.529  0.00  0.00    +0.000 C 
ATOM     12  C   UNL     1       2.057   7.855  19.168  0.00  0.00    +0.000 C 
ATOM     13  N   UNL     1       2.767   7.440  18.042  0.00  0.00    +0.000 N 
ATOM     14  C   UNL     1       3.348   6.194  18.297  0.00  0.00    +0.000 A 
ATOM     15  C   UNL     1       4.119   5.373  17.505  0.00  0.00    +0.000 A 
ATOM     16  C   UNL     1       4.479   4.101  18.004  0.00  0.00    +0.000 A 
ATOM     17  C   UNL     1       4.062   3.666  19.280  0.00  0.00    +0.000 A 
ATOM     18 BR   UNL     1       4.556   1.957  19.921  0.00  0.00    +0.000 Br
ATOM     19  C   UNL     1       3.257   4.466  20.067  0.00  0.00    +0.000 A 
ATOM     20  C   UNL     1       2.912   5.686  19.522  0.00  0.00    +0.000 A 
ATOM     21  C   UNL     1       1.964   6.641  20.059  0.00  0.00    +0.000 C 
ATOM     22  O   UNL     1       1.192   6.360  20.944  0.00  0.00    +0.000 OA
ATOM     23  H   UNL     1       0.421  12.045  18.861  0.00  0.00    +0.000 HD
ATOM     24  H   UNL     1       3.128   8.122  17.385  0.00  0.00    +0.000 HD
ENDROOT
TORSDOF 0
ENDMDL
MODEL 3
REMARK VINA RESULT:      -7.7      2.716      6.952
REMARK  Name = 
REMARK  0 active torsions:
REMARK  status: ('A' for Active; 'I' for Inactive)
REMARK                            x       y       z     vdW  Elec       q    Type
REMARK                         _______ _______ _______ _____ _____    ______ ____
ROOT
ATOM      1  O   UNL     1       2.459   4.630  20.791  0.00  0.00    +0.000 OA
ATOM      2  C   UNL     1       2.257   5.776  20.434  0.00  0.00    +0.000 C 
ATOM      3  N   UNL     1       1.519   6.752  21.091  0.00  0.00    +0.000 N 
ATOM      4  C   UNL     1       1.459   7.940  20.354  0.00  0.00    +0.000 A 
ATOM      5  C   UNL     1       0.798   9.118  20.673  0.00  0.00    +0.000 A 
ATOM      6 BR   UNL     1      -0.160   9.324  22.285  0.00  0.00    +0.000 Br
ATOM      7  C   UNL     1       0.841  10.175  19.761  0.00  0.00    +0.000 A 
ATOM      8  C   UNL     1       1.481  10.013  18.528  0.00  0.00    +0.000 A 
ATOM      9  C   UNL     1       2.099   8.803  18.208  0.00  0.00    +0.000 A 
ATOM     10  C   UNL     1       2.155   7.789  19.152  0.00  0.00    +0.000 A 
ATOM     11  C   UNL     1       2.760   6.442  19.182  0.00  0.00    +0.000 C 
ATOM     12  C   UNL     1       3.648   5.853  18.364  0.00  0.00    +0.000 C 
ATOM     13  N   UNL     1       4.185   4.567  18.310  0.00  0.00    +0.000 N 
ATOM     14  C   UNL     1       4.846   4.395  17.089  0.00  0.00    +0.000 A 
ATOM     15  C   UNL     1       5.541   3.323  16.578  0.00  0.00    +0.000 A 
ATOM     16  C   UNL     1       6.206   3.481  15.341  0.00  0.00    +0.000 A 
ATOM     17  C   UNL     1       6.170   4.703  14.636  0.00  0.00    +0.000 A 
ATOM     18 BR   UNL     1       7.070   4.886  12.984  0.00  0.00    +0.000 Br
ATOM     19  C   UNL     1       5.507   5.796  15.159  0.00  0.00    +0.000 A 
ATOM     20  C   UNL     1       4.898   5.597  16.381  0.00  0.00    +0.000 A 
ATOM     21  C   UNL     1       4.276   6.605  17.216  0.00  0.00    +0.000 C 
ATOM     22  O   UNL     1       4.429   7.787  17.028  0.00  0.00    +0.000 OA
ATOM     23  H   UNL     1       1.060   6.607  21.978  0.00  0.00    +0.000 HD
ATOM     24  H   UNL     1       3.775   3.819  18.857  0.00  0.00    +0.000 HD
ENDROOT
TORSDOF 0
ENDMDL
MODEL 4
REMARK VINA RESULT:      -7.3      1.835      2.448
REMARK  Name = 
REMARK  0 active torsions:
REMARK  status: ('A' for Active; 'I' for Inactive)
REMARK                            x       y       z     vdW  Elec       q    Type
REMARK                         _______ _______ _______ _____ _____    ______ ____
ROOT
ATOM      1  O   UNL     1       2.614   9.146  17.053  0.00  0.00    +0.000 OA
ATOM      2  C   UNL     1       2.627   8.223  17.847  0.00  0.00    +0.000 C 
ATOM      3  N   UNL     1       3.306   7.017  17.735  0.00  0.00    +0.000 N 
ATOM      4  C   UNL     1       3.042   6.172  18.819  0.00  0.00    +0.000 A 
ATOM      5  C   UNL     1       3.517   4.887  19.043  0.00  0.00    +0.000 A 
ATOM      6 BR   UNL     1       4.705   4.036  17.850  0.00  0.00    +0.000 Br
ATOM      7  C   UNL     1       3.087   4.207  20.185  0.00  0.00    +0.000 A 
ATOM      8  C   UNL     1       2.148   4.793  21.039  0.00  0.00    +0.000 A 
ATOM      9  C   UNL     1       1.649   6.068  20.769  0.00  0.00    +0.000 A 
ATOM     10  C   UNL     1       2.152   6.791  19.699  0.00  0.00    +0.000 A 
ATOM     11  C   UNL     1       1.911   8.148  19.168  0.00  0.00    +0.000 C 
ATOM     12  C   UNL     1       1.270   9.204  19.697  0.00  0.00    +0.000 C 
ATOM     13  N   UNL     1       0.954  10.470  19.205  0.00  0.00    +0.000 N 
ATOM     14  C   UNL     1       0.028  11.077  20.060  0.00  0.00    +0.000 A 
ATOM     15  C   UNL     1      -0.568  12.317  20.016  0.00  0.00    +0.000 A 
ATOM     16  C   UNL     1      -1.394  12.705  21.095  0.00  0.00    +0.000 A 
ATOM     17  C   UNL     1      -1.609  11.854  22.200  0.00  0.00    +0.000 A 
ATOM     18 BR   UNL     1      -2.717  12.400  23.631  0.00  0.00    +0.000 Br
ATOM     19  C   UNL     1      -0.985  10.624  22.272  0.00  0.00    +0.000 A 
ATOM     20  C   UNL     1      -0.168  10.306  21.206  0.00  0.00    +0.000 A 
ATOM     21  C   UNL     1       0.716   9.163  21.100  0.00  0.00    +0.000 C 
ATOM     22  O   UNL     1       1.004   8.476  22.050  0.00  0.00    +0.000 OA
ATOM     23  H   UNL     1       3.892   6.774  16.950  0.00  0.00    +0.000 HD
ATOM     24  H   UNL     1       1.049  10.672  18.217  0.00  0.00    +0.000 HD
ENDROOT
TORSDOF 0
ENDMDL
MODEL 5
REMARK VINA RESULT:      -7.2      3.229      7.874
REMARK  Name = 
REMARK  0 active torsions:
REMARK  status: ('A' for Active; 'I' for Inactive)
REMARK                            x       y       z     vdW  Elec       q    Type
REMARK                         _______ _______ _______ _____ _____    ______ ____
ROOT
ATOM      1  O   UNL     1      -0.660  13.087  17.841  0.00  0.00    +0.000 OA
ATOM      2  C   UNL     1      -1.063  12.869  18.969  0.00  0.00    +0.000 C 
ATOM      3  N   UNL     1      -1.951  13.631  19.715  0.00  0.00    +0.000 N 
ATOM      4  C   UNL     1      -2.143  13.099  20.995  0.00  0.00    +0.000 A 
ATOM      5  C   UNL     1      -2.934  13.594  22.023  0.00  0.00    +0.000 A 
ATOM      6 BR   UNL     1      -3.974  15.155  21.824  0.00  0.00    +0.000 Br
ATOM      7  C   UNL     1      -2.944  12.913  23.243  0.00  0.00    +0.000 A 
ATOM      8  C   UNL     1      -2.120  11.800  23.433  0.00  0.00    +0.000 A 
ATOM      9  C   UNL     1      -1.298  11.347  22.400  0.00  0.00    +0.000 A 
ATOM     10  C   UNL     1      -1.364  11.950  21.153  0.00  0.00    +0.000 A 
ATOM     11  C   UNL     1      -0.707  11.705  19.853  0.00  0.00    +0.000 C 
ATOM     12  C   UNL     1       0.014  10.662  19.410  0.00  0.00    +0.000 C 
ATOM     13  N   UNL     1       0.713  10.422  18.228  0.00  0.00    +0.000 N 
ATOM     14  C   UNL     1       1.529   9.298  18.395  0.00  0.00    +0.000 A 
ATOM     15  C   UNL     1       2.383   8.660  17.524  0.00  0.00    +0.000 A 
ATOM     16  C   UNL     1       3.003   7.462  17.946  0.00  0.00    +0.000 A 
ATOM     17  C   UNL     1       2.759   6.919  19.225  0.00  0.00    +0.000 A 
ATOM     18 BR   UNL     1       3.600   5.314  19.763  0.00  0.00    +0.000 Br
ATOM     19  C   UNL     1       1.875   7.530  20.092  0.00  0.00    +0.000 A 
ATOM     20  C   UNL     1       1.276   8.681  19.621  0.00  0.00    +0.000 A 
ATOM     21  C   UNL     1       0.206   9.425  20.254  0.00  0.00    +0.000 C 
ATOM     22  O   UNL     1      -0.440   8.979  21.170  0.00  0.00    +0.000 OA
ATOM     23  H   UNL     1      -2.380  14.482  19.380  0.00  0.00    +0.000 HD
ATOM     24  H   UNL     1       0.897  11.179  17.580  0.00  0.00    +0.000 HD
ENDROOT
TORSDOF 0
ENDMDL
MODEL 6
REMARK VINA RESULT:      -7.1      2.064      3.490
REMARK  Name = 
REMARK  0 active torsions:
REMARK  status: ('A' for Active; 'I' for Inactive)
REMARK                            x       y       z     vdW  Elec       q    Type
REMARK                         _______ _______ _______ _____ _____    ______ ____
ROOT
ATOM      1  O   UNL     1       2.502   4.544  20.872  0.00  0.00    +0.000 OA
ATOM      2  C   UNL     1       2.943   5.017  19.841  0.00  0.00    +0.000 C 
ATOM      3  N   UNL     1       3.693   4.374  18.865  0.00  0.00    +0.000 N 
ATOM      4  C   UNL     1       4.072   5.251  17.842  0.00  0.00    +0.000 A 
ATOM      5  C   UNL     1       4.840   4.981  16.718  0.00  0.00    +0.000 A 
ATOM      6 BR   UNL     1       5.511   3.256  16.355  0.00  0.00    +0.000 Br
ATOM      7  C   UNL     1       5.129   6.029  15.840  0.00  0.00    +0.000 A 
ATOM      8  C   UNL     1       4.705   7.328  16.134  0.00  0.00    +0.000 A 
ATOM      9  C   UNL     1       3.973   7.585  17.295  0.00  0.00    +0.000 A 
ATOM     10  C   UNL     1       3.589   6.534  18.113  0.00  0.00    +0.000 A 
ATOM     11  C   UNL     1       2.785   6.429  19.347  0.00  0.00    +0.000 C 
ATOM     12  C   UNL     1       1.978   7.315  19.954  0.00  0.00    +0.000 C 
ATOM     13  N   UNL     1       1.265   7.287  21.152  0.00  0.00    +0.000 N 
ATOM     14  C   UNL     1       0.817   8.578  21.451  0.00  0.00    +0.000 A 
ATOM     15  C   UNL     1       0.065   9.057  22.500  0.00  0.00    +0.000 A 
ATOM     16  C   UNL     1      -0.331  10.413  22.480  0.00  0.00    +0.000 A 
ATOM     17  C   UNL     1       0.023  11.268  21.415  0.00  0.00    +0.000 A 
ATOM     18 BR   UNL     1      -0.524  13.077  21.413  0.00  0.00    +0.000 Br
ATOM     19  C   UNL     1       0.744  10.788  20.339  0.00  0.00    +0.000 A 
ATOM     20  C   UNL     1       1.083   9.451  20.395  0.00  0.00    +0.000 A 
ATOM     21  C   UNL     1       1.693   8.665  19.342  0.00  0.00    +0.000 C 
ATOM     22  O   UNL     1       1.765   9.053  18.202  0.00  0.00    +0.000 OA
ATOM     23  H   UNL     1       3.956   3.401  18.909  0.00  0.00    +0.000 HD
ATOM     24  H   UNL     1       1.446   6.565  21.839  0.00  0.00    +0.000 HD
ENDROOT
TORSDOF 0
ENDMDL
MODEL 7
REMARK VINA RESULT:      -7.1      2.291      7.554
REMARK  Name = 
REMARK  0 active torsions:
REMARK  status: ('A' for Active; 'I' for Inactive)
REMARK                            x       y       z     vdW  Elec       q    Type
REMARK                         _______ _______ _______ _____ _____    ______ ____
ROOT
ATOM      1  O   UNL     1      -0.087   8.893  23.112  0.00  0.00    +0.000 OA
ATOM      2  C   UNL     1      -0.180   9.689  22.197  0.00  0.00    +0.000 C 
ATOM      3  N   UNL     1      -0.817  10.923  22.208  0.00  0.00    +0.000 N 
ATOM      4  C   UNL     1      -0.768  11.543  20.954  0.00  0.00    +0.000 A 
ATOM      5  C   UNL     1      -1.310  12.763  20.575  0.00  0.00    +0.000 A 
ATOM      6 BR   UNL     1      -2.235  13.869  21.792  0.00  0.00    +0.000 Br
ATOM      7  C   UNL     1      -1.172  13.171  19.246  0.00  0.00    +0.000 A 
ATOM      8  C   UNL     1      -0.558  12.329  18.314  0.00  0.00    +0.000 A 
ATOM      9  C   UNL     1      -0.061  11.085  18.707  0.00  0.00    +0.000 A 
ATOM     10  C   UNL     1      -0.097  10.722  20.044  0.00  0.00    +0.000 A 
ATOM     11  C   UNL     1       0.377   9.549  20.806  0.00  0.00    +0.000 C 
ATOM     12  C   UNL     1       1.200   8.544  20.462  0.00  0.00    +0.000 C 
ATOM     13  N   UNL     1       1.611   7.384  21.117  0.00  0.00    +0.000 N 
ATOM     14  C   UNL     1       2.245   6.538  20.201  0.00  0.00    +0.000 A 
ATOM     15  C   UNL     1       2.832   5.304  20.363  0.00  0.00    +0.000 A 
ATOM     16  C   UNL     1       3.501   4.727  19.259  0.00  0.00    +0.000 A 
ATOM     17  C   UNL     1       3.578   5.391  18.016  0.00  0.00    +0.000 A 
ATOM     18 BR   UNL     1       4.482   4.597  16.558  0.00  0.00    +0.000 Br
ATOM     19  C   UNL     1       3.025   6.646  17.855  0.00  0.00    +0.000 A 
ATOM     20  C   UNL     1       2.408   7.175  18.970  0.00  0.00    +0.000 A 
ATOM     21  C   UNL     1       1.891   8.520  19.120  0.00  0.00    +0.000 C 
ATOM     22  O   UNL     1       2.154   9.407  18.345  0.00  0.00    +0.000 OA
ATOM     23  H   UNL     1      -1.283  11.308  23.017  0.00  0.00    +0.000 HD
ATOM     24  H   UNL     1       1.135   7.074  21.956  0.00  0.00    +0.000 HD
ENDROOT
TORSDOF 0
ENDMDL
MODEL 8
REMARK VINA RESULT:      -7.0      3.324      5.264
REMARK  Name = 
REMARK  0 active torsions:
REMARK  status: ('A' for Active; 'I' for Inactive)
REMARK                            x       y       z     vdW  Elec       q    Type
REMARK                         _______ _______ _______ _____ _____    ______ ____
ROOT
ATOM      1  O   UNL     1       0.696   9.656  23.299  0.00  0.00    +0.000 OA
ATOM      2  C   UNL     1       0.960   9.328  22.157  0.00  0.00    +0.000 C 
ATOM      3  N   UNL     1       1.407   8.091  21.712  0.00  0.00    +0.000 N 
ATOM      4  C   UNL     1       1.659   8.096  20.336  0.00  0.00    +0.000 A 
ATOM      5  C   UNL     1       2.135   7.060  19.544  0.00  0.00    +0.000 A 
ATOM      6 BR   UNL     1       2.509   5.351  20.250  0.00  0.00    +0.000 Br
ATOM      7  C   UNL     1       2.352   7.303  18.185  0.00  0.00    +0.000 A 
ATOM      8  C   UNL     1       2.154   8.584  17.662  0.00  0.00    +0.000 A 
ATOM      9  C   UNL     1       1.719   9.624  18.486  0.00  0.00    +0.000 A 
ATOM     10  C   UNL     1       1.397   9.363  19.809  0.00  0.00    +0.000 A 
ATOM     11  C   UNL     1       0.866  10.179  20.920  0.00  0.00    +0.000 C 
ATOM     12  C   UNL     1       0.315  11.404  20.933  0.00  0.00    +0.000 C 
ATOM     13  N   UNL     1      -0.127  12.238  21.959  0.00  0.00    +0.000 N 
ATOM     14  C   UNL     1      -0.348  13.520  21.447  0.00  0.00    +0.000 A 
ATOM     15  C   UNL     1      -0.800  14.672  22.051  0.00  0.00    +0.000 A 
ATOM     16  C   UNL     1      -1.032  15.809  21.242  0.00  0.00    +0.000 A 
ATOM     17  C   UNL     1      -0.814  15.778  19.849  0.00  0.00    +0.000 A 
ATOM     18 BR   UNL     1      -1.135  17.312  18.793  0.00  0.00    +0.000 Br
ATOM     19  C   UNL     1      -0.398  14.616  19.228  0.00  0.00    +0.000 A 
ATOM     20  C   UNL     1      -0.213  13.529  20.058  0.00  0.00    +0.000 A 
ATOM     21  C   UNL     1       0.065  12.165  19.654  0.00  0.00    +0.000 C 
ATOM     22  O   UNL     1      -0.062  11.788  18.515  0.00  0.00    +0.000 OA
ATOM     23  H   UNL     1       1.558   7.297  22.317  0.00  0.00    +0.000 HD
ATOM     24  H   UNL     1       0.110  12.033  22.923  0.00  0.00    +0.000 HD
ENDROOT
TORSDOF 0
ENDMDL
MODEL 9
REMARK VINA RESULT:      -6.9      3.724      5.812
REMARK  Name = 
REMARK  0 active torsions:
REMARK  status: ('A' for Active; 'I' for Inactive)
REMARK                            x       y       z     vdW  Elec       q    Type
REMARK                         _______ _______ _______ _____ _____    ______ ____
ROOT
ATOM      1  O   UNL     1       0.695   9.411  23.652  0.00  0.00    +0.000 OA
ATOM      2  C   UNL     1       0.841   9.306  22.449  0.00  0.00    +0.000 C 
ATOM      3  N   UNL     1       1.467   8.278  21.757  0.00  0.00    +0.000 N 
ATOM      4  C   UNL     1       1.494   8.522  20.379  0.00  0.00    +0.000 A 
ATOM      5  C   UNL     1       2.051   7.739  19.377  0.00  0.00    +0.000 A 
ATOM      6 BR   UNL     1       2.888   6.089  19.745  0.00  0.00    +0.000 Br
ATOM      7  C   UNL     1       1.995   8.201  18.060  0.00  0.00    +0.000 A 
ATOM      8  C   UNL     1       1.448   9.457  17.780  0.00  0.00    +0.000 A 
ATOM      9  C   UNL     1       0.935  10.248  18.809  0.00  0.00    +0.000 A 
ATOM     10  C   UNL     1       0.888   9.749  20.102  0.00  0.00    +0.000 A 
ATOM     11  C   UNL     1       0.375  10.265  21.387  0.00  0.00    +0.000 C 
ATOM     12  C   UNL     1      -0.417  11.314  21.666  0.00  0.00    +0.000 C 
ATOM     13  N   UNL     1      -0.861  11.879  22.861  0.00  0.00    +0.000 N 
ATOM     14  C   UNL     1      -1.430  13.130  22.595  0.00  0.00    +0.000 A 
ATOM     15  C   UNL     1      -2.017  14.054  23.428  0.00  0.00    +0.000 A 
ATOM     16  C   UNL     1      -2.610  15.199  22.850  0.00  0.00    +0.000 A 
ATOM     17  C   UNL     1      -2.612  15.402  21.454  0.00  0.00    +0.000 A 
ATOM     18 BR   UNL     1      -3.416  16.942  20.709  0.00  0.00    +0.000 Br
ATOM     19  C   UNL     1      -2.059  14.462  20.607  0.00  0.00    +0.000 A 
ATOM     20  C   UNL     1      -1.518  13.350  21.219  0.00  0.00    +0.000 A 
ATOM     21  C   UNL     1      -1.021  12.155  20.568  0.00  0.00    +0.000 C 
ATOM     22  O   UNL     1      -1.241  11.910  19.407  0.00  0.00    +0.000 OA
ATOM     23  H   UNL     1       1.878   7.470  22.202  0.00  0.00    +0.000 HD
ATOM     24  H   UNL     1      -0.438  11.612  23.742  0.00  0.00    +0.000 HD
ENDROOT
TORSDOF 0
ENDMDL
