MODEL 1
REMARK VINA RESULT:      -7.4      0.000      0.000
REMARK  Name = 
REMARK  3 active torsions:
REMARK  status: ('A' for Active; 'I' for Inactive)
REMARK    1  A    between atoms: C_1  and  C_2
REMARK    2  A    between atoms: C_5  and  C_6
REMARK    3  A    between atoms: C_9  and  C_10
REMARK                            x       y       z     vdW  Elec       q    Type
REMARK                         _______ _______ _______ _____ _____    ______ ____
ROOT
ATOM      1  C   UNL     1       1.830   8.665  18.940  0.00  0.00    +0.000 A 
ATOM      2  N   UNL     1       1.945   9.183  17.705  0.00  0.00    +0.000 NA
ATOM      3  O   UNL     1       2.789   8.287  17.051  0.00  0.00    +0.000 OA
ATOM      4  C   UNL     1       3.107   7.312  17.954  0.00  0.00    +0.000 A 
ATOM      5  N   UNL     1       2.545   7.503  19.123  0.00  0.00    +0.000 NA
ENDROOT
BRANCH   1  10
ATOM      6  C   UNL     1      -1.342  11.050  23.139  0.00  0.00    +0.000 C 
ATOM      7  C   UNL     1      -0.539  10.399  22.051  0.00  0.00    +0.000 A 
ATOM      8  C   UNL     1       0.154   9.205  22.278  0.00  0.00    +0.000 A 
ATOM      9  C   UNL     1       0.918   8.623  21.261  0.00  0.00    +0.000 A 
ATOM     10  C   UNL     1       1.003   9.227  20.000  0.00  0.00    +0.000 A 
ATOM     11  C   UNL     1       0.292  10.415  19.773  0.00  0.00    +0.000 A 
ATOM     12  C   UNL     1      -0.471  10.996  20.788  0.00  0.00    +0.000 A 
ENDBRANCH   1  10
BRANCH   4  13
ATOM     13  C   UNL     1       3.961   6.231  17.479  0.00  0.00    +0.000 A 
ATOM     14  C   UNL     1       5.273   6.530  17.062  0.00  0.00    +0.000 A 
ATOM     15  C   UNL     1       6.123   5.537  16.569  0.00  0.00    +0.000 A 
ATOM     16  C   UNL     1       5.678   4.223  16.486  0.00  0.00    +0.000 A 
ATOM     17  C   UNL     1       4.384   3.901  16.892  0.00  0.00    +0.000 A 
ATOM     18  C   UNL     1       3.527   4.897  17.383  0.00  0.00    +0.000 A 
ATOM     19 BR   UNL     1       1.798   4.315  17.932  0.00  0.00    +0.000 Br
ENDBRANCH   4  13
TORSDOF 2
ENDMDL
MODEL 2
REMARK VINA RESULT:      -7.3      4.473      8.285
REMARK  Name = 
REMARK  3 active torsions:
REMARK  status: ('A' for Active; 'I' for Inactive)
REMARK    1  A    between atoms: C_1  and  C_2
REMARK    2  A    between atoms: C_5  and  C_6
REMARK    3  A    between atoms: C_9  and  C_10
REMARK                            x       y       z     vdW  Elec       q    Type
REMARK                         _______ _______ _______ _____ _____    ______ ____
ROOT
ATOM      1  C   UNL     1       5.888   4.288  16.970  0.00  0.00    +0.000 A 
ATOM      2  N   UNL     1       6.748   4.426  17.993  0.00  0.00    +0.000 NA
ATOM      3  O   UNL     1       5.942   4.290  19.121  0.00  0.00    +0.000 OA
ATOM      4  C   UNL     1       4.666   4.084  18.673  0.00  0.00    +0.000 A 
ATOM      5  N   UNL     1       4.586   4.077  17.364  0.00  0.00    +0.000 NA
ENDROOT
BRANCH   1  10
ATOM      6  C   UNL     1       7.344   4.562  11.386  0.00  0.00    +0.000 C 
ATOM      7  C   UNL     1       6.972   4.453  12.836  0.00  0.00    +0.000 A 
ATOM      8  C   UNL     1       5.907   3.647  13.251  0.00  0.00    +0.000 A 
ATOM      9  C   UNL     1       5.556   3.575  14.603  0.00  0.00    +0.000 A 
ATOM     10  C   UNL     1       6.265   4.310  15.562  0.00  0.00    +0.000 A 
ATOM     11  C   UNL     1       7.342   5.104  15.142  0.00  0.00    +0.000 A 
ATOM     12  C   UNL     1       7.692   5.176  13.792  0.00  0.00    +0.000 A 
ENDBRANCH   1  10
BRANCH   4  13
ATOM     13  C   UNL     1       3.641   3.875  19.687  0.00  0.00    +0.000 A 
ATOM     14  C   UNL     1       3.597   2.643  20.369  0.00  0.00    +0.000 A 
ATOM     15  C   UNL     1       2.617   2.378  21.329  0.00  0.00    +0.000 A 
ATOM     16  C   UNL     1       1.662   3.343  21.627  0.00  0.00    +0.000 A 
ATOM     17  C   UNL     1       1.684   4.570  20.966  0.00  0.00    +0.000 A 
ATOM     18  C   UNL     1       2.664   4.836  19.999  0.00  0.00    +0.000 A 
ATOM     19 BR   UNL     1       2.597   6.562  19.196  0.00  0.00    +0.000 Br
ENDBRANCH   4  13
TORSDOF 2
ENDMDL
MODEL 3
REMARK VINA RESULT:      -7.3      4.474      8.274
REMARK  Name = 
REMARK  3 active torsions:
REMARK  status: ('A' for Active; 'I' for Inactive)
REMARK    1  A    between atoms: C_1  and  C_2
REMARK    2  A    between atoms: C_5  and  C_6
REMARK    3  A    between atoms: C_9  and  C_10
REMARK                            x       y       z     vdW  Elec       q    Type
REMARK                         _______ _______ _______ _____ _____    ______ ____
ROOT
ATOM      1  C   UNL     1       5.844   4.354  16.990  0.00  0.00    +0.000 A 
ATOM      2  N   UNL     1       6.714   4.492  18.004  0.00  0.00    +0.000 NA
ATOM      3  O   UNL     1       5.923   4.331  19.140  0.00  0.00    +0.000 OA
ATOM      4  C   UNL     1       4.645   4.113  18.704  0.00  0.00    +0.000 A 
ATOM      5  N   UNL     1       4.549   4.121  17.396  0.00  0.00    +0.000 NA
ENDROOT
BRANCH   1  10
ATOM      6  C   UNL     1       7.290   4.342  11.396  0.00  0.00    +0.000 C 
ATOM      7  C   UNL     1       6.912   4.382  12.848  0.00  0.00    +0.000 A 
ATOM      8  C   UNL     1       7.695   5.072  13.780  0.00  0.00    +0.000 A 
ATOM      9  C   UNL     1       7.343   5.081  15.134  0.00  0.00    +0.000 A 
ATOM     10  C   UNL     1       6.204   4.398  15.578  0.00  0.00    +0.000 A 
ATOM     11  C   UNL     1       5.413   3.723  14.636  0.00  0.00    +0.000 A 
ATOM     12  C   UNL     1       5.764   3.714  13.285  0.00  0.00    +0.000 A 
ENDBRANCH   1  10
BRANCH   4  13
ATOM     13  C   UNL     1       3.635   3.877  19.727  0.00  0.00    +0.000 A 
ATOM     14  C   UNL     1       3.609   2.632  20.387  0.00  0.00    +0.000 A 
ATOM     15  C   UNL     1       2.643   2.343  21.355  0.00  0.00    +0.000 A 
ATOM     16  C   UNL     1       1.685   3.295  21.683  0.00  0.00    +0.000 A 
ATOM     17  C   UNL     1       1.689   4.534  21.044  0.00  0.00    +0.000 A 
ATOM     18  C   UNL     1       2.655   4.825  20.070  0.00  0.00    +0.000 A 
ATOM     19 BR   UNL     1       2.565   6.565  19.300  0.00  0.00    +0.000 Br
ENDBRANCH   4  13
TORSDOF 2
ENDMDL
MODEL 4
REMARK VINA RESULT:      -7.3      1.926      7.403
REMARK  Name = 
REMARK  3 active torsions:
REMARK  status: ('A' for Active; 'I' for Inactive)
REMARK    1  A    between atoms: C_1  and  C_2
REMARK    2  A    between atoms: C_5  and  C_6
REMARK    3  A    between atoms: C_9  and  C_10
REMARK                            x       y       z     vdW  Elec       q    Type
REMARK                         _______ _______ _______ _____ _____    ______ ____
ROOT
ATOM      1  C   UNL     1       2.878   6.311  18.932  0.00  0.00    +0.000 A 
ATOM      2  N   UNL     1       2.391   5.513  19.898  0.00  0.00    +0.000 NA
ATOM      3  O   UNL     1       1.647   6.381  20.695  0.00  0.00    +0.000 OA
ATOM      4  C   UNL     1       1.757   7.624  20.137  0.00  0.00    +0.000 A 
ATOM      5  N   UNL     1       2.502   7.629  19.058  0.00  0.00    +0.000 NA
ENDROOT
BRANCH   1  10
ATOM      6  C   UNL     1       6.227   4.401  14.629  0.00  0.00    +0.000 C 
ATOM      7  C   UNL     1       5.338   4.918  15.722  0.00  0.00    +0.000 A 
ATOM      8  C   UNL     1       5.241   6.287  15.989  0.00  0.00    +0.000 A 
ATOM      9  C   UNL     1       4.426   6.752  17.027  0.00  0.00    +0.000 A 
ATOM     10  C   UNL     1       3.696   5.854  17.815  0.00  0.00    +0.000 A 
ATOM     11  C   UNL     1       3.784   4.483  17.531  0.00  0.00    +0.000 A 
ATOM     12  C   UNL     1       4.597   4.019  16.495  0.00  0.00    +0.000 A 
ENDBRANCH   1  10
BRANCH   4  13
ATOM     13  C   UNL     1       1.023   8.702  20.785  0.00  0.00    +0.000 A 
ATOM     14  C   UNL     1       0.916   8.706  22.191  0.00  0.00    +0.000 A 
ATOM     15  C   UNL     1       0.197   9.700  22.862  0.00  0.00    +0.000 A 
ATOM     16  C   UNL     1      -0.426  10.710  22.140  0.00  0.00    +0.000 A 
ATOM     17  C   UNL     1      -0.336  10.728  20.749  0.00  0.00    +0.000 A 
ATOM     18  C   UNL     1       0.381   9.731  20.073  0.00  0.00    +0.000 A 
ATOM     19 BR   UNL     1       0.451   9.893  18.176  0.00  0.00    +0.000 Br
ENDBRANCH   4  13
TORSDOF 2
ENDMDL
MODEL 5
REMARK VINA RESULT:      -7.3      1.938      7.325
REMARK  Name = 
REMARK  3 active torsions:
REMARK  status: ('A' for Active; 'I' for Inactive)
REMARK    1  A    between atoms: C_1  and  C_2
REMARK    2  A    between atoms: C_5  and  C_6
REMARK    3  A    between atoms: C_9  and  C_10
REMARK                            x       y       z     vdW  Elec       q    Type
REMARK                         _______ _______ _______ _____ _____    ______ ____
ROOT
ATOM      1  C   UNL     1       2.822   6.378  19.100  0.00  0.00    +0.000 A 
ATOM      2  N   UNL     1       2.331   5.602  20.081  0.00  0.00    +0.000 NA
ATOM      3  O   UNL     1       1.563   6.481  20.842  0.00  0.00    +0.000 OA
ATOM      4  C   UNL     1       1.665   7.710  20.249  0.00  0.00    +0.000 A 
ATOM      5  N   UNL     1       2.427   7.694  19.182  0.00  0.00    +0.000 NA
ENDROOT
BRANCH   1  10
ATOM      6  C   UNL     1       6.049   4.581  14.657  0.00  0.00    +0.000 C 
ATOM      7  C   UNL     1       5.232   5.028  15.834  0.00  0.00    +0.000 A 
ATOM      8  C   UNL     1       4.563   4.103  16.642  0.00  0.00    +0.000 A 
ATOM      9  C   UNL     1       3.785   4.536  17.722  0.00  0.00    +0.000 A 
ATOM     10  C   UNL     1       3.664   5.901  18.010  0.00  0.00    +0.000 A 
ATOM     11  C   UNL     1       4.352   6.822  17.206  0.00  0.00    +0.000 A 
ATOM     12  C   UNL     1       5.128   6.391  16.129  0.00  0.00    +0.000 A 
ENDBRANCH   1  10
BRANCH   4  13
ATOM     13  C   UNL     1       0.906   8.795  20.856  0.00  0.00    +0.000 A 
ATOM     14  C   UNL     1       0.776   8.837  22.258  0.00  0.00    +0.000 A 
ATOM     15  C   UNL     1       0.034   9.839  22.889  0.00  0.00    +0.000 A 
ATOM     16  C   UNL     1      -0.591  10.820  22.129  0.00  0.00    +0.000 A 
ATOM     17  C   UNL     1      -0.478  10.801  20.740  0.00  0.00    +0.000 A 
ATOM     18  C   UNL     1       0.262   9.794  20.104  0.00  0.00    +0.000 A 
ATOM     19 BR   UNL     1       0.362   9.904  18.205  0.00  0.00    +0.000 Br
ENDBRANCH   4  13
TORSDOF 2
ENDMDL
MODEL 6
REMARK VINA RESULT:      -7.2      0.141      1.112
REMARK  Name = 
REMARK  3 active torsions:
REMARK  status: ('A' for Active; 'I' for Inactive)
REMARK    1  A    between atoms: C_1  and  C_2
REMARK    2  A    between atoms: C_5  and  C_6
REMARK    3  A    between atoms: C_9  and  C_10
REMARK                            x       y       z     vdW  Elec       q    Type
REMARK                         _______ _______ _______ _____ _____    ______ ____
ROOT
ATOM      1  C   UNL     1       1.761   8.733  18.964  0.00  0.00    +0.000 A 
ATOM      2  N   UNL     1       1.766   9.149  17.686  0.00  0.00    +0.000 NA
ATOM      3  O   UNL     1       2.605   8.237  17.048  0.00  0.00    +0.000 OA
ATOM      4  C   UNL     1       3.031   7.356  18.004  0.00  0.00    +0.000 A 
ATOM      5  N   UNL     1       2.541   7.622  19.190  0.00  0.00    +0.000 NA
ENDROOT
BRANCH   1  10
ATOM      6  C   UNL     1      -1.448  11.027  23.186  0.00  0.00    +0.000 C 
ATOM      7  C   UNL     1      -0.592  10.462  22.090  0.00  0.00    +0.000 A 
ATOM      8  C   UNL     1      -0.406  11.152  20.888  0.00  0.00    +0.000 A 
ATOM      9  C   UNL     1       0.375  10.600  19.866  0.00  0.00    +0.000 A 
ATOM     10  C   UNL     1       0.982   9.349  20.031  0.00  0.00    +0.000 A 
ATOM     11  C   UNL     1       0.806   8.669  21.246  0.00  0.00    +0.000 A 
ATOM     12  C   UNL     1       0.026   9.219  22.265  0.00  0.00    +0.000 A 
ENDBRANCH   1  10
BRANCH   4  13
ATOM     13  C   UNL     1       3.900   6.276  17.558  0.00  0.00    +0.000 A 
ATOM     14  C   UNL     1       5.227   6.575  17.187  0.00  0.00    +0.000 A 
ATOM     15  C   UNL     1       6.094   5.581  16.724  0.00  0.00    +0.000 A 
ATOM     16  C   UNL     1       5.651   4.268  16.625  0.00  0.00    +0.000 A 
ATOM     17  C   UNL     1       4.344   3.946  16.986  0.00  0.00    +0.000 A 
ATOM     18  C   UNL     1       3.471   4.941  17.447  0.00  0.00    +0.000 A 
ATOM     19 BR   UNL     1       1.723   4.359  17.935  0.00  0.00    +0.000 Br
ENDBRANCH   4  13
TORSDOF 2
ENDMDL
MODEL 7
REMARK VINA RESULT:      -7.1      2.111      2.888
REMARK  Name = 
REMARK  3 active torsions:
REMARK  status: ('A' for Active; 'I' for Inactive)
REMARK    1  A    between atoms: C_1  and  C_2
REMARK    2  A    between atoms: C_5  and  C_6
REMARK    3  A    between atoms: C_9  and  C_10
REMARK                            x       y       z     vdW  Elec       q    Type
REMARK                         _______ _______ _______ _____ _____    ______ ____
ROOT
ATOM      1  C   UNL     1       2.994   6.723  18.961  0.00  0.00    +0.000 A 
ATOM      2  N   UNL     1       3.429   5.655  19.651  0.00  0.00    +0.000 NA
ATOM      3  O   UNL     1       4.316   5.035  18.771  0.00  0.00    +0.000 OA
ATOM      4  C   UNL     1       4.330   5.787  17.629  0.00  0.00    +0.000 A 
ATOM      5  N   UNL     1       3.536   6.828  17.699  0.00  0.00    +0.000 NA
ENDROOT
BRANCH   1  10
ATOM      6  C   UNL     1      -0.540  10.816  20.993  0.00  0.00    +0.000 C 
ATOM      7  C   UNL     1       0.351   9.727  20.471  0.00  0.00    +0.000 A 
ATOM      8  C   UNL     1       0.707   8.638  21.273  0.00  0.00    +0.000 A 
ATOM      9  C   UNL     1       1.559   7.643  20.781  0.00  0.00    +0.000 A 
ATOM     10  C   UNL     1       2.068   7.722  19.479  0.00  0.00    +0.000 A 
ATOM     11  C   UNL     1       1.694   8.809  18.674  0.00  0.00    +0.000 A 
ATOM     12  C   UNL     1       0.844   9.802  19.165  0.00  0.00    +0.000 A 
ENDBRANCH   1  10
BRANCH   4  13
ATOM     13  C   UNL     1       5.225   5.348  16.567  0.00  0.00    +0.000 A 
ATOM     14  C   UNL     1       4.737   4.465  15.583  0.00  0.00    +0.000 A 
ATOM     15  C   UNL     1       5.561   3.989  14.560  0.00  0.00    +0.000 A 
ATOM     16  C   UNL     1       6.890   4.390  14.499  0.00  0.00    +0.000 A 
ATOM     17  C   UNL     1       7.398   5.262  15.460  0.00  0.00    +0.000 A 
ATOM     18  C   UNL     1       6.574   5.738  16.491  0.00  0.00    +0.000 A 
ATOM     19 BR   UNL     1       7.386   6.948  17.718  0.00  0.00    +0.000 Br
ENDBRANCH   4  13
TORSDOF 2
ENDMDL
MODEL 8
REMARK VINA RESULT:      -7.0      2.100      3.053
REMARK  Name = 
REMARK  3 active torsions:
REMARK  status: ('A' for Active; 'I' for Inactive)
REMARK    1  A    between atoms: C_1  and  C_2
REMARK    2  A    between atoms: C_5  and  C_6
REMARK    3  A    between atoms: C_9  and  C_10
REMARK                            x       y       z     vdW  Elec       q    Type
REMARK                         _______ _______ _______ _____ _____    ______ ____
ROOT
ATOM      1  C   UNL     1       2.990   6.689  18.988  0.00  0.00    +0.000 A 
ATOM      2  N   UNL     1       3.345   5.570  19.640  0.00  0.00    +0.000 NA
ATOM      3  O   UNL     1       4.223   4.941  18.758  0.00  0.00    +0.000 OA
ATOM      4  C   UNL     1       4.313   5.741  17.652  0.00  0.00    +0.000 A 
ATOM      5  N   UNL     1       3.574   6.820  17.748  0.00  0.00    +0.000 NA
ENDROOT
BRANCH   1  10
ATOM      6  C   UNL     1      -0.656  10.622  21.137  0.00  0.00    +0.000 C 
ATOM      7  C   UNL     1       0.316   9.628  20.574  0.00  0.00    +0.000 A 
ATOM      8  C   UNL     1       0.831   9.771  19.281  0.00  0.00    +0.000 A 
ATOM      9  C   UNL     1       1.719   8.823  18.761  0.00  0.00    +0.000 A 
ATOM     10  C   UNL     1       2.104   7.715  19.525  0.00  0.00    +0.000 A 
ATOM     11  C   UNL     1       1.598   7.585  20.827  0.00  0.00    +0.000 A 
ATOM     12  C   UNL     1       0.712   8.531  21.346  0.00  0.00    +0.000 A 
ENDBRANCH   1  10
BRANCH   4  13
ATOM     13  C   UNL     1       5.214   5.300  16.597  0.00  0.00    +0.000 A 
ATOM     14  C   UNL     1       4.704   4.509  15.548  0.00  0.00    +0.000 A 
ATOM     15  C   UNL     1       5.531   4.035  14.527  0.00  0.00    +0.000 A 
ATOM     16  C   UNL     1       6.885   4.346  14.532  0.00  0.00    +0.000 A 
ATOM     17  C   UNL     1       7.415   5.127  15.558  0.00  0.00    +0.000 A 
ATOM     18  C   UNL     1       6.588   5.600  16.586  0.00  0.00    +0.000 A 
ATOM     19 BR   UNL     1       7.434   6.683  17.907  0.00  0.00    +0.000 Br
ENDBRANCH   4  13
TORSDOF 2
ENDMDL
MODEL 9
REMARK VINA RESULT:      -7.0      5.937      6.856
REMARK  Name = 
REMARK  3 active torsions:
REMARK  status: ('A' for Active; 'I' for Inactive)
REMARK    1  A    between atoms: C_1  and  C_2
REMARK    2  A    between atoms: C_5  and  C_6
REMARK    3  A    between atoms: C_9  and  C_10
REMARK                            x       y       z     vdW  Elec       q    Type
REMARK                         _______ _______ _______ _____ _____    ______ ____
ROOT
ATOM      1  C   UNL     1       8.211   8.411  18.241  0.00  0.00    +0.000 A 
ATOM      2  N   UNL     1       8.516   7.376  19.041  0.00  0.00    +0.000 NA
ATOM      3  O   UNL     1       7.916   6.287  18.412  0.00  0.00    +0.000 OA
ATOM      4  C   UNL     1       7.301   6.768  17.290  0.00  0.00    +0.000 A 
ATOM      5  N   UNL     1       7.453   8.063  17.146  0.00  0.00    +0.000 NA
ENDROOT
BRANCH   1  10
ATOM      6  C   UNL     1      10.062  13.842  18.922  0.00  0.00    +0.000 C 
ATOM      7  C   UNL     1       9.566  12.433  18.779  0.00  0.00    +0.000 A 
ATOM      8  C   UNL     1       9.951  11.435  19.681  0.00  0.00    +0.000 A 
ATOM      9  C   UNL     1       9.499  10.121  19.521  0.00  0.00    +0.000 A 
ATOM     10  C   UNL     1       8.656   9.783  18.455  0.00  0.00    +0.000 A 
ATOM     11  C   UNL     1       8.259  10.791  17.564  0.00  0.00    +0.000 A 
ATOM     12  C   UNL     1       8.710  12.103  17.724  0.00  0.00    +0.000 A 
ENDBRANCH   1  10
BRANCH   4  13
ATOM     13  C   UNL     1       6.630   5.793  16.441  0.00  0.00    +0.000 A 
ATOM     14  C   UNL     1       7.315   5.272  15.325  0.00  0.00    +0.000 A 
ATOM     15  C   UNL     1       6.708   4.357  14.461  0.00  0.00    +0.000 A 
ATOM     16  C   UNL     1       5.403   3.942  14.698  0.00  0.00    +0.000 A 
ATOM     17  C   UNL     1       4.703   4.443  15.795  0.00  0.00    +0.000 A 
ATOM     18  C   UNL     1       5.309   5.365  16.661  0.00  0.00    +0.000 A 
ATOM     19 BR   UNL     1       4.252   5.943  18.137  0.00  0.00    +0.000 Br
ENDBRANCH   4  13
TORSDOF 2
ENDMDL
