MODEL 1
REMARK VINA RESULT:      -7.0      0.000      0.000
REMARK  Name = 
REMARK  13 active torsions:
REMARK  status: ('A' for Active; 'I' for Inactive)
REMARK    1  A    between atoms: C_2  and  C_3
REMARK    2  A    between atoms: C_3  and  N_4
REMARK    3  A    between atoms: C_5  and  C_6
REMARK    4  A    between atoms: C_6  and  O_7
REMARK    5  A    between atoms: O_7  and  C_8
REMARK    6  A    between atoms: C_17  and  S_18
REMARK    7  A    between atoms: S_18  and  C_19
REMARK    8  A    between atoms: C_19  and  C_20
REMARK    9  A    between atoms: N_22  and  C_23
REMARK   10  A    between atoms: C_23  and  C_24
REMARK   11  A    between atoms: C_24  and  O_26
REMARK   12  A    between atoms: O_26  and  C_27
REMARK   13  A    between atoms: C_27  and  C_28
REMARK                            x       y       z     vdW  Elec       q    Type
REMARK                         _______ _______ _______ _____ _____    ______ ____
ROOT
ATOM      1  N   UNL     1       1.880   5.308  19.592  0.00  0.00    +0.000 N 
ATOM      2  C   UNL     1       2.184   6.666  19.534  0.00  0.00    +0.000 A 
ATOM      3  N   UNL     1       2.710   6.920  18.353  0.00  0.00    +0.000 NA
ATOM      4  N   UNL     1       2.777   5.750  17.645  0.00  0.00    +0.000 NA
ATOM      5  C   UNL     1       2.298   4.778  18.389  0.00  0.00    +0.000 A 
ENDROOT
BRANCH   1   6
ATOM      6  C   UNL     1       1.177   4.652  20.677  0.00  0.00    +0.000 C 
BRANCH   6   8
ATOM      7  C   UNL     1       1.976   2.456  21.700  0.00  0.00    +0.000 C 
ATOM      8  C   UNL     1       2.061   3.783  21.534  0.00  0.00    +0.000 C 
ENDBRANCH   6   8
ENDBRANCH   1   6
BRANCH   2   9
ATOM      9  C   UNL     1       2.089   7.671  20.646  0.00  0.00    +0.000 C 
BRANCH   9  10
ATOM     10  O   UNL     1       0.731   7.795  21.074  0.00  0.00    +0.000 OA
BRANCH  10  11
ATOM     11  C   UNL     1       0.327   9.056  21.456  0.00  0.00    +0.000 A 
ATOM     12  C   UNL     1       0.621  10.261  20.805  0.00  0.00    +0.000 A 
ATOM     13  C   UNL     1       0.143  11.477  21.313  0.00  0.00    +0.000 A 
ATOM     14  C   UNL     1      -0.632  11.495  22.477  0.00  0.00    +0.000 A 
ATOM     15 CL   UNL     1      -1.214  12.990  23.094  0.00  0.00    +0.000 Cl
ATOM     16  C   UNL     1      -0.930  10.304  23.127  0.00  0.00    +0.000 A 
ATOM     17  C   UNL     1      -0.451   9.092  22.618  0.00  0.00    +0.000 A 
ENDBRANCH  10  11
ENDBRANCH   9  10
ENDBRANCH   2   9
BRANCH   5  18
ATOM     18  S   UNL     1       2.094   3.179  17.733  0.00  0.00    +0.000 S 
BRANCH  18  19
ATOM     19  C   UNL     1       3.557   2.203  18.129  0.00  0.00    +0.000 C 
BRANCH  19  20
ATOM     20  C   UNL     1       4.757   3.051  18.574  0.00  0.00    +0.000 C 
ATOM     21  O   UNL     1       5.023   3.185  19.767  0.00  0.00    +0.000 OA
ATOM     22  N   UNL     1       5.452   3.725  17.590  0.00  0.00    +0.000 N 
ATOM     23  H   UNL     1       5.069   3.736  16.653  0.00  0.00    +0.000 HD
BRANCH  22  24
ATOM     24  C   UNL     1       6.503   4.689  17.919  0.00  0.00    +0.000 C 
BRANCH  24  25
ATOM     25  C   UNL     1       7.010   5.510  16.735  0.00  0.00    +0.000 C 
ATOM     26  O   UNL     1       6.856   6.722  16.633  0.00  0.00    +0.000 OA
BRANCH  25  27
ATOM     27  O   UNL     1       7.597   4.716  15.794  0.00  0.00    +0.000 OA
BRANCH  27  28
ATOM     28  C   UNL     1       7.181   4.962  14.446  0.00  0.00    +0.000 C 
ATOM     29  C   UNL     1       6.009   4.043  14.146  0.00  0.00    +0.000 C 
ENDBRANCH  27  28
ENDBRANCH  25  27
ENDBRANCH  24  25
ENDBRANCH  22  24
ENDBRANCH  19  20
ENDBRANCH  18  19
ENDBRANCH   5  18
TORSDOF 12
ENDMDL
MODEL 2
REMARK VINA RESULT:      -6.8      0.984      1.414
REMARK  Name = 
REMARK  13 active torsions:
REMARK  status: ('A' for Active; 'I' for Inactive)
REMARK    1  A    between atoms: C_2  and  C_3
REMARK    2  A    between atoms: C_3  and  N_4
REMARK    3  A    between atoms: C_5  and  C_6
REMARK    4  A    between atoms: C_6  and  O_7
REMARK    5  A    between atoms: O_7  and  C_8
REMARK    6  A    between atoms: C_17  and  S_18
REMARK    7  A    between atoms: S_18  and  C_19
REMARK    8  A    between atoms: C_19  and  C_20
REMARK    9  A    between atoms: N_22  and  C_23
REMARK   10  A    between atoms: C_23  and  C_24
REMARK   11  A    between atoms: C_24  and  O_26
REMARK   12  A    between atoms: O_26  and  C_27
REMARK   13  A    between atoms: C_27  and  C_28
REMARK                            x       y       z     vdW  Elec       q    Type
REMARK                         _______ _______ _______ _____ _____    ______ ____
ROOT
ATOM      1  N   UNL     1       1.911   5.450  19.597  0.00  0.00    +0.000 N 
ATOM      2  C   UNL     1       2.130   6.825  19.648  0.00  0.00    +0.000 A 
ATOM      3  N   UNL     1       2.659   7.200  18.502  0.00  0.00    +0.000 NA
ATOM      4  N   UNL     1       2.812   6.095  17.709  0.00  0.00    +0.000 NA
ATOM      5  C   UNL     1       2.383   5.041  18.367  0.00  0.00    +0.000 A 
ENDROOT
BRANCH   1   6
ATOM      6  C   UNL     1       1.233   4.670  20.612  0.00  0.00    +0.000 C 
BRANCH   6   8
ATOM      7  C   UNL     1       2.063   2.471  21.602  0.00  0.00    +0.000 C 
ATOM      8  C   UNL     1       2.155   3.795  21.422  0.00  0.00    +0.000 C 
ENDBRANCH   6   8
ENDBRANCH   1   6
BRANCH   2   9
ATOM      9  C   UNL     1       1.951   7.734  20.831  0.00  0.00    +0.000 C 
BRANCH   9  10
ATOM     10  O   UNL     1       0.591   8.163  20.912  0.00  0.00    +0.000 OA
BRANCH  10  11
ATOM     11  C   UNL     1       0.363   9.505  20.694  0.00  0.00    +0.000 A 
ATOM     12  C   UNL     1       0.191  10.493  21.673  0.00  0.00    +0.000 A 
ATOM     13  C   UNL     1      -0.038  11.825  21.304  0.00  0.00    +0.000 A 
ATOM     14  C   UNL     1      -0.097  12.179  19.952  0.00  0.00    +0.000 A 
ATOM     15 CL   UNL     1      -0.379  13.815  19.508  0.00  0.00    +0.000 Cl
ATOM     16  C   UNL     1       0.075  11.206  18.976  0.00  0.00    +0.000 A 
ATOM     17  C   UNL     1       0.303   9.876  19.347  0.00  0.00    +0.000 A 
ENDBRANCH  10  11
ENDBRANCH   9  10
ENDBRANCH   2   9
BRANCH   5  18
ATOM     18  S   UNL     1       2.293   3.487  17.587  0.00  0.00    +0.000 S 
BRANCH  18  19
ATOM     19  C   UNL     1       3.648   2.461  18.188  0.00  0.00    +0.000 C 
BRANCH  19  20
ATOM     20  C   UNL     1       4.888   3.266  18.600  0.00  0.00    +0.000 C 
ATOM     21  O   UNL     1       5.222   3.345  19.780  0.00  0.00    +0.000 OA
ATOM     22  N   UNL     1       5.544   3.965  17.607  0.00  0.00    +0.000 N 
ATOM     23  H   UNL     1       5.111   4.024  16.694  0.00  0.00    +0.000 HD
BRANCH  22  24
ATOM     24  C   UNL     1       6.632   4.894  17.915  0.00  0.00    +0.000 C 
BRANCH  24  25
ATOM     25  C   UNL     1       7.287   5.539  16.695  0.00  0.00    +0.000 C 
ATOM     26  O   UNL     1       7.511   6.741  16.601  0.00  0.00    +0.000 OA
BRANCH  25  27
ATOM     27  O   UNL     1       7.532   4.620  15.718  0.00  0.00    +0.000 OA
BRANCH  27  28
ATOM     28  C   UNL     1       7.051   4.975  14.416  0.00  0.00    +0.000 C 
ATOM     29  C   UNL     1       6.081   3.895  13.970  0.00  0.00    +0.000 C 
ENDBRANCH  27  28
ENDBRANCH  25  27
ENDBRANCH  24  25
ENDBRANCH  22  24
ENDBRANCH  19  20
ENDBRANCH  18  19
ENDBRANCH   5  18
TORSDOF 12
ENDMDL
MODEL 3
REMARK VINA RESULT:      -6.4      2.573      3.630
REMARK  Name = 
REMARK  13 active torsions:
REMARK  status: ('A' for Active; 'I' for Inactive)
REMARK    1  A    between atoms: C_2  and  C_3
REMARK    2  A    between atoms: C_3  and  N_4
REMARK    3  A    between atoms: C_5  and  C_6
REMARK    4  A    between atoms: C_6  and  O_7
REMARK    5  A    between atoms: O_7  and  C_8
REMARK    6  A    between atoms: C_17  and  S_18
REMARK    7  A    between atoms: S_18  and  C_19
REMARK    8  A    between atoms: C_19  and  C_20
REMARK    9  A    between atoms: N_22  and  C_23
REMARK   10  A    between atoms: C_23  and  C_24
REMARK   11  A    between atoms: C_24  and  O_26
REMARK   12  A    between atoms: O_26  and  C_27
REMARK   13  A    between atoms: C_27  and  C_28
REMARK                            x       y       z     vdW  Elec       q    Type
REMARK                         _______ _______ _______ _____ _____    ______ ____
ROOT
ATOM      1  N   UNL     1       3.082   6.044  18.012  0.00  0.00    +0.000 N 
ATOM      2  C   UNL     1       2.941   7.419  17.844  0.00  0.00    +0.000 A 
ATOM      3  N   UNL     1       3.872   7.828  17.006  0.00  0.00    +0.000 NA
ATOM      4  N   UNL     1       4.634   6.751  16.639  0.00  0.00    +0.000 NA
ATOM      5  C   UNL     1       4.176   5.682  17.254  0.00  0.00    +0.000 A 
ENDROOT
BRANCH   1   6
ATOM      6  C   UNL     1       2.178   5.194  18.762  0.00  0.00    +0.000 C 
BRANCH   6   8
ATOM      7  C   UNL     1       2.065   4.096  21.061  0.00  0.00    +0.000 C 
ATOM      8  C   UNL     1       2.717   4.770  20.103  0.00  0.00    +0.000 C 
ENDBRANCH   6   8
ENDBRANCH   1   6
BRANCH   2   9
ATOM      9  C   UNL     1       2.009   8.339  18.579  0.00  0.00    +0.000 C 
BRANCH   9  10
ATOM     10  O   UNL     1       2.058   8.060  19.980  0.00  0.00    +0.000 OA
BRANCH  10  11
ATOM     11  C   UNL     1       1.243   8.832  20.781  0.00  0.00    +0.000 A 
ATOM     12  C   UNL     1       1.238   8.865  22.182  0.00  0.00    +0.000 A 
ATOM     13  C   UNL     1       0.347   9.700  22.869  0.00  0.00    +0.000 A 
ATOM     14  C   UNL     1      -0.546  10.509  22.159  0.00  0.00    +0.000 A 
ATOM     15 CL   UNL     1      -1.636  11.531  23.008  0.00  0.00    +0.000 Cl
ATOM     16  C   UNL     1      -0.545  10.485  20.770  0.00  0.00    +0.000 A 
ATOM     17  C   UNL     1       0.345   9.649  20.087  0.00  0.00    +0.000 A 
ENDBRANCH  10  11
ENDBRANCH   9  10
ENDBRANCH   2   9
BRANCH   5  18
ATOM     18  S   UNL     1       4.823   4.108  16.892  0.00  0.00    +0.000 S 
BRANCH  18  19
ATOM     19  C   UNL     1       6.576   4.279  16.506  0.00  0.00    +0.000 C 
BRANCH  19  20
ATOM     20  C   UNL     1       6.857   4.465  15.009  0.00  0.00    +0.000 C 
ATOM     21  O   UNL     1       7.527   5.415  14.609  0.00  0.00    +0.000 OA
ATOM     22  N   UNL     1       6.250   3.582  14.139  0.00  0.00    +0.000 N 
ATOM     23  H   UNL     1       5.555   2.945  14.508  0.00  0.00    +0.000 HD
BRANCH  22  24
ATOM     24  C   UNL     1       6.315   3.768  12.689  0.00  0.00    +0.000 C 
BRANCH  24  25
ATOM     25  C   UNL     1       5.409   2.838  11.883  0.00  0.00    +0.000 C 
ATOM     26  O   UNL     1       5.729   1.703  11.548  0.00  0.00    +0.000 OA
BRANCH  25  27
ATOM     27  O   UNL     1       4.241   3.453  11.544  0.00  0.00    +0.000 OA
BRANCH  27  28
ATOM     28  C   UNL     1       4.122   3.812  10.162  0.00  0.00    +0.000 C 
ATOM     29  C   UNL     1       2.643   3.851   9.817  0.00  0.00    +0.000 C 
ENDBRANCH  27  28
ENDBRANCH  25  27
ENDBRANCH  24  25
ENDBRANCH  22  24
ENDBRANCH  19  20
ENDBRANCH  18  19
ENDBRANCH   5  18
TORSDOF 12
ENDMDL
MODEL 4
REMARK VINA RESULT:      -6.4      1.562      2.744
REMARK  Name = 
REMARK  13 active torsions:
REMARK  status: ('A' for Active; 'I' for Inactive)
REMARK    1  A    between atoms: C_2  and  C_3
REMARK    2  A    between atoms: C_3  and  N_4
REMARK    3  A    between atoms: C_5  and  C_6
REMARK    4  A    between atoms: C_6  and  O_7
REMARK    5  A    between atoms: O_7  and  C_8
REMARK    6  A    between atoms: C_17  and  S_18
REMARK    7  A    between atoms: S_18  and  C_19
REMARK    8  A    between atoms: C_19  and  C_20
REMARK    9  A    between atoms: N_22  and  C_23
REMARK   10  A    between atoms: C_23  and  C_24
REMARK   11  A    between atoms: C_24  and  O_26
REMARK   12  A    between atoms: O_26  and  C_27
REMARK   13  A    between atoms: C_27  and  C_28
REMARK                            x       y       z     vdW  Elec       q    Type
REMARK                         _______ _______ _______ _____ _____    ______ ____
ROOT
ATOM      1  N   UNL     1       2.281   6.411  19.146  0.00  0.00    +0.000 N 
ATOM      2  C   UNL     1       1.829   6.673  20.437  0.00  0.00    +0.000 A 
ATOM      3  N   UNL     1       1.567   5.522  21.023  0.00  0.00    +0.000 NA
ATOM      4  N   UNL     1       1.819   4.512  20.133  0.00  0.00    +0.000 NA
ATOM      5  C   UNL     1       2.229   5.040  19.001  0.00  0.00    +0.000 A 
ENDROOT
BRANCH   1   6
ATOM      6  C   UNL     1       2.788   7.402  18.217  0.00  0.00    +0.000 C 
BRANCH   6   8
ATOM      7  C   UNL     1       1.998   9.798  17.844  0.00  0.00    +0.000 C 
ATOM      8  C   UNL     1       1.788   8.475  17.871  0.00  0.00    +0.000 C 
ENDBRANCH   6   8
ENDBRANCH   1   6
BRANCH   2   9
ATOM      9  C   UNL     1       1.531   8.014  21.045  0.00  0.00    +0.000 C 
BRANCH   9  10
ATOM     10  O   UNL     1       0.163   8.357  20.818  0.00  0.00    +0.000 OA
BRANCH  10  11
ATOM     11  C   UNL     1      -0.252   9.568  21.330  0.00  0.00    +0.000 A 
ATOM     12  C   UNL     1      -0.351  10.780  20.634  0.00  0.00    +0.000 A 
ATOM     13  C   UNL     1      -0.787  11.940  21.287  0.00  0.00    +0.000 A 
ATOM     14  C   UNL     1      -1.130  11.896  22.642  0.00  0.00    +0.000 A 
ATOM     15 CL   UNL     1      -1.664  13.323  23.437  0.00  0.00    +0.000 Cl
ATOM     16  C   UNL     1      -1.038  10.697  23.338  0.00  0.00    +0.000 A 
ATOM     17  C   UNL     1      -0.600   9.541  22.684  0.00  0.00    +0.000 A 
ENDBRANCH  10  11
ENDBRANCH   9  10
ENDBRANCH   2   9
BRANCH   5  18
ATOM     18  S   UNL     1       2.784   4.024  17.701  0.00  0.00    +0.000 S 
BRANCH  18  19
ATOM     19  C   UNL     1       4.441   3.434  18.096  0.00  0.00    +0.000 C 
BRANCH  19  20
ATOM     20  C   UNL     1       5.557   4.346  17.568  0.00  0.00    +0.000 C 
ATOM     21  O   UNL     1       6.053   5.211  18.286  0.00  0.00    +0.000 OA
ATOM     22  N   UNL     1       5.902   4.214  16.238  0.00  0.00    +0.000 N 
ATOM     23  H   UNL     1       5.326   3.627  15.648  0.00  0.00    +0.000 HD
BRANCH  22  24
ATOM     24  C   UNL     1       6.831   5.143  15.592  0.00  0.00    +0.000 C 
BRANCH  24  25
ATOM     25  C   UNL     1       7.099   4.856  14.116  0.00  0.00    +0.000 C 
ATOM     26  O   UNL     1       7.773   5.583  13.394  0.00  0.00    +0.000 OA
BRANCH  25  27
ATOM     27  O   UNL     1       6.450   3.731  13.703  0.00  0.00    +0.000 OA
BRANCH  27  28
ATOM     28  C   UNL     1       6.410   3.539  12.283  0.00  0.00    +0.000 C 
ATOM     29  C   UNL     1       4.973   3.237  11.896  0.00  0.00    +0.000 C 
ENDBRANCH  27  28
ENDBRANCH  25  27
ENDBRANCH  24  25
ENDBRANCH  22  24
ENDBRANCH  19  20
ENDBRANCH  18  19
ENDBRANCH   5  18
TORSDOF 12
ENDMDL
MODEL 5
REMARK VINA RESULT:      -6.4      2.653      3.201
REMARK  Name = 
REMARK  13 active torsions:
REMARK  status: ('A' for Active; 'I' for Inactive)
REMARK    1  A    between atoms: C_2  and  C_3
REMARK    2  A    between atoms: C_3  and  N_4
REMARK    3  A    between atoms: C_5  and  C_6
REMARK    4  A    between atoms: C_6  and  O_7
REMARK    5  A    between atoms: O_7  and  C_8
REMARK    6  A    between atoms: C_17  and  S_18
REMARK    7  A    between atoms: S_18  and  C_19
REMARK    8  A    between atoms: C_19  and  C_20
REMARK    9  A    between atoms: N_22  and  C_23
REMARK   10  A    between atoms: C_23  and  C_24
REMARK   11  A    between atoms: C_24  and  O_26
REMARK   12  A    between atoms: O_26  and  C_27
REMARK   13  A    between atoms: C_27  and  C_28
REMARK                            x       y       z     vdW  Elec       q    Type
REMARK                         _______ _______ _______ _____ _____    ______ ____
ROOT
ATOM      1  N   UNL     1       2.227   6.957  19.663  0.00  0.00    +0.000 N 
ATOM      2  C   UNL     1       1.871   8.231  19.227  0.00  0.00    +0.000 A 
ATOM      3  N   UNL     1       2.552   8.496  18.131  0.00  0.00    +0.000 NA
ATOM      4  N   UNL     1       3.363   7.429  17.852  0.00  0.00    +0.000 NA
ATOM      5  C   UNL     1       3.186   6.512  18.777  0.00  0.00    +0.000 A 
ENDROOT
BRANCH   1   6
ATOM      6  C   UNL     1       1.615   6.247  20.768  0.00  0.00    +0.000 C 
BRANCH   6   8
ATOM      7  C   UNL     1       1.427   3.719  21.053  0.00  0.00    +0.000 C 
ATOM      8  C   UNL     1       1.143   4.861  20.412  0.00  0.00    +0.000 C 
ENDBRANCH   6   8
ENDBRANCH   1   6
BRANCH   2   9
ATOM      9  C   UNL     1       0.988   9.223  19.930  0.00  0.00    +0.000 C 
BRANCH   9  10
ATOM     10  O   UNL     1       0.800  10.374  19.106  0.00  0.00    +0.000 OA
BRANCH  10  11
ATOM     11  C   UNL     1      -0.505  10.693  18.796  0.00  0.00    +0.000 A 
ATOM     12  C   UNL     1      -1.317  11.626  19.455  0.00  0.00    +0.000 A 
ATOM     13  C   UNL     1      -2.634  11.845  19.031  0.00  0.00    +0.000 A 
ATOM     14  C   UNL     1      -3.149  11.133  17.944  0.00  0.00    +0.000 A 
ATOM     15 CL   UNL     1      -4.766  11.407  17.429  0.00  0.00    +0.000 Cl
ATOM     16  C   UNL     1      -2.350  10.208  17.283  0.00  0.00    +0.000 A 
ATOM     17  C   UNL     1      -1.036   9.990  17.710  0.00  0.00    +0.000 A 
ENDBRANCH  10  11
ENDBRANCH   9  10
ENDBRANCH   2   9
BRANCH   5  18
ATOM     18  S   UNL     1       3.955   4.957  18.640  0.00  0.00    +0.000 S 
BRANCH  18  19
ATOM     19  C   UNL     1       5.642   5.091  19.261  0.00  0.00    +0.000 C 
BRANCH  19  20
ATOM     20  C   UNL     1       6.708   4.701  18.227  0.00  0.00    +0.000 C 
ATOM     21  O   UNL     1       7.904   4.789  18.494  0.00  0.00    +0.000 OA
ATOM     22  N   UNL     1       6.264   4.346  16.969  0.00  0.00    +0.000 N 
ATOM     23  H   UNL     1       5.286   4.482  16.747  0.00  0.00    +0.000 HD
BRANCH  22  24
ATOM     24  C   UNL     1       7.197   4.119  15.864  0.00  0.00    +0.000 C 
BRANCH  24  25
ATOM     25  C   UNL     1       6.660   4.501  14.485  0.00  0.00    +0.000 C 
ATOM     26  O   UNL     1       6.439   5.656  14.139  0.00  0.00    +0.000 OA
BRANCH  25  27
ATOM     27  O   UNL     1       6.409   3.397  13.726  0.00  0.00    +0.000 OA
BRANCH  27  28
ATOM     28  C   UNL     1       6.256   3.645  12.324  0.00  0.00    +0.000 C 
ATOM     29  C   UNL     1       4.818   3.326  11.950  0.00  0.00    +0.000 C 
ENDBRANCH  27  28
ENDBRANCH  25  27
ENDBRANCH  24  25
ENDBRANCH  22  24
ENDBRANCH  19  20
ENDBRANCH  18  19
ENDBRANCH   5  18
TORSDOF 12
ENDMDL
MODEL 6
REMARK VINA RESULT:      -6.4      2.447      3.660
REMARK  Name = 
REMARK  13 active torsions:
REMARK  status: ('A' for Active; 'I' for Inactive)
REMARK    1  A    between atoms: C_2  and  C_3
REMARK    2  A    between atoms: C_3  and  N_4
REMARK    3  A    between atoms: C_5  and  C_6
REMARK    4  A    between atoms: C_6  and  O_7
REMARK    5  A    between atoms: O_7  and  C_8
REMARK    6  A    between atoms: C_17  and  S_18
REMARK    7  A    between atoms: S_18  and  C_19
REMARK    8  A    between atoms: C_19  and  C_20
REMARK    9  A    between atoms: N_22  and  C_23
REMARK   10  A    between atoms: C_23  and  C_24
REMARK   11  A    between atoms: C_24  and  O_26
REMARK   12  A    between atoms: O_26  and  C_27
REMARK   13  A    between atoms: C_27  and  C_28
REMARK                            x       y       z     vdW  Elec       q    Type
REMARK                         _______ _______ _______ _____ _____    ______ ____
ROOT
ATOM      1  N   UNL     1       1.350   8.782  19.559  0.00  0.00    +0.000 N 
ATOM      2  C   UNL     1       1.328   9.888  18.714  0.00  0.00    +0.000 A 
ATOM      3  N   UNL     1       2.142   9.652  17.706  0.00  0.00    +0.000 NA
ATOM      4  N   UNL     1       2.713   8.420  17.885  0.00  0.00    +0.000 NA
ATOM      5  C   UNL     1       2.256   7.903  19.004  0.00  0.00    +0.000 A 
ENDROOT
BRANCH   1   6
ATOM      6  C   UNL     1       0.501   8.596  20.719  0.00  0.00    +0.000 C 
BRANCH   6   8
ATOM      7  C   UNL     1       0.444   9.527  23.094  0.00  0.00    +0.000 C 
ATOM      8  C   UNL     1       1.101   9.117  22.000  0.00  0.00    +0.000 C 
ENDBRANCH   6   8
ENDBRANCH   1   6
BRANCH   2   9
ATOM      9  C   UNL     1       0.635  11.201  18.946  0.00  0.00    +0.000 C 
BRANCH   9  10
ATOM     10  O   UNL     1      -0.658  11.181  18.338  0.00  0.00    +0.000 OA
BRANCH  10  11
ATOM     11  C   UNL     1      -1.700  11.646  19.112  0.00  0.00    +0.000 A 
ATOM     12  C   UNL     1      -3.037  11.784  18.717  0.00  0.00    +0.000 A 
ATOM     13  C   UNL     1      -3.994  12.278  19.613  0.00  0.00    +0.000 A 
ATOM     14  C   UNL     1      -3.621  12.638  20.911  0.00  0.00    +0.000 A 
ATOM     15 CL   UNL     1      -4.801  13.243  22.005  0.00  0.00    +0.000 Cl
ATOM     16  C   UNL     1      -2.298  12.501  21.311  0.00  0.00    +0.000 A 
ATOM     17  C   UNL     1      -1.344  12.009  20.414  0.00  0.00    +0.000 A 
ENDBRANCH  10  11
ENDBRANCH   9  10
ENDBRANCH   2   9
BRANCH   5  18
ATOM     18  S   UNL     1       2.664   6.272  19.456  0.00  0.00    +0.000 S 
BRANCH  18  19
ATOM     19  C   UNL     1       2.596   5.232  17.985  0.00  0.00    +0.000 C 
BRANCH  19  20
ATOM     20  C   UNL     1       3.886   4.437  17.738  0.00  0.00    +0.000 C 
ATOM     21  O   UNL     1       4.525   3.970  18.679  0.00  0.00    +0.000 OA
ATOM     22  N   UNL     1       4.337   4.356  16.437  0.00  0.00    +0.000 N 
ATOM     23  H   UNL     1       3.881   4.924  15.733  0.00  0.00    +0.000 HD
BRANCH  22  24
ATOM     24  C   UNL     1       5.638   3.768  16.112  0.00  0.00    +0.000 C 
BRANCH  24  25
ATOM     25  C   UNL     1       6.738   4.781  15.802  0.00  0.00    +0.000 C 
ATOM     26  O   UNL     1       6.631   5.662  14.955  0.00  0.00    +0.000 OA
BRANCH  25  27
ATOM     27  O   UNL     1       7.858   4.541  16.542  0.00  0.00    +0.000 OA
BRANCH  27  28
ATOM     28  C   UNL     1       7.696   4.696  17.957  0.00  0.00    +0.000 C 
ATOM     29  C   UNL     1       7.641   6.184  18.257  0.00  0.00    +0.000 C 
ENDBRANCH  27  28
ENDBRANCH  25  27
ENDBRANCH  24  25
ENDBRANCH  22  24
ENDBRANCH  19  20
ENDBRANCH  18  19
ENDBRANCH   5  18
TORSDOF 12
ENDMDL
MODEL 7
REMARK VINA RESULT:      -6.3      1.934      2.587
REMARK  Name = 
REMARK  13 active torsions:
REMARK  status: ('A' for Active; 'I' for Inactive)
REMARK    1  A    between atoms: C_2  and  C_3
REMARK    2  A    between atoms: C_3  and  N_4
REMARK    3  A    between atoms: C_5  and  C_6
REMARK    4  A    between atoms: C_6  and  O_7
REMARK    5  A    between atoms: O_7  and  C_8
REMARK    6  A    between atoms: C_17  and  S_18
REMARK    7  A    between atoms: S_18  and  C_19
REMARK    8  A    between atoms: C_19  and  C_20
REMARK    9  A    between atoms: N_22  and  C_23
REMARK   10  A    between atoms: C_23  and  C_24
REMARK   11  A    between atoms: C_24  and  O_26
REMARK   12  A    between atoms: O_26  and  C_27
REMARK   13  A    between atoms: C_27  and  C_28
REMARK                            x       y       z     vdW  Elec       q    Type
REMARK                         _______ _______ _______ _____ _____    ______ ____
ROOT
ATOM      1  N   UNL     1       2.653   4.722  20.349  0.00  0.00    +0.000 N 
ATOM      2  C   UNL     1       2.760   6.077  20.045  0.00  0.00    +0.000 A 
ATOM      3  N   UNL     1       3.909   6.271  19.430  0.00  0.00    +0.000 NA
ATOM      4  N   UNL     1       4.567   5.074  19.346  0.00  0.00    +0.000 NA
ATOM      5  C   UNL     1       3.827   4.146  19.912  0.00  0.00    +0.000 A 
ENDROOT
BRANCH   1   6
ATOM      6  C   UNL     1       1.486   4.080  20.920  0.00  0.00    +0.000 C 
BRANCH   6   8
ATOM      7  C   UNL     1       0.632   2.479  19.127  0.00  0.00    +0.000 C 
ATOM      8  C   UNL     1       0.509   3.573  19.890  0.00  0.00    +0.000 C 
ENDBRANCH   6   8
ENDBRANCH   1   6
BRANCH   2   9
ATOM      9  C   UNL     1       1.828   7.181  20.456  0.00  0.00    +0.000 C 
BRANCH   9  10
ATOM     10  O   UNL     1       1.849   8.223  19.479  0.00  0.00    +0.000 OA
BRANCH  10  11
ATOM     11  C   UNL     1       0.969   9.265  19.683  0.00  0.00    +0.000 A 
ATOM     12  C   UNL     1       0.393   9.646  20.902  0.00  0.00    +0.000 A 
ATOM     13  C   UNL     1      -0.493  10.730  20.960  0.00  0.00    +0.000 A 
ATOM     14  C   UNL     1      -0.809  11.441  19.799  0.00  0.00    +0.000 A 
ATOM     15 CL   UNL     1      -1.897  12.769  19.878  0.00  0.00    +0.000 Cl
ATOM     16  C   UNL     1      -0.240  11.072  18.587  0.00  0.00    +0.000 A 
ATOM     17  C   UNL     1       0.643   9.988  18.531  0.00  0.00    +0.000 A 
ENDBRANCH  10  11
ENDBRANCH   9  10
ENDBRANCH   2   9
BRANCH   5  18
ATOM     18  S   UNL     1       4.301   2.472  19.843  0.00  0.00    +0.000 S 
BRANCH  18  19
ATOM     19  C   UNL     1       4.022   1.862  18.170  0.00  0.00    +0.000 C 
BRANCH  19  20
ATOM     20  C   UNL     1       4.003   2.972  17.109  0.00  0.00    +0.000 C 
ATOM     21  O   UNL     1       2.939   3.407  16.675  0.00  0.00    +0.000 OA
ATOM     22  N   UNL     1       5.221   3.382  16.605  0.00  0.00    +0.000 N 
ATOM     23  H   UNL     1       6.047   2.853  16.854  0.00  0.00    +0.000 HD
BRANCH  22  24
ATOM     24  C   UNL     1       5.308   4.310  15.476  0.00  0.00    +0.000 C 
BRANCH  24  25
ATOM     25  C   UNL     1       5.692   5.740  15.853  0.00  0.00    +0.000 C 
ATOM     26  O   UNL     1       5.144   6.734  15.387  0.00  0.00    +0.000 OA
BRANCH  25  27
ATOM     27  O   UNL     1       6.745   5.761  16.717  0.00  0.00    +0.000 OA
BRANCH  27  28
ATOM     28  C   UNL     1       6.963   7.013  17.379  0.00  0.00    +0.000 C 
ATOM     29  C   UNL     1       7.951   6.775  18.509  0.00  0.00    +0.000 C 
ENDBRANCH  27  28
ENDBRANCH  25  27
ENDBRANCH  24  25
ENDBRANCH  22  24
ENDBRANCH  19  20
ENDBRANCH  18  19
ENDBRANCH   5  18
TORSDOF 12
ENDMDL
MODEL 8
REMARK VINA RESULT:      -6.3      3.156      4.181
REMARK  Name = 
REMARK  13 active torsions:
REMARK  status: ('A' for Active; 'I' for Inactive)
REMARK    1  A    between atoms: C_2  and  C_3
REMARK    2  A    between atoms: C_3  and  N_4
REMARK    3  A    between atoms: C_5  and  C_6
REMARK    4  A    between atoms: C_6  and  O_7
REMARK    5  A    between atoms: O_7  and  C_8
REMARK    6  A    between atoms: C_17  and  S_18
REMARK    7  A    between atoms: S_18  and  C_19
REMARK    8  A    between atoms: C_19  and  C_20
REMARK    9  A    between atoms: N_22  and  C_23
REMARK   10  A    between atoms: C_23  and  C_24
REMARK   11  A    between atoms: C_24  and  O_26
REMARK   12  A    between atoms: O_26  and  C_27
REMARK   13  A    between atoms: C_27  and  C_28
REMARK                            x       y       z     vdW  Elec       q    Type
REMARK                         _______ _______ _______ _____ _____    ______ ____
ROOT
ATOM      1  N   UNL     1       1.566   8.163  19.665  0.00  0.00    +0.000 N 
ATOM      2  C   UNL     1       1.697   9.077  18.622  0.00  0.00    +0.000 A 
ATOM      3  N   UNL     1       2.517   8.565  17.727  0.00  0.00    +0.000 NA
ATOM      4  N   UNL     1       2.943   7.343  18.174  0.00  0.00    +0.000 NA
ATOM      5  C   UNL     1       2.390   7.106  19.343  0.00  0.00    +0.000 A 
ENDROOT
BRANCH   1   6
ATOM      6  C   UNL     1       0.659   8.297  20.788  0.00  0.00    +0.000 C 
BRANCH   6   8
ATOM      7  C   UNL     1       0.654   9.479  23.048  0.00  0.00    +0.000 C 
ATOM      8  C   UNL     1       1.287   8.931  22.002  0.00  0.00    +0.000 C 
ENDBRANCH   6   8
ENDBRANCH   1   6
BRANCH   2   9
ATOM      9  C   UNL     1       1.143  10.472  18.555  0.00  0.00    +0.000 C 
BRANCH   9  10
ATOM     10  O   UNL     1      -0.027  10.569  19.369  0.00  0.00    +0.000 OA
BRANCH  10  11
ATOM     11  C   UNL     1      -1.220  10.740  18.701  0.00  0.00    +0.000 A 
ATOM     12  C   UNL     1      -1.613  10.101  17.517  0.00  0.00    +0.000 A 
ATOM     13  C   UNL     1      -2.862  10.377  16.943  0.00  0.00    +0.000 A 
ATOM     14  C   UNL     1      -3.727  11.293  17.550  0.00  0.00    +0.000 A 
ATOM     15 CL   UNL     1      -5.256  11.625  16.841  0.00  0.00    +0.000 Cl
ATOM     16  C   UNL     1      -3.345  11.927  18.726  0.00  0.00    +0.000 A 
ATOM     17  C   UNL     1      -2.098  11.652  19.295  0.00  0.00    +0.000 A 
ENDBRANCH  10  11
ENDBRANCH   9  10
ENDBRANCH   2   9
BRANCH   5  18
ATOM     18  S   UNL     1       2.600   5.565  20.124  0.00  0.00    +0.000 S 
BRANCH  18  19
ATOM     19  C   UNL     1       3.360   4.423  18.954  0.00  0.00    +0.000 C 
BRANCH  19  20
ATOM     20  C   UNL     1       4.894   4.453  18.979  0.00  0.00    +0.000 C 
ATOM     21  O   UNL     1       5.533   3.520  19.463  0.00  0.00    +0.000 OA
ATOM     22  N   UNL     1       5.510   5.603  18.527  0.00  0.00    +0.000 N 
ATOM     23  H   UNL     1       4.933   6.410  18.327  0.00  0.00    +0.000 HD
BRANCH  22  24
ATOM     24  C   UNL     1       6.954   5.802  18.662  0.00  0.00    +0.000 C 
BRANCH  24  25
ATOM     25  C   UNL     1       7.532   6.904  17.777  0.00  0.00    +0.000 C 
ATOM     26  O   UNL     1       7.356   6.964  16.564  0.00  0.00    +0.000 OA
BRANCH  25  27
ATOM     27  O   UNL     1       8.307   7.765  18.496  0.00  0.00    +0.000 OA
BRANCH  27  28
ATOM     28  C   UNL     1       8.301   9.121  18.032  0.00  0.00    +0.000 C 
ATOM     29  C   UNL     1       9.116   9.950  19.010  0.00  0.00    +0.000 C 
ENDBRANCH  27  28
ENDBRANCH  25  27
ENDBRANCH  24  25
ENDBRANCH  22  24
ENDBRANCH  19  20
ENDBRANCH  18  19
ENDBRANCH   5  18
TORSDOF 12
ENDMDL
MODEL 9
REMARK VINA RESULT:      -6.3      4.229      7.781
REMARK  Name = 
REMARK  13 active torsions:
REMARK  status: ('A' for Active; 'I' for Inactive)
REMARK    1  A    between atoms: C_2  and  C_3
REMARK    2  A    between atoms: C_3  and  N_4
REMARK    3  A    between atoms: C_5  and  C_6
REMARK    4  A    between atoms: C_6  and  O_7
REMARK    5  A    between atoms: O_7  and  C_8
REMARK    6  A    between atoms: C_17  and  S_18
REMARK    7  A    between atoms: S_18  and  C_19
REMARK    8  A    between atoms: C_19  and  C_20
REMARK    9  A    between atoms: N_22  and  C_23
REMARK   10  A    between atoms: C_23  and  C_24
REMARK   11  A    between atoms: C_24  and  O_26
REMARK   12  A    between atoms: O_26  and  C_27
REMARK   13  A    between atoms: C_27  and  C_28
REMARK                            x       y       z     vdW  Elec       q    Type
REMARK                         _______ _______ _______ _____ _____    ______ ____
ROOT
ATOM      1  N   UNL     1       5.945   6.244  17.990  0.00  0.00    +0.000 N 
ATOM      2  C   UNL     1       7.224   6.692  18.312  0.00  0.00    +0.000 A 
ATOM      3  N   UNL     1       7.686   5.945  19.295  0.00  0.00    +0.000 NA
ATOM      4  N   UNL     1       6.726   5.032  19.637  0.00  0.00    +0.000 NA
ATOM      5  C   UNL     1       5.674   5.218  18.871  0.00  0.00    +0.000 A 
ENDROOT
BRANCH   1   6
ATOM      6  C   UNL     1       5.143   6.724  16.882  0.00  0.00    +0.000 C 
BRANCH   6   8
ATOM      7  C   UNL     1       5.367   4.719  15.321  0.00  0.00    +0.000 C 
ATOM      8  C   UNL     1       5.438   6.033  15.576  0.00  0.00    +0.000 C 
ENDBRANCH   6   8
ENDBRANCH   1   6
BRANCH   2   9
ATOM      9  C   UNL     1       7.932   7.900  17.769  0.00  0.00    +0.000 C 
BRANCH   9  10
ATOM     10  O   UNL     1       8.736   8.492  18.791  0.00  0.00    +0.000 OA
BRANCH  10  11
ATOM     11  C   UNL     1       8.902   9.858  18.719  0.00  0.00    +0.000 A 
ATOM     12  C   UNL     1       8.463  10.701  17.689  0.00  0.00    +0.000 A 
ATOM     13  C   UNL     1       8.707  12.079  17.747  0.00  0.00    +0.000 A 
ATOM     14  C   UNL     1       9.392  12.626  18.836  0.00  0.00    +0.000 A 
ATOM     15 CL   UNL     1       9.688  14.318  18.900  0.00  0.00    +0.000 Cl
ATOM     16  C   UNL     1       9.829  11.798  19.863  0.00  0.00    +0.000 A 
ATOM     17  C   UNL     1       9.585  10.422  19.802  0.00  0.00    +0.000 A 
ENDBRANCH  10  11
ENDBRANCH   9  10
ENDBRANCH   2   9
BRANCH   5  18
ATOM     18  S   UNL     1       4.323   4.123  18.940  0.00  0.00    +0.000 S 
BRANCH  18  19
ATOM     19  C   UNL     1       2.801   5.072  18.768  0.00  0.00    +0.000 C 
BRANCH  19  20
ATOM     20  C   UNL     1       2.236   5.569  20.106  0.00  0.00    +0.000 C 
ATOM     21  O   UNL     1       2.012   4.783  21.024  0.00  0.00    +0.000 OA
ATOM     22  N   UNL     1       1.905   6.907  20.192  0.00  0.00    +0.000 N 
ATOM     23  H   UNL     1       1.925   7.463  19.346  0.00  0.00    +0.000 HD
BRANCH  22  24
ATOM     24  C   UNL     1       1.207   7.449  21.358  0.00  0.00    +0.000 C 
BRANCH  24  25
ATOM     25  C   UNL     1       1.380   8.953  21.565  0.00  0.00    +0.000 C 
ATOM     26  O   UNL     1       1.684   9.461  22.639  0.00  0.00    +0.000 OA
BRANCH  25  27
ATOM     27  O   UNL     1       1.099   9.647  20.425  0.00  0.00    +0.000 OA
BRANCH  27  28
ATOM     28  C   UNL     1      -0.293   9.897  20.194  0.00  0.00    +0.000 C 
ATOM     29  C   UNL     1      -0.696  11.094  21.038  0.00  0.00    +0.000 C 
ENDBRANCH  27  28
ENDBRANCH  25  27
ENDBRANCH  24  25
ENDBRANCH  22  24
ENDBRANCH  19  20
ENDBRANCH  18  19
ENDBRANCH   5  18
TORSDOF 12
ENDMDL
