MODEL 1
REMARK VINA RESULT:      -7.3      0.000      0.000
REMARK  Name = 
REMARK  10 active torsions:
REMARK  status: ('A' for Active; 'I' for Inactive)
REMARK    1  A    between atoms: C_1  and  O_2
REMARK    2  A    between atoms: O_2  and  C_3
REMARK    3  A    between atoms: C_6  and  N_7
REMARK    4  A    between atoms: N_7  and  C_8
REMARK    5  A    between atoms: C_9  and  C_10
REMARK    6  A    between atoms: C_17  and  C_18
REMARK    7  A    between atoms: N_20  and  C_21
REMARK    8  A    between atoms: C_26  and  C_27
REMARK    9  A    between atoms: C_28  and  C_29
REMARK   10  A    between atoms: C_29  and  O_31
REMARK                            x       y       z     vdW  Elec       q    Type
REMARK                         _______ _______ _______ _____ _____    ______ ____
ROOT
ATOM      1  C   UNL     1      -4.139  12.773  19.974  0.00  0.00    +0.000 A 
ATOM      2  C   UNL     1      -4.762  11.825  19.145  0.00  0.00    +0.000 A 
ATOM      3  C   UNL     1      -5.997  11.551  19.811  0.00  0.00    +0.000 A 
ATOM      4  C   UNL     1      -7.086  10.579  19.523  0.00  0.00    +0.000 C 
ATOM      5  N   UNL     1      -6.157  12.297  20.900  0.00  0.00    +0.000 NA
ATOM      6  N   UNL     1      -5.081  13.100  20.971  0.00  0.00    +0.000 N 
ENDROOT
BRANCH   2   7
ATOM      7  C   UNL     1      -4.182  11.222  17.927  0.00  0.00    +0.000 A 
ATOM      8  C   UNL     1      -3.135  10.288  18.008  0.00  0.00    +0.000 A 
ATOM      9  C   UNL     1      -2.544   9.747  16.859  0.00  0.00    +0.000 A 
ATOM     10  C   UNL     1      -2.943  10.191  15.611  0.00  0.00    +0.000 A 
ATOM     11  F   UNL     1      -2.328   9.728  14.515  0.00  0.00    +0.000 F 
ATOM     12  C   UNL     1      -3.967  11.117  15.488  0.00  0.00    +0.000 A 
ATOM     13  C   UNL     1      -4.617  11.586  16.637  0.00  0.00    +0.000 A 
ENDBRANCH   2   7
BRANCH   6  14
ATOM     14  C   UNL     1      -5.008  14.080  22.016  0.00  0.00    +0.000 A 
ATOM     15  C   UNL     1      -4.408  13.737  23.241  0.00  0.00    +0.000 A 
ATOM     16  C   UNL     1      -4.316  14.664  24.282  0.00  0.00    +0.000 A 
ATOM     17  C   UNL     1      -4.800  15.954  24.111  0.00  0.00    +0.000 A 
ATOM     18  C   UNL     1      -5.367  16.324  22.893  0.00  0.00    +0.000 A 
ATOM     19  C   UNL     1      -5.482  15.405  21.831  0.00  0.00    +0.000 A 
ATOM     20  C   UNL     1      -6.130  15.905  20.565  0.00  0.00    +0.000 C 
ENDBRANCH   6  14
BRANCH   1  21
ATOM     21  N   UNL     1      -2.867  13.302  20.009  0.00  0.00    +0.000 N 
ATOM     22  H   UNL     1      -2.654  14.020  19.317  0.00  0.00    +0.000 HD
BRANCH  21  26
ATOM     23  C   UNL     1       0.477  11.082  21.388  0.00  0.00    +0.000 A 
ATOM     24  C   UNL     1      -0.691  11.155  22.143  0.00  0.00    +0.000 A 
ATOM     25  C   UNL     1      -1.758  11.957  21.736  0.00  0.00    +0.000 A 
ATOM     26  C   UNL     1      -1.708  12.667  20.529  0.00  0.00    +0.000 A 
ATOM     27  C   UNL     1      -0.486  12.657  19.819  0.00  0.00    +0.000 A 
ATOM     28  C   UNL     1       0.586  11.852  20.233  0.00  0.00    +0.000 A 
BRANCH  23  30
ATOM     29  C   UNL     1       1.049   8.862  22.002  0.00  0.00    +0.000 C 
ATOM     30  O   UNL     1       1.423  10.229  21.877  0.00  0.00    +0.000 OA
ENDBRANCH  23  30
BRANCH  27  31
ATOM     31  C   UNL     1      -0.288  13.431  18.573  0.00  0.00    +0.000 C 
ATOM     32  O   UNL     1       0.438  14.409  18.495  0.00  0.00    +0.000 OA
BRANCH  31  33
ATOM     33  O   UNL     1      -1.010  12.949  17.538  0.00  0.00    +0.000 OA
ATOM     34  H   UNL     1      -0.916  11.981  17.413  0.00  0.00    +0.000 HD
ENDBRANCH  31  33
ENDBRANCH  27  31
ENDBRANCH  21  26
ENDBRANCH   1  21
TORSDOF 7
ENDMDL
MODEL 2
REMARK VINA RESULT:      -7.2      0.620      1.383
REMARK  Name = 
REMARK  10 active torsions:
REMARK  status: ('A' for Active; 'I' for Inactive)
REMARK    1  A    between atoms: C_1  and  O_2
REMARK    2  A    between atoms: O_2  and  C_3
REMARK    3  A    between atoms: C_6  and  N_7
REMARK    4  A    between atoms: N_7  and  C_8
REMARK    5  A    between atoms: C_9  and  C_10
REMARK    6  A    between atoms: C_17  and  C_18
REMARK    7  A    between atoms: N_20  and  C_21
REMARK    8  A    between atoms: C_26  and  C_27
REMARK    9  A    between atoms: C_28  and  C_29
REMARK   10  A    between atoms: C_29  and  O_31
REMARK                            x       y       z     vdW  Elec       q    Type
REMARK                         _______ _______ _______ _____ _____    ______ ____
ROOT
ATOM      1  C   UNL     1      -3.853  12.733  20.095  0.00  0.00    +0.000 A 
ATOM      2  C   UNL     1      -4.589  11.867  19.270  0.00  0.00    +0.000 A 
ATOM      3  C   UNL     1      -5.826  11.703  19.968  0.00  0.00    +0.000 A 
ATOM      4  C   UNL     1      -7.013  10.848  19.698  0.00  0.00    +0.000 C 
ATOM      5  N   UNL     1      -5.882  12.442  21.073  0.00  0.00    +0.000 NA
ATOM      6  N   UNL     1      -4.729  13.134  21.124  0.00  0.00    +0.000 N 
ENDROOT
BRANCH   2   7
ATOM      7  C   UNL     1      -4.106  11.232  18.026  0.00  0.00    +0.000 A 
ATOM      8  C   UNL     1      -3.132  10.218  18.061  0.00  0.00    +0.000 A 
ATOM      9  C   UNL     1      -2.630   9.644  16.886  0.00  0.00    +0.000 A 
ATOM     10  C   UNL     1      -3.042  10.128  15.657  0.00  0.00    +0.000 A 
ATOM     11  F   UNL     1      -2.508   9.629  14.534  0.00  0.00    +0.000 F 
ATOM     12  C   UNL     1      -3.995  11.131  15.580  0.00  0.00    +0.000 A 
ATOM     13  C   UNL     1      -4.561  11.639  16.757  0.00  0.00    +0.000 A 
ENDBRANCH   2   7
BRANCH   6  14
ATOM     14  C   UNL     1      -4.531  14.083  22.180  0.00  0.00    +0.000 A 
ATOM     15  C   UNL     1      -4.809  15.442  21.946  0.00  0.00    +0.000 A 
ATOM     16  C   UNL     1      -4.630  16.396  22.951  0.00  0.00    +0.000 A 
ATOM     17  C   UNL     1      -4.194  16.008  24.211  0.00  0.00    +0.000 A 
ATOM     18  C   UNL     1      -3.946  14.662  24.472  0.00  0.00    +0.000 A 
ATOM     19  C   UNL     1      -4.108  13.682  23.474  0.00  0.00    +0.000 A 
ATOM     20  C   UNL     1      -3.792  12.259  23.860  0.00  0.00    +0.000 C 
ENDBRANCH   6  14
BRANCH   1  21
ATOM     21  N   UNL     1      -2.534  13.135  20.100  0.00  0.00    +0.000 N 
ATOM     22  H   UNL     1      -2.299  13.930  19.507  0.00  0.00    +0.000 HD
BRANCH  21  26
ATOM     23  C   UNL     1       0.643  10.427  20.867  0.00  0.00    +0.000 A 
ATOM     24  C   UNL     1      -0.419  10.551  21.759  0.00  0.00    +0.000 A 
ATOM     25  C   UNL     1      -1.419  11.504  21.555  0.00  0.00    +0.000 A 
ATOM     26  C   UNL     1      -1.412  12.325  20.419  0.00  0.00    +0.000 A 
ATOM     27  C   UNL     1      -0.285  12.252  19.571  0.00  0.00    +0.000 A 
ATOM     28  C   UNL     1       0.720  11.296  19.781  0.00  0.00    +0.000 A 
BRANCH  23  30
ATOM     29  C   UNL     1       1.005   8.105  21.200  0.00  0.00    +0.000 C 
ATOM     30  O   UNL     1       1.525   9.429  21.162  0.00  0.00    +0.000 OA
ENDBRANCH  23  30
BRANCH  27  31
ATOM     31  C   UNL     1      -0.129  13.124  18.384  0.00  0.00    +0.000 C 
ATOM     32  O   UNL     1       0.755  13.957  18.271  0.00  0.00    +0.000 OA
BRANCH  31  33
ATOM     33  O   UNL     1      -1.080  12.909  17.450  0.00  0.00    +0.000 OA
ATOM     34  H   UNL     1      -1.948  13.303  17.678  0.00  0.00    +0.000 HD
ENDBRANCH  31  33
ENDBRANCH  27  31
ENDBRANCH  21  26
ENDBRANCH   1  21
TORSDOF 7
ENDMDL
MODEL 3
REMARK VINA RESULT:      -7.0      0.971      1.335
REMARK  Name = 
REMARK  10 active torsions:
REMARK  status: ('A' for Active; 'I' for Inactive)
REMARK    1  A    between atoms: C_1  and  O_2
REMARK    2  A    between atoms: O_2  and  C_3
REMARK    3  A    between atoms: C_6  and  N_7
REMARK    4  A    between atoms: N_7  and  C_8
REMARK    5  A    between atoms: C_9  and  C_10
REMARK    6  A    between atoms: C_17  and  C_18
REMARK    7  A    between atoms: N_20  and  C_21
REMARK    8  A    between atoms: C_26  and  C_27
REMARK    9  A    between atoms: C_28  and  C_29
REMARK   10  A    between atoms: C_29  and  O_31
REMARK                            x       y       z     vdW  Elec       q    Type
REMARK                         _______ _______ _______ _____ _____    ______ ____
ROOT
ATOM      1  C   UNL     1      -3.538  12.565  20.097  0.00  0.00    +0.000 A 
ATOM      2  C   UNL     1      -4.290  11.838  19.160  0.00  0.00    +0.000 A 
ATOM      3  C   UNL     1      -5.572  11.710  19.780  0.00  0.00    +0.000 A 
ATOM      4  C   UNL     1      -6.803  10.980  19.375  0.00  0.00    +0.000 C 
ATOM      5  N   UNL     1      -5.632  12.349  20.946  0.00  0.00    +0.000 NA
ATOM      6  N   UNL     1      -4.436  12.940  21.116  0.00  0.00    +0.000 N 
ENDROOT
BRANCH   2   7
ATOM      7  C   UNL     1      -3.789  11.281  17.886  0.00  0.00    +0.000 A 
ATOM      8  C   UNL     1      -4.317  11.702  16.653  0.00  0.00    +0.000 A 
ATOM      9  C   UNL     1      -3.885  11.147  15.442  0.00  0.00    +0.000 A 
ATOM     10  C   UNL     1      -2.971  10.108  15.454  0.00  0.00    +0.000 A 
ATOM     11  F   UNL     1      -2.612   9.527  14.301  0.00  0.00    +0.000 F 
ATOM     12  C   UNL     1      -2.431   9.659  16.649  0.00  0.00    +0.000 A 
ATOM     13  C   UNL     1      -2.798  10.281  17.850  0.00  0.00    +0.000 A 
ENDBRANCH   2   7
BRANCH   6  14
ATOM     14  C   UNL     1      -4.226  13.771  22.266  0.00  0.00    +0.000 A 
ATOM     15  C   UNL     1      -3.763  13.189  23.460  0.00  0.00    +0.000 A 
ATOM     16  C   UNL     1      -3.544  13.965  24.601  0.00  0.00    +0.000 A 
ATOM     17  C   UNL     1      -3.761  15.337  24.563  0.00  0.00    +0.000 A 
ATOM     18  C   UNL     1      -4.186  15.936  23.379  0.00  0.00    +0.000 A 
ATOM     19  C   UNL     1      -4.425  15.175  22.218  0.00  0.00    +0.000 A 
ATOM     20  C   UNL     1      -4.902  15.923  20.999  0.00  0.00    +0.000 C 
ENDBRANCH   6  14
BRANCH   1  21
ATOM     21  N   UNL     1      -2.195  12.858  20.202  0.00  0.00    +0.000 N 
ATOM     22  H   UNL     1      -1.905  13.785  19.887  0.00  0.00    +0.000 HD
BRANCH  21  26
ATOM     23  C   UNL     1       0.775   9.831  20.035  0.00  0.00    +0.000 A 
ATOM     24  C   UNL     1      -0.216   9.804  21.013  0.00  0.00    +0.000 A 
ATOM     25  C   UNL     1      -1.139  10.845  21.126  0.00  0.00    +0.000 A 
ATOM     26  C   UNL     1      -1.130  11.919  20.225  0.00  0.00    +0.000 A 
ATOM     27  C   UNL     1      -0.067  11.980  19.298  0.00  0.00    +0.000 A 
ATOM     28  C   UNL     1       0.862  10.933  19.189  0.00  0.00    +0.000 A 
BRANCH  23  30
ATOM     29  C   UNL     1       1.390   7.769  21.038  0.00  0.00    +0.000 C 
ATOM     30  O   UNL     1       1.583   8.732  20.008  0.00  0.00    +0.000 OA
ENDBRANCH  23  30
BRANCH  27  31
ATOM     31  C   UNL     1       0.093  13.105  18.348  0.00  0.00    +0.000 C 
ATOM     32  O   UNL     1       0.987  13.932  18.426  0.00  0.00    +0.000 OA
BRANCH  31  33
ATOM     33  O   UNL     1      -0.868  13.127  17.399  0.00  0.00    +0.000 OA
ATOM     34  H   UNL     1      -1.557  13.808  17.555  0.00  0.00    +0.000 HD
ENDBRANCH  31  33
ENDBRANCH  27  31
ENDBRANCH  21  26
ENDBRANCH   1  21
TORSDOF 7
ENDMDL
MODEL 4
REMARK VINA RESULT:      -7.0      1.143      1.921
REMARK  Name = 
REMARK  10 active torsions:
REMARK  status: ('A' for Active; 'I' for Inactive)
REMARK    1  A    between atoms: C_1  and  O_2
REMARK    2  A    between atoms: O_2  and  C_3
REMARK    3  A    between atoms: C_6  and  N_7
REMARK    4  A    between atoms: N_7  and  C_8
REMARK    5  A    between atoms: C_9  and  C_10
REMARK    6  A    between atoms: C_17  and  C_18
REMARK    7  A    between atoms: N_20  and  C_21
REMARK    8  A    between atoms: C_26  and  C_27
REMARK    9  A    between atoms: C_28  and  C_29
REMARK   10  A    between atoms: C_29  and  O_31
REMARK                            x       y       z     vdW  Elec       q    Type
REMARK                         _______ _______ _______ _____ _____    ______ ____
ROOT
ATOM      1  C   UNL     1      -3.451  12.815  20.235  0.00  0.00    +0.000 A 
ATOM      2  C   UNL     1      -4.252  12.074  19.349  0.00  0.00    +0.000 A 
ATOM      3  C   UNL     1      -5.530  12.048  19.989  0.00  0.00    +0.000 A 
ATOM      4  C   UNL     1      -6.802  11.360  19.639  0.00  0.00    +0.000 C 
ATOM      5  N   UNL     1      -5.542  12.754  21.117  0.00  0.00    +0.000 NA
ATOM      6  N   UNL     1      -4.316  13.292  21.240  0.00  0.00    +0.000 N 
ENDROOT
BRANCH   2   7
ATOM      7  C   UNL     1      -3.796  11.421  18.104  0.00  0.00    +0.000 A 
ATOM      8  C   UNL     1      -4.350  11.768  16.860  0.00  0.00    +0.000 A 
ATOM      9  C   UNL     1      -3.962  11.121  15.680  0.00  0.00    +0.000 A 
ATOM     10  C   UNL     1      -3.067  10.066  15.739  0.00  0.00    +0.000 A 
ATOM     11  F   UNL     1      -2.751   9.401  14.620  0.00  0.00    +0.000 F 
ATOM     12  C   UNL     1      -2.504   9.690  16.948  0.00  0.00    +0.000 A 
ATOM     13  C   UNL     1      -2.826  10.400  18.112  0.00  0.00    +0.000 A 
ENDBRANCH   2   7
BRANCH   6  14
ATOM     14  C   UNL     1      -4.048  14.175  22.338  0.00  0.00    +0.000 A 
ATOM     15  C   UNL     1      -4.254  15.557  22.176  0.00  0.00    +0.000 A 
ATOM     16  C   UNL     1      -4.005  16.449  23.222  0.00  0.00    +0.000 A 
ATOM     17  C   UNL     1      -3.572  15.976  24.453  0.00  0.00    +0.000 A 
ATOM     18  C   UNL     1      -3.395  14.607  24.644  0.00  0.00    +0.000 A 
ATOM     19  C   UNL     1      -3.627  13.687  23.602  0.00  0.00    +0.000 A 
ATOM     20  C   UNL     1      -3.385  12.232  23.913  0.00  0.00    +0.000 C 
ENDBRANCH   6  14
BRANCH   1  21
ATOM     21  N   UNL     1      -2.093  13.044  20.309  0.00  0.00    +0.000 N 
ATOM     22  H   UNL     1      -1.764  13.942  19.954  0.00  0.00    +0.000 HD
BRANCH  21  26
ATOM     23  C   UNL     1       0.718   9.866  20.225  0.00  0.00    +0.000 A 
ATOM     24  C   UNL     1      -0.248   9.937  21.225  0.00  0.00    +0.000 A 
ATOM     25  C   UNL     1      -1.115  11.027  21.307  0.00  0.00    +0.000 A 
ATOM     26  C   UNL     1      -1.076  12.054  20.354  0.00  0.00    +0.000 A 
ATOM     27  C   UNL     1      -0.035  12.016  19.401  0.00  0.00    +0.000 A 
ATOM     28  C   UNL     1       0.837  10.920  19.322  0.00  0.00    +0.000 A 
BRANCH  23  30
ATOM     29  C   UNL     1       2.011   8.307  18.986  0.00  0.00    +0.000 C 
ATOM     30  O   UNL     1       1.470   8.727  20.234  0.00  0.00    +0.000 OA
ENDBRANCH  23  30
BRANCH  27  31
ATOM     31  C   UNL     1       0.155  13.084  18.393  0.00  0.00    +0.000 C 
ATOM     32  O   UNL     1       1.119  13.833  18.377  0.00  0.00    +0.000 OA
BRANCH  31  33
ATOM     33  O   UNL     1      -0.861  13.152  17.505  0.00  0.00    +0.000 OA
ATOM     34  H   UNL     1      -1.446  12.365  17.521  0.00  0.00    +0.000 HD
ENDBRANCH  31  33
ENDBRANCH  27  31
ENDBRANCH  21  26
ENDBRANCH   1  21
TORSDOF 7
ENDMDL
MODEL 5
REMARK VINA RESULT:      -6.7      3.566      6.029
REMARK  Name = 
REMARK  10 active torsions:
REMARK  status: ('A' for Active; 'I' for Inactive)
REMARK    1  A    between atoms: C_1  and  O_2
REMARK    2  A    between atoms: O_2  and  C_3
REMARK    3  A    between atoms: C_6  and  N_7
REMARK    4  A    between atoms: N_7  and  C_8
REMARK    5  A    between atoms: C_9  and  C_10
REMARK    6  A    between atoms: C_17  and  C_18
REMARK    7  A    between atoms: N_20  and  C_21
REMARK    8  A    between atoms: C_26  and  C_27
REMARK    9  A    between atoms: C_28  and  C_29
REMARK   10  A    between atoms: C_29  and  O_31
REMARK                            x       y       z     vdW  Elec       q    Type
REMARK                         _______ _______ _______ _____ _____    ______ ____
ROOT
ATOM      1  C   UNL     1      -2.433  13.376  22.670  0.00  0.00    +0.000 A 
ATOM      2  C   UNL     1      -1.161  12.911  22.296  0.00  0.00    +0.000 A 
ATOM      3  C   UNL     1      -0.386  14.106  22.173  0.00  0.00    +0.000 A 
ATOM      4  C   UNL     1       1.012  14.342  21.721  0.00  0.00    +0.000 C 
ATOM      5  N   UNL     1      -1.081  15.192  22.502  0.00  0.00    +0.000 NA
ATOM      6  N   UNL     1      -2.297  14.763  22.883  0.00  0.00    +0.000 N 
ENDROOT
BRANCH   2   7
ATOM      7  C   UNL     1      -0.795  11.506  22.020  0.00  0.00    +0.000 A 
ATOM      8  C   UNL     1      -0.743  10.555  23.053  0.00  0.00    +0.000 A 
ATOM      9  C   UNL     1      -0.350   9.232  22.812  0.00  0.00    +0.000 A 
ATOM     10  C   UNL     1       0.068   8.862  21.546  0.00  0.00    +0.000 A 
ATOM     11  F   UNL     1       0.513   7.617  21.331  0.00  0.00    +0.000 F 
ATOM     12  C   UNL     1       0.038   9.773  20.501  0.00  0.00    +0.000 A 
ATOM     13  C   UNL     1      -0.443  11.069  20.728  0.00  0.00    +0.000 A 
ENDBRANCH   2   7
BRANCH   6  14
ATOM     14  C   UNL     1      -3.253  15.715  23.368  0.00  0.00    +0.000 A 
ATOM     15  C   UNL     1      -3.340  15.960  24.750  0.00  0.00    +0.000 A 
ATOM     16  C   UNL     1      -4.258  16.881  25.261  0.00  0.00    +0.000 A 
ATOM     17  C   UNL     1      -5.087  17.589  24.401  0.00  0.00    +0.000 A 
ATOM     18  C   UNL     1      -4.991  17.386  23.026  0.00  0.00    +0.000 A 
ATOM     19  C   UNL     1      -4.082  16.455  22.486  0.00  0.00    +0.000 A 
ATOM     20  C   UNL     1      -4.077  16.301  20.986  0.00  0.00    +0.000 C 
ENDBRANCH   6  14
BRANCH   1  21
ATOM     21  N   UNL     1      -3.667  12.769  22.763  0.00  0.00    +0.000 N 
ATOM     22  H   UNL     1      -3.739  11.983  23.410  0.00  0.00    +0.000 HD
BRANCH  21  26
ATOM     23  C   UNL     1      -6.659  12.379  19.779  0.00  0.00    +0.000 A 
ATOM     24  C   UNL     1      -5.320  12.532  19.430  0.00  0.00    +0.000 A 
ATOM     25  C   UNL     1      -4.346  12.750  20.405  0.00  0.00    +0.000 A 
ATOM     26  C   UNL     1      -4.679  12.767  21.766  0.00  0.00    +0.000 A 
ATOM     27  C   UNL     1      -6.049  12.702  22.101  0.00  0.00    +0.000 A 
ATOM     28  C   UNL     1      -7.027  12.486  21.118  0.00  0.00    +0.000 A 
BRANCH  23  30
ATOM     29  C   UNL     1      -7.103  12.627  17.460  0.00  0.00    +0.000 C 
ATOM     30  O   UNL     1      -7.499  12.128  18.733  0.00  0.00    +0.000 OA
ENDBRANCH  23  30
BRANCH  27  31
ATOM     31  C   UNL     1      -6.528  12.788  23.500  0.00  0.00    +0.000 C 
ATOM     32  O   UNL     1      -7.172  11.908  24.047  0.00  0.00    +0.000 OA
BRANCH  31  33
ATOM     33  O   UNL     1      -6.191  13.952  24.096  0.00  0.00    +0.000 OA
ATOM     34  H   UNL     1      -5.226  14.131  24.086  0.00  0.00    +0.000 HD
ENDBRANCH  31  33
ENDBRANCH  27  31
ENDBRANCH  21  26
ENDBRANCH   1  21
TORSDOF 7
ENDMDL
MODEL 6
REMARK VINA RESULT:      -6.6      3.777      6.580
REMARK  Name = 
REMARK  10 active torsions:
REMARK  status: ('A' for Active; 'I' for Inactive)
REMARK    1  A    between atoms: C_1  and  O_2
REMARK    2  A    between atoms: O_2  and  C_3
REMARK    3  A    between atoms: C_6  and  N_7
REMARK    4  A    between atoms: N_7  and  C_8
REMARK    5  A    between atoms: C_9  and  C_10
REMARK    6  A    between atoms: C_17  and  C_18
REMARK    7  A    between atoms: N_20  and  C_21
REMARK    8  A    between atoms: C_26  and  C_27
REMARK    9  A    between atoms: C_28  and  C_29
REMARK   10  A    between atoms: C_29  and  O_31
REMARK                            x       y       z     vdW  Elec       q    Type
REMARK                         _______ _______ _______ _____ _____    ______ ____
ROOT
ATOM      1  C   UNL     1      -0.621  15.363  20.120  0.00  0.00    +0.000 A 
ATOM      2  C   UNL     1      -0.874  15.336  21.501  0.00  0.00    +0.000 A 
ATOM      3  C   UNL     1      -0.026  16.363  22.022  0.00  0.00    +0.000 A 
ATOM      4  C   UNL     1       0.264  16.801  23.413  0.00  0.00    +0.000 C 
ATOM      5  N   UNL     1       0.631  17.007  21.061  0.00  0.00    +0.000 NA
ATOM      6  N   UNL     1       0.223  16.470  19.897  0.00  0.00    +0.000 N 
ENDROOT
BRANCH   2   7
ATOM      7  C   UNL     1      -1.754  14.380  22.205  0.00  0.00    +0.000 A 
ATOM      8  C   UNL     1      -3.067  14.733  22.563  0.00  0.00    +0.000 A 
ATOM      9  C   UNL     1      -3.894  13.854  23.274  0.00  0.00    +0.000 A 
ATOM     10  C   UNL     1      -3.393  12.637  23.701  0.00  0.00    +0.000 A 
ATOM     11  F   UNL     1      -4.159  11.827  24.443  0.00  0.00    +0.000 F 
ATOM     12  C   UNL     1      -2.101  12.255  23.375  0.00  0.00    +0.000 A 
ATOM     13  C   UNL     1      -1.309  13.099  22.585  0.00  0.00    +0.000 A 
ENDBRANCH   2   7
BRANCH   6  14
ATOM     14  C   UNL     1       0.712  17.018  18.665  0.00  0.00    +0.000 A 
ATOM     15  C   UNL     1       2.010  16.691  18.234  0.00  0.00    +0.000 A 
ATOM     16  C   UNL     1       2.522  17.204  17.039  0.00  0.00    +0.000 A 
ATOM     17  C   UNL     1       1.739  18.031  16.244  0.00  0.00    +0.000 A 
ATOM     18  C   UNL     1       0.439  18.339  16.638  0.00  0.00    +0.000 A 
ATOM     19  C   UNL     1      -0.097  17.845  17.843  0.00  0.00    +0.000 A 
ATOM     20  C   UNL     1      -1.507  18.258  18.181  0.00  0.00    +0.000 C 
ENDBRANCH   6  14
BRANCH   1  21
ATOM     21  N   UNL     1      -0.961  14.520  19.083  0.00  0.00    +0.000 N 
ATOM     22  H   UNL     1      -1.884  14.656  18.670  0.00  0.00    +0.000 HD
BRANCH  21  26
ATOM     23  C   UNL     1       0.655  10.609  18.759  0.00  0.00    +0.000 A 
ATOM     24  C   UNL     1       1.488  11.725  18.778  0.00  0.00    +0.000 A 
ATOM     25  C   UNL     1       0.955  13.015  18.794  0.00  0.00    +0.000 A 
ATOM     26  C   UNL     1      -0.429  13.224  18.847  0.00  0.00    +0.000 A 
ATOM     27  C   UNL     1      -1.263  12.089  18.735  0.00  0.00    +0.000 A 
ATOM     28  C   UNL     1      -0.725  10.794  18.716  0.00  0.00    +0.000 A 
BRANCH  23  30
ATOM     29  C   UNL     1       2.198   9.138  17.715  0.00  0.00    +0.000 C 
ATOM     30  O   UNL     1       1.304   9.409  18.788  0.00  0.00    +0.000 OA
ENDBRANCH  23  30
BRANCH  27  31
ATOM     31  C   UNL     1      -2.739  12.191  18.702  0.00  0.00    +0.000 C 
ATOM     32  O   UNL     1      -3.422  12.430  19.685  0.00  0.00    +0.000 OA
BRANCH  31  33
ATOM     33  O   UNL     1      -3.250  11.975  17.470  0.00  0.00    +0.000 OA
ATOM     34  H   UNL     1      -2.998  12.662  16.816  0.00  0.00    +0.000 HD
ENDBRANCH  31  33
ENDBRANCH  27  31
ENDBRANCH  21  26
ENDBRANCH   1  21
TORSDOF 7
ENDMDL
MODEL 7
REMARK VINA RESULT:      -6.5      1.808      3.021
REMARK  Name = 
REMARK  10 active torsions:
REMARK  status: ('A' for Active; 'I' for Inactive)
REMARK    1  A    between atoms: C_1  and  O_2
REMARK    2  A    between atoms: O_2  and  C_3
REMARK    3  A    between atoms: C_6  and  N_7
REMARK    4  A    between atoms: N_7  and  C_8
REMARK    5  A    between atoms: C_9  and  C_10
REMARK    6  A    between atoms: C_17  and  C_18
REMARK    7  A    between atoms: N_20  and  C_21
REMARK    8  A    between atoms: C_26  and  C_27
REMARK    9  A    between atoms: C_28  and  C_29
REMARK   10  A    between atoms: C_29  and  O_31
REMARK                            x       y       z     vdW  Elec       q    Type
REMARK                         _______ _______ _______ _____ _____    ______ ____
ROOT
ATOM      1  C   UNL     1      -3.485  12.300  20.136  0.00  0.00    +0.000 A 
ATOM      2  C   UNL     1      -4.301  11.874  19.076  0.00  0.00    +0.000 A 
ATOM      3  C   UNL     1      -5.627  12.131  19.545  0.00  0.00    +0.000 A 
ATOM      4  C   UNL     1      -6.963  11.834  18.960  0.00  0.00    +0.000 C 
ATOM      5  N   UNL     1      -5.633  12.718  20.739  0.00  0.00    +0.000 NA
ATOM      6  N   UNL     1      -4.345  12.901  21.077  0.00  0.00    +0.000 N 
ENDROOT
BRANCH   2   7
ATOM      7  C   UNL     1      -3.840  11.232  17.827  0.00  0.00    +0.000 A 
ATOM      8  C   UNL     1      -2.794  10.293  17.839  0.00  0.00    +0.000 A 
ATOM      9  C   UNL     1      -2.315   9.715  16.657  0.00  0.00    +0.000 A 
ATOM     10  C   UNL     1      -2.827  10.124  15.438  0.00  0.00    +0.000 A 
ATOM     11  F   UNL     1      -2.319   9.625  14.304  0.00  0.00    +0.000 F 
ATOM     12  C   UNL     1      -3.854  11.053  15.383  0.00  0.00    +0.000 A 
ATOM     13  C   UNL     1      -4.392  11.560  16.574  0.00  0.00    +0.000 A 
ENDBRANCH   2   7
BRANCH   6  14
ATOM     14  C   UNL     1      -4.034  13.587  22.298  0.00  0.00    +0.000 A 
ATOM     15  C   UNL     1      -4.011  12.866  23.505  0.00  0.00    +0.000 A 
ATOM     16  C   UNL     1      -3.711  13.498  24.715  0.00  0.00    +0.000 A 
ATOM     17  C   UNL     1      -3.407  14.853  24.737  0.00  0.00    +0.000 A 
ATOM     18  C   UNL     1      -3.392  15.577  23.546  0.00  0.00    +0.000 A 
ATOM     19  C   UNL     1      -3.701  14.966  22.315  0.00  0.00    +0.000 A 
ATOM     20  C   UNL     1      -3.674  15.848  21.092  0.00  0.00    +0.000 C 
ENDBRANCH   6  14
BRANCH   1  21
ATOM     21  N   UNL     1      -2.140  12.157  20.405  0.00  0.00    +0.000 N 
ATOM     22  H   UNL     1      -1.896  11.566  21.200  0.00  0.00    +0.000 HD
BRANCH  21  26
ATOM     23  C   UNL     1       0.666  15.167  19.364  0.00  0.00    +0.000 A 
ATOM     24  C   UNL     1      -0.041  14.480  18.380  0.00  0.00    +0.000 A 
ATOM     25  C   UNL     1      -0.897  13.429  18.715  0.00  0.00    +0.000 A 
ATOM     26  C   UNL     1      -1.112  13.071  20.053  0.00  0.00    +0.000 A 
ATOM     27  C   UNL     1      -0.322  13.713  21.032  0.00  0.00    +0.000 A 
ATOM     28  C   UNL     1       0.540  14.767  20.692  0.00  0.00    +0.000 A 
BRANCH  23  30
ATOM     29  C   UNL     1       2.084  16.998  19.885  0.00  0.00    +0.000 C 
ATOM     30  O   UNL     1       1.432  16.198  18.905  0.00  0.00    +0.000 OA
ENDBRANCH  23  30
BRANCH  27  31
ATOM     31  C   UNL     1      -0.405  13.365  22.469  0.00  0.00    +0.000 C 
ATOM     32  O   UNL     1      -0.579  12.229  22.879  0.00  0.00    +0.000 OA
BRANCH  31  33
ATOM     33  O   UNL     1      -0.284  14.442  23.275  0.00  0.00    +0.000 OA
ATOM     34  H   UNL     1      -0.447  15.294  22.816  0.00  0.00    +0.000 HD
ENDBRANCH  31  33
ENDBRANCH  27  31
ENDBRANCH  21  26
ENDBRANCH   1  21
TORSDOF 7
ENDMDL
MODEL 8
REMARK VINA RESULT:      -6.5      3.591      6.467
REMARK  Name = 
REMARK  10 active torsions:
REMARK  status: ('A' for Active; 'I' for Inactive)
REMARK    1  A    between atoms: C_1  and  O_2
REMARK    2  A    between atoms: O_2  and  C_3
REMARK    3  A    between atoms: C_6  and  N_7
REMARK    4  A    between atoms: N_7  and  C_8
REMARK    5  A    between atoms: C_9  and  C_10
REMARK    6  A    between atoms: C_17  and  C_18
REMARK    7  A    between atoms: N_20  and  C_21
REMARK    8  A    between atoms: C_26  and  C_27
REMARK    9  A    between atoms: C_28  and  C_29
REMARK   10  A    between atoms: C_29  and  O_31
REMARK                            x       y       z     vdW  Elec       q    Type
REMARK                         _______ _______ _______ _____ _____    ______ ____
ROOT
ATOM      1  C   UNL     1      -1.089  15.465  20.280  0.00  0.00    +0.000 A 
ATOM      2  C   UNL     1      -1.476  15.512  21.629  0.00  0.00    +0.000 A 
ATOM      3  C   UNL     1      -0.883  16.720  22.110  0.00  0.00    +0.000 A 
ATOM      4  C   UNL     1      -0.822  17.325  23.469  0.00  0.00    +0.000 C 
ATOM      5  N   UNL     1      -0.253  17.389  21.148  0.00  0.00    +0.000 NA
ATOM      6  N   UNL     1      -0.435  16.686  20.016  0.00  0.00    +0.000 N 
ENDROOT
BRANCH   2   7
ATOM      7  C   UNL     1      -2.244  14.474  22.350  0.00  0.00    +0.000 A 
ATOM      8  C   UNL     1      -3.568  14.706  22.759  0.00  0.00    +0.000 A 
ATOM      9  C   UNL     1      -4.288  13.750  23.486  0.00  0.00    +0.000 A 
ATOM     10  C   UNL     1      -3.667  12.577  23.878  0.00  0.00    +0.000 A 
ATOM     11  F   UNL     1      -4.332  11.694  24.635  0.00  0.00    +0.000 F 
ATOM     12  C   UNL     1      -2.359  12.314  23.501  0.00  0.00    +0.000 A 
ATOM     13  C   UNL     1      -1.674  13.234  22.696  0.00  0.00    +0.000 A 
ENDBRANCH   2   7
BRANCH   6  14
ATOM     14  C   UNL     1       0.076  17.205  18.781  0.00  0.00    +0.000 A 
ATOM     15  C   UNL     1      -0.765  17.975  17.958  0.00  0.00    +0.000 A 
ATOM     16  C   UNL     1      -0.303  18.500  16.748  0.00  0.00    +0.000 A 
ATOM     17  C   UNL     1       1.010  18.286  16.352  0.00  0.00    +0.000 A 
ATOM     18  C   UNL     1       1.869  17.555  17.170  0.00  0.00    +0.000 A 
ATOM     19  C   UNL     1       1.425  17.005  18.389  0.00  0.00    +0.000 A 
ATOM     20  C   UNL     1       2.432  16.215  19.186  0.00  0.00    +0.000 C 
ENDBRANCH   6  14
BRANCH   1  21
ATOM     21  N   UNL     1      -1.164  14.486  19.312  0.00  0.00    +0.000 N 
ATOM     22  H   UNL     1      -1.941  14.554  18.655  0.00  0.00    +0.000 HD
BRANCH  21  26
ATOM     23  C   UNL     1       0.380  10.584  19.950  0.00  0.00    +0.000 A 
ATOM     24  C   UNL     1       1.204  11.703  20.050  0.00  0.00    +0.000 A 
ATOM     25  C   UNL     1       0.721  12.978  19.753  0.00  0.00    +0.000 A 
ATOM     26  C   UNL     1      -0.621  13.176  19.399  0.00  0.00    +0.000 A 
ATOM     27  C   UNL     1      -1.421  12.027  19.214  0.00  0.00    +0.000 A 
ATOM     28  C   UNL     1      -0.931  10.747  19.510  0.00  0.00    +0.000 A 
BRANCH  23  30
ATOM     29  C   UNL     1       1.082   9.149  21.706  0.00  0.00    +0.000 C 
ATOM     30  O   UNL     1       0.967   9.406  20.311  0.00  0.00    +0.000 OA
ENDBRANCH  23  30
BRANCH  27  31
ATOM     31  C   UNL     1      -2.830  12.108  18.766  0.00  0.00    +0.000 C 
ATOM     32  O   UNL     1      -3.250  11.560  17.760  0.00  0.00    +0.000 OA
BRANCH  31  33
ATOM     33  O   UNL     1      -3.595  12.866  19.581  0.00  0.00    +0.000 OA
ATOM     34  H   UNL     1      -4.426  12.425  19.859  0.00  0.00    +0.000 HD
ENDBRANCH  31  33
ENDBRANCH  27  31
ENDBRANCH  21  26
ENDBRANCH   1  21
TORSDOF 7
ENDMDL
MODEL 9
REMARK VINA RESULT:      -6.5      1.579      2.651
REMARK  Name = 
REMARK  10 active torsions:
REMARK  status: ('A' for Active; 'I' for Inactive)
REMARK    1  A    between atoms: C_1  and  O_2
REMARK    2  A    between atoms: O_2  and  C_3
REMARK    3  A    between atoms: C_6  and  N_7
REMARK    4  A    between atoms: N_7  and  C_8
REMARK    5  A    between atoms: C_9  and  C_10
REMARK    6  A    between atoms: C_17  and  C_18
REMARK    7  A    between atoms: N_20  and  C_21
REMARK    8  A    between atoms: C_26  and  C_27
REMARK    9  A    between atoms: C_28  and  C_29
REMARK   10  A    between atoms: C_29  and  O_31
REMARK                            x       y       z     vdW  Elec       q    Type
REMARK                         _______ _______ _______ _____ _____    ______ ____
ROOT
ATOM      1  C   UNL     1      -3.540  12.280  20.060  0.00  0.00    +0.000 A 
ATOM      2  C   UNL     1      -4.367  11.829  19.018  0.00  0.00    +0.000 A 
ATOM      3  C   UNL     1      -5.689  12.038  19.519  0.00  0.00    +0.000 A 
ATOM      4  C   UNL     1      -7.027  11.697  18.965  0.00  0.00    +0.000 C 
ATOM      5  N   UNL     1      -5.687  12.621  20.715  0.00  0.00    +0.000 NA
ATOM      6  N   UNL     1      -4.398  12.849  21.023  0.00  0.00    +0.000 N 
ENDROOT
BRANCH   2   7
ATOM      7  C   UNL     1      -3.913  11.207  17.756  0.00  0.00    +0.000 A 
ATOM      8  C   UNL     1      -2.937  10.196  17.757  0.00  0.00    +0.000 A 
ATOM      9  C   UNL     1      -2.463   9.634  16.565  0.00  0.00    +0.000 A 
ATOM     10  C   UNL     1      -2.906  10.128  15.351  0.00  0.00    +0.000 A 
ATOM     11  F   UNL     1      -2.400   9.641  14.211  0.00  0.00    +0.000 F 
ATOM     12  C   UNL     1      -3.864  11.129  15.307  0.00  0.00    +0.000 A 
ATOM     13  C   UNL     1      -4.402  11.625  16.503  0.00  0.00    +0.000 A 
ENDBRANCH   2   7
BRANCH   6  14
ATOM     14  C   UNL     1      -4.083  13.541  22.239  0.00  0.00    +0.000 A 
ATOM     15  C   UNL     1      -3.856  12.802  23.413  0.00  0.00    +0.000 A 
ATOM     16  C   UNL     1      -3.545  13.440  24.617  0.00  0.00    +0.000 A 
ATOM     17  C   UNL     1      -3.432  14.823  24.663  0.00  0.00    +0.000 A 
ATOM     18  C   UNL     1      -3.619  15.571  23.502  0.00  0.00    +0.000 A 
ATOM     19  C   UNL     1      -3.945  14.953  22.279  0.00  0.00    +0.000 A 
ATOM     20  C   UNL     1      -4.146  15.859  21.091  0.00  0.00    +0.000 C 
ENDBRANCH   6  14
BRANCH   1  21
ATOM     21  N   UNL     1      -2.185  12.184  20.296  0.00  0.00    +0.000 N 
ATOM     22  H   UNL     1      -1.908  11.810  21.204  0.00  0.00    +0.000 HD
BRANCH  21  26
ATOM     23  C   UNL     1       1.013  14.533  18.793  0.00  0.00    +0.000 A 
ATOM     24  C   UNL     1      -0.170  15.130  19.221  0.00  0.00    +0.000 A 
ATOM     25  C   UNL     1      -1.256  14.355  19.631  0.00  0.00    +0.000 A 
ATOM     26  C   UNL     1      -1.168  12.957  19.676  0.00  0.00    +0.000 A 
ATOM     27  C   UNL     1       0.002  12.361  19.155  0.00  0.00    +0.000 A 
ATOM     28  C   UNL     1       1.090  13.144  18.740  0.00  0.00    +0.000 A 
BRANCH  23  30
ATOM     29  C   UNL     1       2.414  16.327  19.468  0.00  0.00    +0.000 C 
ATOM     30  O   UNL     1       2.008  15.406  18.461  0.00  0.00    +0.000 OA
ENDBRANCH  23  30
BRANCH  27  31
ATOM     31  C   UNL     1       0.176  10.893  19.078  0.00  0.00    +0.000 C 
ATOM     32  O   UNL     1      -0.127  10.130  19.980  0.00  0.00    +0.000 OA
BRANCH  31  33
ATOM     33  O   UNL     1       0.724  10.493  17.909  0.00  0.00    +0.000 OA
ATOM     34  H   UNL     1       0.973   9.544  17.900  0.00  0.00    +0.000 HD
ENDBRANCH  31  33
ENDBRANCH  27  31
ENDBRANCH  21  26
ENDBRANCH   1  21
TORSDOF 7
ENDMDL
