MODEL 1
REMARK VINA RESULT:      -7.6      0.000      0.000
REMARK  Name = 
REMARK  6 active torsions:
REMARK  status: ('A' for Active; 'I' for Inactive)
REMARK    1  A    between atoms: C_1  and  O_2
REMARK    2  A    between atoms: O_2  and  C_3
REMARK    3  A    between atoms: C_6  and  N_7
REMARK    4  A    between atoms: N_10  and  C_11
REMARK    5  A    between atoms: C_11  and  C_12
REMARK    6  A    between atoms: C_14  and  O_15
REMARK                            x       y       z     vdW  Elec       q    Type
REMARK                         _______ _______ _______ _____ _____    ______ ____
ROOT
ATOM      1  N   UNL     1       1.798   7.353  20.041  0.00  0.00    +0.000 N 
ATOM      2  C   UNL     1       2.165   6.179  20.841  0.00  0.00    +0.000 C 
ATOM      3  C   UNL     1       1.969   4.895  19.991  0.00  0.00    +0.000 C 
ATOM      4  N   UNL     1       2.647   4.882  18.671  0.00  0.00    +0.000 NA
ATOM      5  C   UNL     1       2.288   6.128  17.950  0.00  0.00    +0.000 C 
ATOM      6  C   UNL     1       2.481   7.447  18.739  0.00  0.00    +0.000 C 
ENDROOT
BRANCH   1  10
ATOM      7  C   UNL     1       0.120  10.773  21.876  0.00  0.00    +0.000 A 
ATOM      8  C   UNL     1       0.434  10.786  20.520  0.00  0.00    +0.000 A 
ATOM      9  C   UNL     1       0.963   9.647  19.896  0.00  0.00    +0.000 A 
ATOM     10  C   UNL     1       1.200   8.463  20.608  0.00  0.00    +0.000 A 
ATOM     11  C   UNL     1       0.875   8.477  21.972  0.00  0.00    +0.000 A 
ATOM     12  C   UNL     1       0.348   9.613  22.606  0.00  0.00    +0.000 A 
BRANCH   7  14
ATOM     13  C   UNL     1      -1.648  11.897  22.978  0.00  0.00    +0.000 C 
ATOM     14  O   UNL     1      -0.357  11.951  22.381  0.00  0.00    +0.000 OA
ENDBRANCH   7  14
ENDBRANCH   1  10
BRANCH   4  15
ATOM     15  C   UNL     1       4.115   4.699  18.831  0.00  0.00    +0.000 C 
BRANCH  15  16
ATOM     16  C   UNL     1       4.948   4.945  17.572  0.00  0.00    +0.000 A 
ATOM     17  N   UNL     1       5.943   5.848  17.643  0.00  0.00    +0.000 NA
ATOM     18  C   UNL     1       6.727   5.911  16.562  0.00  0.00    +0.000 A 
ATOM     19  C   UNL     1       6.592   5.144  15.415  0.00  0.00    +0.000 A 
ATOM     20  C   UNL     1       7.490   5.172  14.322  0.00  0.00    +0.000 A 
ATOM     21  C   UNL     1       7.218   4.421  13.185  0.00  0.00    +0.000 A 
ATOM     22  C   UNL     1       6.045   3.677  13.134  0.00  0.00    +0.000 A 
ATOM     23 CL   UNL     1       5.650   2.809  11.702  0.00  0.00    +0.000 Cl
ATOM     24  C   UNL     1       5.182   3.629  14.233  0.00  0.00    +0.000 A 
ATOM     25  C   UNL     1       5.460   4.334  15.403  0.00  0.00    +0.000 A 
ATOM     26  N   UNL     1       4.647   4.221  16.467  0.00  0.00    +0.000 NA
BRANCH  18  27
ATOM     27  O   UNL     1       7.673   6.886  16.642  0.00  0.00    +0.000 OA
ATOM     28  H   UNL     1       7.110   7.662  16.818  0.00  0.00    +0.000 HD
ENDBRANCH  18  27
ENDBRANCH  15  16
ENDBRANCH   4  15
TORSDOF 5
ENDMDL
MODEL 2
REMARK VINA RESULT:      -7.3      4.501     10.802
REMARK  Name = 
REMARK  6 active torsions:
REMARK  status: ('A' for Active; 'I' for Inactive)
REMARK    1  A    between atoms: C_1  and  O_2
REMARK    2  A    between atoms: O_2  and  C_3
REMARK    3  A    between atoms: C_6  and  N_7
REMARK    4  A    between atoms: N_10  and  C_11
REMARK    5  A    between atoms: C_11  and  C_12
REMARK    6  A    between atoms: C_14  and  O_15
REMARK                            x       y       z     vdW  Elec       q    Type
REMARK                         _______ _______ _______ _____ _____    ______ ____
ROOT
ATOM      1  N   UNL     1       2.054   8.165  18.724  0.00  0.00    +0.000 N 
ATOM      2  C   UNL     1       1.800   9.373  17.931  0.00  0.00    +0.000 C 
ATOM      3  C   UNL     1       0.405   9.946  18.299  0.00  0.00    +0.000 C 
ATOM      4  N   UNL     1       0.164  10.188  19.743  0.00  0.00    +0.000 NA
ATOM      5  C   UNL     1       0.509   8.952  20.487  0.00  0.00    +0.000 C 
ATOM      6  C   UNL     1       1.899   8.342  20.179  0.00  0.00    +0.000 C 
ENDROOT
BRANCH   1  10
ATOM      7  C   UNL     1       4.090   4.865  17.038  0.00  0.00    +0.000 A 
ATOM      8  C   UNL     1       4.631   6.145  16.948  0.00  0.00    +0.000 A 
ATOM      9  C   UNL     1       3.978   7.241  17.530  0.00  0.00    +0.000 A 
ATOM     10  C   UNL     1       2.763   7.094  18.214  0.00  0.00    +0.000 A 
ATOM     11  C   UNL     1       2.240   5.794  18.290  0.00  0.00    +0.000 A 
ATOM     12  C   UNL     1       2.885   4.692  17.707  0.00  0.00    +0.000 A 
BRANCH   7  14
ATOM     13  C   UNL     1       6.145   4.198  16.073  0.00  0.00    +0.000 C 
ATOM     14  O   UNL     1       4.797   3.882  16.402  0.00  0.00    +0.000 OA
ENDBRANCH   7  14
ENDBRANCH   1  10
BRANCH   4  15
ATOM     15  C   UNL     1       0.913  11.384  20.213  0.00  0.00    +0.000 C 
BRANCH  15  16
ATOM     16  C   UNL     1       0.214  12.216  21.289  0.00  0.00    +0.000 A 
ATOM     17  N   UNL     1       0.752  13.406  21.613  0.00  0.00    +0.000 NA
ATOM     18  C   UNL     1       0.019  14.150  22.446  0.00  0.00    +0.000 A 
ATOM     19  C   UNL     1      -1.209  13.796  22.984  0.00  0.00    +0.000 A 
ATOM     20  C   UNL     1      -2.003  14.642  23.794  0.00  0.00    +0.000 A 
ATOM     21  C   UNL     1      -3.183  14.160  24.347  0.00  0.00    +0.000 A 
ATOM     22  C   UNL     1      -3.545  12.838  24.116  0.00  0.00    +0.000 A 
ATOM     23 CL   UNL     1      -4.957  12.200  24.863  0.00  0.00    +0.000 Cl
ATOM     24  C   UNL     1      -2.771  12.021  23.285  0.00  0.00    +0.000 A 
ATOM     25  C   UNL     1      -1.611  12.499  22.678  0.00  0.00    +0.000 A 
ATOM     26  N   UNL     1      -0.920  11.713  21.834  0.00  0.00    +0.000 NA
BRANCH  18  27
ATOM     27  O   UNL     1       0.631  15.310  22.809  0.00  0.00    +0.000 OA
ATOM     28  H   UNL     1       0.023  15.619  23.505  0.00  0.00    +0.000 HD
ENDBRANCH  18  27
ENDBRANCH  15  16
ENDBRANCH   4  15
TORSDOF 5
ENDMDL
MODEL 3
REMARK VINA RESULT:      -7.2      1.119      1.507
REMARK  Name = 
REMARK  6 active torsions:
REMARK  status: ('A' for Active; 'I' for Inactive)
REMARK    1  A    between atoms: C_1  and  O_2
REMARK    2  A    between atoms: O_2  and  C_3
REMARK    3  A    between atoms: C_6  and  N_7
REMARK    4  A    between atoms: N_10  and  C_11
REMARK    5  A    between atoms: C_11  and  C_12
REMARK    6  A    between atoms: C_14  and  O_15
REMARK                            x       y       z     vdW  Elec       q    Type
REMARK                         _______ _______ _______ _____ _____    ______ ____
ROOT
ATOM      1  N   UNL     1       1.928   6.710  19.958  0.00  0.00    +0.000 N 
ATOM      2  C   UNL     1       2.104   5.640  20.947  0.00  0.00    +0.000 C 
ATOM      3  C   UNL     1       1.606   4.298  20.347  0.00  0.00    +0.000 C 
ATOM      4  N   UNL     1       2.186   3.920  19.034  0.00  0.00    +0.000 NA
ATOM      5  C   UNL     1       2.036   5.071  18.110  0.00  0.00    +0.000 C 
ATOM      6  C   UNL     1       2.535   6.437  18.644  0.00  0.00    +0.000 C 
ENDROOT
BRANCH   1  10
ATOM      7  C   UNL     1       0.757  10.634  21.014  0.00  0.00    +0.000 A 
ATOM      8  C   UNL     1       0.929   9.663  21.997  0.00  0.00    +0.000 A 
ATOM      9  C   UNL     1       1.346   8.367  21.659  0.00  0.00    +0.000 A 
ATOM     10  C   UNL     1       1.598   8.000  20.331  0.00  0.00    +0.000 A 
ATOM     11  C   UNL     1       1.418   8.996  19.360  0.00  0.00    +0.000 A 
ATOM     12  C   UNL     1       0.998  10.294  19.688  0.00  0.00    +0.000 A 
BRANCH   7  14
ATOM     13  C   UNL     1       0.920  12.990  20.859  0.00  0.00    +0.000 C 
ATOM     14  O   UNL     1       0.315  11.849  21.458  0.00  0.00    +0.000 OA
ENDBRANCH   7  14
ENDBRANCH   1  10
BRANCH   4  15
ATOM     15  C   UNL     1       3.595   3.469  19.186  0.00  0.00    +0.000 C 
BRANCH  15  16
ATOM     16  C   UNL     1       4.578   4.028  18.157  0.00  0.00    +0.000 A 
ATOM     17  N   UNL     1       5.552   4.846  18.596  0.00  0.00    +0.000 NA
ATOM     18  C   UNL     1       6.465   5.181  17.679  0.00  0.00    +0.000 A 
ATOM     19  C   UNL     1       6.479   4.765  16.356  0.00  0.00    +0.000 A 
ATOM     20  C   UNL     1       7.507   5.066  15.432  0.00  0.00    +0.000 A 
ATOM     21  C   UNL     1       7.383   4.666  14.107  0.00  0.00    +0.000 A 
ATOM     22  C   UNL     1       6.229   4.000  13.709  0.00  0.00    +0.000 A 
ATOM     23 CL   UNL     1       6.022   3.574  12.056  0.00  0.00    +0.000 Cl
ATOM     24  C   UNL     1       5.235   3.677  14.638  0.00  0.00    +0.000 A 
ATOM     25  C   UNL     1       5.361   4.023  15.982  0.00  0.00    +0.000 A 
ATOM     26  N   UNL     1       4.422   3.646  16.866  0.00  0.00    +0.000 NA
BRANCH  18  27
ATOM     27  O   UNL     1       7.388   6.067  18.141  0.00  0.00    +0.000 OA
ATOM     28  H   UNL     1       8.047   5.455  18.516  0.00  0.00    +0.000 HD
ENDBRANCH  18  27
ENDBRANCH  15  16
ENDBRANCH   4  15
TORSDOF 5
ENDMDL
MODEL 4
REMARK VINA RESULT:      -7.1      4.882     10.757
REMARK  Name = 
REMARK  6 active torsions:
REMARK  status: ('A' for Active; 'I' for Inactive)
REMARK    1  A    between atoms: C_1  and  O_2
REMARK    2  A    between atoms: O_2  and  C_3
REMARK    3  A    between atoms: C_6  and  N_7
REMARK    4  A    between atoms: N_10  and  C_11
REMARK    5  A    between atoms: C_11  and  C_12
REMARK    6  A    between atoms: C_14  and  O_15
REMARK                            x       y       z     vdW  Elec       q    Type
REMARK                         _______ _______ _______ _____ _____    ______ ____
ROOT
ATOM      1  N   UNL     1       1.814   8.082  19.381  0.00  0.00    +0.000 N 
ATOM      2  C   UNL     1       1.917   9.176  18.408  0.00  0.00    +0.000 C 
ATOM      3  C   UNL     1       0.563   9.931  18.339  0.00  0.00    +0.000 C 
ATOM      4  N   UNL     1       0.021  10.410  19.634  0.00  0.00    +0.000 NA
ATOM      5  C   UNL     1       0.013   9.272  20.585  0.00  0.00    +0.000 C 
ATOM      6  C   UNL     1       1.344   8.489  20.716  0.00  0.00    +0.000 C 
ENDROOT
BRANCH   1  10
ATOM      7  C   UNL     1       3.994   4.493  18.875  0.00  0.00    +0.000 A 
ATOM      8  C   UNL     1       3.045   4.603  19.888  0.00  0.00    +0.000 A 
ATOM      9  C   UNL     1       2.296   5.778  20.045  0.00  0.00    +0.000 A 
ATOM     10  C   UNL     1       2.476   6.881  19.200  0.00  0.00    +0.000 A 
ATOM     11  C   UNL     1       3.437   6.745  18.187  0.00  0.00    +0.000 A 
ATOM     12  C   UNL     1       4.193   5.574  18.025  0.00  0.00    +0.000 A 
BRANCH   7  14
ATOM     13  C   UNL     1       4.410   2.401  19.899  0.00  0.00    +0.000 C 
ATOM     14  O   UNL     1       4.685   3.314  18.843  0.00  0.00    +0.000 OA
ENDBRANCH   7  14
ENDBRANCH   1  10
BRANCH   4  15
ATOM     15  C   UNL     1       0.789  11.584  20.129  0.00  0.00    +0.000 C 
BRANCH  15  16
ATOM     16  C   UNL     1       0.125  12.373  21.258  0.00  0.00    +0.000 A 
ATOM     17  N   UNL     1       0.696  13.532  21.636  0.00  0.00    +0.000 NA
ATOM     18  C   UNL     1      -0.007  14.248  22.518  0.00  0.00    +0.000 A 
ATOM     19  C   UNL     1      -1.236  13.895  23.055  0.00  0.00    +0.000 A 
ATOM     20  C   UNL     1      -1.998  14.715  23.921  0.00  0.00    +0.000 A 
ATOM     21  C   UNL     1      -3.181  14.232  24.467  0.00  0.00    +0.000 A 
ATOM     22  C   UNL     1      -3.577  12.932  24.171  0.00  0.00    +0.000 A 
ATOM     23 CL   UNL     1      -4.994  12.288  24.905  0.00  0.00    +0.000 Cl
ATOM     24  C   UNL     1      -2.835  12.143  23.287  0.00  0.00    +0.000 A 
ATOM     25  C   UNL     1      -1.673  12.625  22.688  0.00  0.00    +0.000 A 
ATOM     26  N   UNL     1      -1.013  11.869  21.794  0.00  0.00    +0.000 NA
BRANCH  18  27
ATOM     27  O   UNL     1       0.637  15.372  22.932  0.00  0.00    +0.000 OA
ATOM     28  H   UNL     1       1.466  15.296  22.425  0.00  0.00    +0.000 HD
ENDBRANCH  18  27
ENDBRANCH  15  16
ENDBRANCH   4  15
TORSDOF 5
ENDMDL
MODEL 5
REMARK VINA RESULT:      -7.0      4.892     11.373
REMARK  Name = 
REMARK  6 active torsions:
REMARK  status: ('A' for Active; 'I' for Inactive)
REMARK    1  A    between atoms: C_1  and  O_2
REMARK    2  A    between atoms: O_2  and  C_3
REMARK    3  A    between atoms: C_6  and  N_7
REMARK    4  A    between atoms: N_10  and  C_11
REMARK    5  A    between atoms: C_11  and  C_12
REMARK    6  A    between atoms: C_14  and  O_15
REMARK                            x       y       z     vdW  Elec       q    Type
REMARK                         _______ _______ _______ _____ _____    ______ ____
ROOT
ATOM      1  N   UNL     1       1.467   8.502  19.767  0.00  0.00    +0.000 N 
ATOM      2  C   UNL     1       1.094   9.752  19.095  0.00  0.00    +0.000 C 
ATOM      3  C   UNL     1      -0.354  10.141  19.500  0.00  0.00    +0.000 C 
ATOM      4  N   UNL     1      -0.622  10.211  20.957  0.00  0.00    +0.000 NA
ATOM      5  C   UNL     1      -0.155   8.948  21.579  0.00  0.00    +0.000 C 
ATOM      6  C   UNL     1       1.291   8.515  21.230  0.00  0.00    +0.000 C 
ENDROOT
BRANCH   1  10
ATOM      7  C   UNL     1       4.106   5.740  17.953  0.00  0.00    +0.000 A 
ATOM      8  C   UNL     1       3.421   5.398  19.115  0.00  0.00    +0.000 A 
ATOM      9  C   UNL     1       2.521   6.297  19.708  0.00  0.00    +0.000 A 
ATOM     10  C   UNL     1       2.283   7.565  19.161  0.00  0.00    +0.000 A 
ATOM     11  C   UNL     1       2.985   7.884  17.989  0.00  0.00    +0.000 A 
ATOM     12  C   UNL     1       3.889   6.993  17.392  0.00  0.00    +0.000 A 
BRANCH   7  14
ATOM     13  C   UNL     1       6.201   4.671  18.209  0.00  0.00    +0.000 C 
ATOM     14  O   UNL     1       4.981   4.799  17.487  0.00  0.00    +0.000 OA
ENDBRANCH   7  14
ENDBRANCH   1  10
BRANCH   4  15
ATOM     15  C   UNL     1       0.000  11.423  21.554  0.00  0.00    +0.000 C 
BRANCH  15  16
ATOM     16  C   UNL     1      -0.946  12.325  22.347  0.00  0.00    +0.000 A 
ATOM     17  N   UNL     1      -0.403  13.269  23.136  0.00  0.00    +0.000 NA
ATOM     18  C   UNL     1      -1.276  14.119  23.685  0.00  0.00    +0.000 A 
ATOM     19  C   UNL     1      -2.651  14.098  23.509  0.00  0.00    +0.000 A 
ATOM     20  C   UNL     1      -3.541  15.065  24.033  0.00  0.00    +0.000 A 
ATOM     21  C   UNL     1      -4.911  14.906  23.863  0.00  0.00    +0.000 A 
ATOM     22  C   UNL     1      -5.381  13.775  23.204  0.00  0.00    +0.000 A 
ATOM     23 CL   UNL     1      -7.077  13.519  23.060  0.00  0.00    +0.000 Cl
ATOM     24  C   UNL     1      -4.491  12.844  22.659  0.00  0.00    +0.000 A 
ATOM     25  C   UNL     1      -3.112  13.010  22.773  0.00  0.00    +0.000 A 
ATOM     26  N   UNL     1      -2.279  12.134  22.187  0.00  0.00    +0.000 NA
BRANCH  18  27
ATOM     27  O   UNL     1      -0.695  15.009  24.535  0.00  0.00    +0.000 OA
ATOM     28  H   UNL     1       0.145  15.174  24.070  0.00  0.00    +0.000 HD
ENDBRANCH  18  27
ENDBRANCH  15  16
ENDBRANCH   4  15
TORSDOF 5
ENDMDL
MODEL 6
REMARK VINA RESULT:      -7.0      3.203      5.693
REMARK  Name = 
REMARK  6 active torsions:
REMARK  status: ('A' for Active; 'I' for Inactive)
REMARK    1  A    between atoms: C_1  and  O_2
REMARK    2  A    between atoms: O_2  and  C_3
REMARK    3  A    between atoms: C_6  and  N_7
REMARK    4  A    between atoms: N_10  and  C_11
REMARK    5  A    between atoms: C_11  and  C_12
REMARK    6  A    between atoms: C_14  and  O_15
REMARK                            x       y       z     vdW  Elec       q    Type
REMARK                         _______ _______ _______ _____ _____    ______ ____
ROOT
ATOM      1  N   UNL     1      -0.870  11.588  22.537  0.00  0.00    +0.000 N 
ATOM      2  C   UNL     1      -0.303  11.672  21.186  0.00  0.00    +0.000 C 
ATOM      3  C   UNL     1       1.100  11.007  21.174  0.00  0.00    +0.000 C 
ATOM      4  N   UNL     1       1.165   9.622  21.701  0.00  0.00    +0.000 NA
ATOM      5  C   UNL     1       0.512   9.598  23.033  0.00  0.00    +0.000 C 
ATOM      6  C   UNL     1      -0.901  10.229  23.106  0.00  0.00    +0.000 C 
ENDROOT
BRANCH   1  10
ATOM      7  C   UNL     1      -3.312  14.564  24.285  0.00  0.00    +0.000 A 
ATOM      8  C   UNL     1      -1.996  14.851  23.935  0.00  0.00    +0.000 A 
ATOM      9  C   UNL     1      -1.187  13.879  23.328  0.00  0.00    +0.000 A 
ATOM     10  C   UNL     1      -1.666  12.591  23.057  0.00  0.00    +0.000 A 
ATOM     11  C   UNL     1      -2.996  12.328  23.419  0.00  0.00    +0.000 A 
ATOM     12  C   UNL     1      -3.811  13.292  24.030  0.00  0.00    +0.000 A 
BRANCH   7  14
ATOM     13  C   UNL     1      -5.121  16.087  24.203  0.00  0.00    +0.000 C 
ATOM     14  O   UNL     1      -3.991  15.578  24.902  0.00  0.00    +0.000 OA
ENDBRANCH   7  14
ENDBRANCH   1  10
BRANCH   4  15
ATOM     15  C   UNL     1       0.566   8.659  20.737  0.00  0.00    +0.000 C 
BRANCH  15  16
ATOM     16  C   UNL     1       1.487   7.524  20.286  0.00  0.00    +0.000 A 
ATOM     17  N   UNL     1       1.482   6.387  21.005  0.00  0.00    +0.000 NA
ATOM     18  C   UNL     1       2.190   5.383  20.480  0.00  0.00    +0.000 A 
ATOM     19  C   UNL     1       2.905   5.427  19.293  0.00  0.00    +0.000 A 
ATOM     20  C   UNL     1       3.574   4.320  18.718  0.00  0.00    +0.000 A 
ATOM     21  C   UNL     1       4.329   4.493  17.564  0.00  0.00    +0.000 A 
ATOM     22  C   UNL     1       4.436   5.765  17.013  0.00  0.00    +0.000 A 
ATOM     23 CL   UNL     1       5.436   6.013  15.635  0.00  0.00    +0.000 Cl
ATOM     24  C   UNL     1       3.743   6.845  17.570  0.00  0.00    +0.000 A 
ATOM     25  C   UNL     1       2.940   6.685  18.697  0.00  0.00    +0.000 A 
ATOM     26  N   UNL     1       2.235   7.725  19.174  0.00  0.00    +0.000 NA
BRANCH  18  27
ATOM     27  O   UNL     1       2.223   4.277  21.273  0.00  0.00    +0.000 OA
ATOM     28  H   UNL     1       2.261   3.577  20.596  0.00  0.00    +0.000 HD
ENDBRANCH  18  27
ENDBRANCH  15  16
ENDBRANCH   4  15
TORSDOF 5
ENDMDL
MODEL 7
REMARK VINA RESULT:      -7.0      1.657      2.241
REMARK  Name = 
REMARK  6 active torsions:
REMARK  status: ('A' for Active; 'I' for Inactive)
REMARK    1  A    between atoms: C_1  and  O_2
REMARK    2  A    between atoms: O_2  and  C_3
REMARK    3  A    between atoms: C_6  and  N_7
REMARK    4  A    between atoms: N_10  and  C_11
REMARK    5  A    between atoms: C_11  and  C_12
REMARK    6  A    between atoms: C_14  and  O_15
REMARK                            x       y       z     vdW  Elec       q    Type
REMARK                         _______ _______ _______ _____ _____    ______ ____
ROOT
ATOM      1  N   UNL     1       2.003   6.175  19.586  0.00  0.00    +0.000 N 
ATOM      2  C   UNL     1       2.316   5.460  20.828  0.00  0.00    +0.000 C 
ATOM      3  C   UNL     1       1.673   4.048  20.785  0.00  0.00    +0.000 C 
ATOM      4  N   UNL     1       1.996   3.225  19.594  0.00  0.00    +0.000 NA
ATOM      5  C   UNL     1       1.723   4.034  18.381  0.00  0.00    +0.000 C 
ATOM      6  C   UNL     1       2.355   5.448  18.354  0.00  0.00    +0.000 C 
ENDROOT
BRANCH   1  10
ATOM      7  C   UNL     1       1.209  10.324  19.404  0.00  0.00    +0.000 A 
ATOM      8  C   UNL     1       0.999   9.620  20.586  0.00  0.00    +0.000 A 
ATOM      9  C   UNL     1       1.287   8.249  20.665  0.00  0.00    +0.000 A 
ATOM     10  C   UNL     1       1.788   7.540  19.565  0.00  0.00    +0.000 A 
ATOM     11  C   UNL     1       1.992   8.274  18.386  0.00  0.00    +0.000 A 
ATOM     12  C   UNL     1       1.703   9.644  18.297  0.00  0.00    +0.000 A 
BRANCH   7  14
ATOM     13  C   UNL     1       0.920  12.275  20.713  0.00  0.00    +0.000 C 
ATOM     14  O   UNL     1       0.859  11.646  19.437  0.00  0.00    +0.000 OA
ENDBRANCH   7  14
ENDBRANCH   1  10
BRANCH   4  15
ATOM     15  C   UNL     1       3.394   2.720  19.660  0.00  0.00    +0.000 C 
BRANCH  15  16
ATOM     16  C   UNL     1       4.393   3.434  18.750  0.00  0.00    +0.000 A 
ATOM     17  N   UNL     1       5.339   4.197  19.328  0.00  0.00    +0.000 NA
ATOM     18  C   UNL     1       6.270   4.672  18.496  0.00  0.00    +0.000 A 
ATOM     19  C   UNL     1       6.328   4.447  17.129  0.00  0.00    +0.000 A 
ATOM     20  C   UNL     1       7.376   4.891  16.287  0.00  0.00    +0.000 A 
ATOM     21  C   UNL     1       7.297   4.680  14.917  0.00  0.00    +0.000 A 
ATOM     22  C   UNL     1       6.168   4.059  14.394  0.00  0.00    +0.000 A 
ATOM     23 CL   UNL     1       6.015   3.867  12.692  0.00  0.00    +0.000 Cl
ATOM     24  C   UNL     1       5.155   3.593  15.238  0.00  0.00    +0.000 A 
ATOM     25  C   UNL     1       5.237   3.748  16.621  0.00  0.00    +0.000 A 
ATOM     26  N   UNL     1       4.281   3.235  17.413  0.00  0.00    +0.000 NA
BRANCH  18  27
ATOM     27  O   UNL     1       7.162   5.499  19.105  0.00  0.00    +0.000 OA
ATOM     28  H   UNL     1       7.101   5.177  20.023  0.00  0.00    +0.000 HD
ENDBRANCH  18  27
ENDBRANCH  15  16
ENDBRANCH   4  15
TORSDOF 5
ENDMDL
MODEL 8
REMARK VINA RESULT:      -7.0      2.841      4.855
REMARK  Name = 
REMARK  6 active torsions:
REMARK  status: ('A' for Active; 'I' for Inactive)
REMARK    1  A    between atoms: C_1  and  O_2
REMARK    2  A    between atoms: O_2  and  C_3
REMARK    3  A    between atoms: C_6  and  N_7
REMARK    4  A    between atoms: N_10  and  C_11
REMARK    5  A    between atoms: C_11  and  C_12
REMARK    6  A    between atoms: C_14  and  O_15
REMARK                            x       y       z     vdW  Elec       q    Type
REMARK                         _______ _______ _______ _____ _____    ______ ____
ROOT
ATOM      1  N   UNL     1      -0.556  10.603  21.562  0.00  0.00    +0.000 N 
ATOM      2  C   UNL     1      -0.394  10.018  20.226  0.00  0.00    +0.000 C 
ATOM      3  C   UNL     1       1.077   9.556  20.042  0.00  0.00    +0.000 C 
ATOM      4  N   UNL     1       1.609   8.654  21.093  0.00  0.00    +0.000 NA
ATOM      5  C   UNL     1       1.347   9.274  22.415  0.00  0.00    +0.000 C 
ATOM      6  C   UNL     1      -0.109   9.739  22.669  0.00  0.00    +0.000 C 
ENDROOT
BRANCH   1  10
ATOM      7  C   UNL     1      -3.308  13.746  22.213  0.00  0.00    +0.000 A 
ATOM      8  C   UNL     1      -2.666  13.140  23.289  0.00  0.00    +0.000 A 
ATOM      9  C   UNL     1      -1.729  12.117  23.081  0.00  0.00    +0.000 A 
ATOM     10  C   UNL     1      -1.410  11.664  21.794  0.00  0.00    +0.000 A 
ATOM     11  C   UNL     1      -2.071  12.292  20.728  0.00  0.00    +0.000 A 
ATOM     12  C   UNL     1      -3.012  13.314  20.926  0.00  0.00    +0.000 A 
BRANCH   7  14
ATOM     13  C   UNL     1      -5.091  14.396  23.626  0.00  0.00    +0.000 C 
ATOM     14  O   UNL     1      -4.225  14.706  22.540  0.00  0.00    +0.000 OA
ENDBRANCH   7  14
ENDBRANCH   1  10
BRANCH   4  15
ATOM     15  C   UNL     1       1.035   7.288  20.962  0.00  0.00    +0.000 C 
BRANCH  15  16
ATOM     16  C   UNL     1       1.943   6.256  20.294  0.00  0.00    +0.000 A 
ATOM     17  N   UNL     1       2.006   5.027  20.837  0.00  0.00    +0.000 NA
ATOM     18  C   UNL     1       2.696   4.128  20.128  0.00  0.00    +0.000 A 
ATOM     19  C   UNL     1       3.331   4.363  18.918  0.00  0.00    +0.000 A 
ATOM     20  C   UNL     1       3.980   3.370  18.147  0.00  0.00    +0.000 A 
ATOM     21  C   UNL     1       4.655   3.728  16.987  0.00  0.00    +0.000 A 
ATOM     22  C   UNL     1       4.704   5.069  16.622  0.00  0.00    +0.000 A 
ATOM     23 CL   UNL     1       5.607   5.540  15.236  0.00  0.00    +0.000 Cl
ATOM     24  C   UNL     1       4.030   6.037  17.372  0.00  0.00    +0.000 A 
ATOM     25  C   UNL     1       3.304   5.695  18.512  0.00  0.00    +0.000 A 
ATOM     26  N   UNL     1       2.614   6.635  19.178  0.00  0.00    +0.000 NA
BRANCH  18  27
ATOM     27  O   UNL     1       2.799   2.921  20.747  0.00  0.00    +0.000 OA
ATOM     28  H   UNL     1       2.869   2.332  19.974  0.00  0.00    +0.000 HD
ENDBRANCH  18  27
ENDBRANCH  15  16
ENDBRANCH   4  15
TORSDOF 5
ENDMDL
MODEL 9
REMARK VINA RESULT:      -7.0      3.623      9.660
REMARK  Name = 
REMARK  6 active torsions:
REMARK  status: ('A' for Active; 'I' for Inactive)
REMARK    1  A    between atoms: C_1  and  O_2
REMARK    2  A    between atoms: O_2  and  C_3
REMARK    3  A    between atoms: C_6  and  N_7
REMARK    4  A    between atoms: N_10  and  C_11
REMARK    5  A    between atoms: C_11  and  C_12
REMARK    6  A    between atoms: C_14  and  O_15
REMARK                            x       y       z     vdW  Elec       q    Type
REMARK                         _______ _______ _______ _____ _____    ______ ____
ROOT
ATOM      1  N   UNL     1       5.279   5.052  15.854  0.00  0.00    +0.000 N 
ATOM      2  C   UNL     1       4.772   4.072  16.821  0.00  0.00    +0.000 C 
ATOM      3  C   UNL     1       5.042   4.584  18.261  0.00  0.00    +0.000 C 
ATOM      4  N   UNL     1       4.546   5.948  18.568  0.00  0.00    +0.000 NA
ATOM      5  C   UNL     1       5.036   6.869  17.513  0.00  0.00    +0.000 C 
ATOM      6  C   UNL     1       4.779   6.424  16.052  0.00  0.00    +0.000 C 
ENDROOT
BRANCH   1  10
ATOM      7  C   UNL     1       7.100   3.800  12.249  0.00  0.00    +0.000 A 
ATOM      8  C   UNL     1       5.890   3.244  12.655  0.00  0.00    +0.000 A 
ATOM      9  C   UNL     1       5.264   3.674  13.834  0.00  0.00    +0.000 A 
ATOM     10  C   UNL     1       5.828   4.667  14.646  0.00  0.00    +0.000 A 
ATOM     11  C   UNL     1       7.047   5.211  14.213  0.00  0.00    +0.000 A 
ATOM     12  C   UNL     1       7.683   4.785  13.038  0.00  0.00    +0.000 A 
BRANCH   7  14
ATOM     13  C   UNL     1       7.386   1.893  10.877  0.00  0.00    +0.000 C 
ATOM     14  O   UNL     1       7.632   3.277  11.103  0.00  0.00    +0.000 OA
ENDBRANCH   7  14
ENDBRANCH   1  10
BRANCH   4  15
ATOM     15  C   UNL     1       3.065   5.955  18.711  0.00  0.00    +0.000 C 
BRANCH  15  16
ATOM     16  C   UNL     1       2.440   7.322  18.991  0.00  0.00    +0.000 A 
ATOM     17  N   UNL     1       2.494   8.250  18.018  0.00  0.00    +0.000 NA
ATOM     18  C   UNL     1       1.803   9.368  18.263  0.00  0.00    +0.000 A 
ATOM     19  C   UNL     1       1.065   9.632  19.406  0.00  0.00    +0.000 A 
ATOM     20  C   UNL     1       0.273  10.789  19.599  0.00  0.00    +0.000 A 
ATOM     21  C   UNL     1      -0.366  10.993  20.816  0.00  0.00    +0.000 A 
ATOM     22  C   UNL     1      -0.186  10.065  21.835  0.00  0.00    +0.000 A 
ATOM     23 CL   UNL     1      -0.898  10.346  23.376  0.00  0.00    +0.000 Cl
ATOM     24  C   UNL     1       0.571   8.908  21.622  0.00  0.00    +0.000 A 
ATOM     25  C   UNL     1       1.178   8.657  20.394  0.00  0.00    +0.000 A 
ATOM     26  N   UNL     1       1.846   7.508  20.195  0.00  0.00    +0.000 NA
BRANCH  18  27
ATOM     27  O   UNL     1       1.946  10.309  17.291  0.00  0.00    +0.000 OA
ATOM     28  H   UNL     1       1.350  11.002  17.629  0.00  0.00    +0.000 HD
ENDBRANCH  18  27
ENDBRANCH  15  16
ENDBRANCH   4  15
TORSDOF 5
ENDMDL
