MODEL 1
REMARK VINA RESULT:      -8.0      0.000      0.000
REMARK  Name = 
REMARK  8 active torsions:
REMARK  status: ('A' for Active; 'I' for Inactive)
REMARK    1  A    between atoms: C_1  and  C_2
REMARK    2  A    between atoms: C_5  and  C_6
REMARK    3  A    between atoms: C_8  and  O_9
REMARK    4  A    between atoms: O_9  and  C_10
REMARK    5  A    between atoms: C_14  and  C_16
REMARK    6  A    between atoms: C_28  and  N_29
REMARK    7  A    between atoms: N_29  and  S_30
REMARK    8  A    between atoms: S_30  and  C_31
REMARK                            x       y       z     vdW  Elec       q    Type
REMARK                         _______ _______ _______ _____ _____    ______ ____
ROOT
ATOM      1  C   UNL     1       1.294   8.501  18.902  0.00  0.00    +0.000 A 
ATOM      2  C   UNL     1       0.422   9.125  17.974  0.00  0.00    +0.000 A 
ATOM      3  C   UNL     1      -0.579  10.048  18.356  0.00  0.00    +0.000 A 
ATOM      4  C   UNL     1      -0.804  10.304  19.702  0.00  0.00    +0.000 A 
ATOM      5  C   UNL     1       0.068   9.726  20.602  0.00  0.00    +0.000 A 
ATOM      6  C   UNL     1       1.116   8.870  20.237  0.00  0.00    +0.000 A 
ATOM      7  C   UNL     1       1.918   8.552  21.465  0.00  0.00    +0.000 C 
ATOM      8  N   UNL     1       1.235   9.279  22.503  0.00  0.00    +0.000 N 
ATOM      9  C   UNL     1       0.134   9.953  22.050  0.00  0.00    +0.000 C 
ATOM     10  O   UNL     1      -0.643  10.617  22.700  0.00  0.00    +0.000 OA
ATOM     11  H   UNL     1       1.501   9.303  23.477  0.00  0.00    +0.000 HD
ENDROOT
BRANCH   1  16
ATOM     12  C   UNL     1       5.546   4.965  17.276  0.00  0.00    +0.000 C 
ATOM     13  C   UNL     1       4.371   5.798  17.685  0.00  0.00    +0.000 A 
ATOM     14  N   UNL     1       4.411   7.091  17.268  0.00  0.00    +0.000 NA
ATOM     15  C   UNL     1       3.414   7.922  17.661  0.00  0.00    +0.000 A 
ATOM     16  C   UNL     1       2.335   7.551  18.458  0.00  0.00    +0.000 A 
ATOM     17  C   UNL     1       2.310   6.200  18.825  0.00  0.00    +0.000 A 
ATOM     18  C   UNL     1       3.339   5.319  18.494  0.00  0.00    +0.000 A 
BRANCH  18  19
ATOM     19  N   UNL     1       3.255   3.988  19.020  0.00  0.00    +0.000 N 
ATOM     20  H   UNL     1       4.096   3.627  19.476  0.00  0.00    +0.000 HD
BRANCH  19  21
ATOM     21  S   UNL     1       2.552   2.786  18.060  0.00  0.00    +0.000 S 
ATOM     22  C   UNL     1       1.204   2.195  19.072  0.00  0.00    +0.000 C 
ATOM     23  O   UNL     1       2.024   3.391  16.861  0.00  0.00    +0.000 OA
ATOM     24  O   UNL     1       3.541   1.729  18.001  0.00  0.00    +0.000 OA
ENDBRANCH  19  21
ENDBRANCH  18  19
ENDBRANCH   1  16
BRANCH   3  25
ATOM     25  O   UNL     1      -1.229  10.654  17.310  0.00  0.00    +0.000 OA
BRANCH  25  26
ATOM     26  C   UNL     1      -2.293   9.921  16.680  0.00  0.00    +0.000 C 
ATOM     27  C   UNL     1      -2.768  10.712  15.459  0.00  0.00    +0.000 C 
ATOM     28  C   UNL     1      -3.862  11.629  15.992  0.00  0.00    +0.000 C 
ATOM     29  N   UNL     1      -4.433  10.907  17.111  0.00  0.00    +0.000 N 
ATOM     30  C   UNL     1      -5.593  11.179  17.809  0.00  0.00    +0.000 C 
ATOM     31  O   UNL     1      -5.982  10.470  18.733  0.00  0.00    +0.000 OA
ATOM     32  C   UNL     1      -3.562   9.827  17.545  0.00  0.00    +0.000 C 
BRANCH  30  33
ATOM     33  C   UNL     1      -6.366  12.404  17.439  0.00  0.00    +0.000 C 
ATOM     34  C   UNL     1      -7.639  12.765  18.177  0.00  0.00    +0.000 C 
ATOM     35  C   UNL     1      -6.390  13.558  18.420  0.00  0.00    +0.000 C 
ENDBRANCH  30  33
ENDBRANCH  25  26
ENDBRANCH   3  25
TORSDOF 6
ENDMDL
MODEL 2
REMARK VINA RESULT:      -8.0      4.647      8.172
REMARK  Name = 
REMARK  8 active torsions:
REMARK  status: ('A' for Active; 'I' for Inactive)
REMARK    1  A    between atoms: C_1  and  C_2
REMARK    2  A    between atoms: C_5  and  C_6
REMARK    3  A    between atoms: C_8  and  O_9
REMARK    4  A    between atoms: O_9  and  C_10
REMARK    5  A    between atoms: C_14  and  C_16
REMARK    6  A    between atoms: C_28  and  N_29
REMARK    7  A    between atoms: N_29  and  S_30
REMARK    8  A    between atoms: S_30  and  C_31
REMARK                            x       y       z     vdW  Elec       q    Type
REMARK                         _______ _______ _______ _____ _____    ______ ____
ROOT
ATOM      1  C   UNL     1      -1.700  11.943  21.327  0.00  0.00    +0.000 A 
ATOM      2  C   UNL     1      -1.845  11.999  19.918  0.00  0.00    +0.000 A 
ATOM      3  C   UNL     1      -1.224  11.080  19.041  0.00  0.00    +0.000 A 
ATOM      4  C   UNL     1      -0.353  10.125  19.547  0.00  0.00    +0.000 A 
ATOM      5  C   UNL     1      -0.241  10.047  20.920  0.00  0.00    +0.000 A 
ATOM      6  C   UNL     1      -0.909  10.898  21.810  0.00  0.00    +0.000 A 
ATOM      7  C   UNL     1      -0.645  10.425  23.209  0.00  0.00    +0.000 C 
ATOM      8  N   UNL     1       0.207   9.281  23.015  0.00  0.00    +0.000 N 
ATOM      9  C   UNL     1       0.492   9.042  21.698  0.00  0.00    +0.000 C 
ATOM     10  O   UNL     1       1.204   8.173  21.244  0.00  0.00    +0.000 OA
ATOM     11  H   UNL     1       0.586   8.698  23.748  0.00  0.00    +0.000 HD
ENDROOT
BRANCH   1  16
ATOM     12  C   UNL     1      -4.394  15.898  24.541  0.00  0.00    +0.000 C 
ATOM     13  C   UNL     1      -3.707  14.800  23.791  0.00  0.00    +0.000 A 
ATOM     14  N   UNL     1      -2.668  15.200  23.011  0.00  0.00    +0.000 NA
ATOM     15  C   UNL     1      -2.043  14.268  22.249  0.00  0.00    +0.000 A 
ATOM     16  C   UNL     1      -2.378  12.917  22.208  0.00  0.00    +0.000 A 
ATOM     17  C   UNL     1      -3.422  12.542  23.062  0.00  0.00    +0.000 A 
ATOM     18  C   UNL     1      -4.132  13.471  23.822  0.00  0.00    +0.000 A 
BRANCH  18  19
ATOM     19  N   UNL     1      -5.251  12.982  24.574  0.00  0.00    +0.000 N 
ATOM     20  H   UNL     1      -5.091  12.138  25.129  0.00  0.00    +0.000 HD
BRANCH  19  21
ATOM     21  S   UNL     1      -6.759  12.899  23.810  0.00  0.00    +0.000 S 
ATOM     22  C   UNL     1      -6.458  13.679  22.232  0.00  0.00    +0.000 C 
ATOM     23  O   UNL     1      -7.107  11.514  23.604  0.00  0.00    +0.000 OA
ATOM     24  O   UNL     1      -7.612  13.788  24.573  0.00  0.00    +0.000 OA
ENDBRANCH  19  21
ENDBRANCH  18  19
ENDBRANCH   1  16
BRANCH   3  25
ATOM     25  O   UNL     1      -1.593  11.205  17.724  0.00  0.00    +0.000 OA
BRANCH  25  26
ATOM     26  C   UNL     1      -2.515  10.235  17.202  0.00  0.00    +0.000 C 
ATOM     27  C   UNL     1      -3.065  10.759  15.873  0.00  0.00    +0.000 C 
ATOM     28  C   UNL     1      -4.299  11.566  16.254  0.00  0.00    +0.000 C 
ATOM     29  N   UNL     1      -4.791  10.936  17.463  0.00  0.00    +0.000 N 
ATOM     30  C   UNL     1      -6.000  11.127  18.102  0.00  0.00    +0.000 C 
ATOM     31  O   UNL     1      -6.307  10.510  19.119  0.00  0.00    +0.000 OA
ATOM     32  C   UNL     1      -3.782  10.077  18.061  0.00  0.00    +0.000 C 
BRANCH  30  33
ATOM     33  C   UNL     1      -6.934  12.154  17.548  0.00  0.00    +0.000 C 
ATOM     34  C   UNL     1      -7.750  13.034  18.473  0.00  0.00    +0.000 C 
ATOM     35  C   UNL     1      -6.584  13.616  17.732  0.00  0.00    +0.000 C 
ENDBRANCH  30  33
ENDBRANCH  25  26
ENDBRANCH   3  25
TORSDOF 6
ENDMDL
MODEL 3
REMARK VINA RESULT:      -7.9      1.188      1.283
REMARK  Name = 
REMARK  8 active torsions:
REMARK  status: ('A' for Active; 'I' for Inactive)
REMARK    1  A    between atoms: C_1  and  C_2
REMARK    2  A    between atoms: C_5  and  C_6
REMARK    3  A    between atoms: C_8  and  O_9
REMARK    4  A    between atoms: O_9  and  C_10
REMARK    5  A    between atoms: C_14  and  C_16
REMARK    6  A    between atoms: C_28  and  N_29
REMARK    7  A    between atoms: N_29  and  S_30
REMARK    8  A    between atoms: S_30  and  C_31
REMARK                            x       y       z     vdW  Elec       q    Type
REMARK                         _______ _______ _______ _____ _____    ______ ____
ROOT
ATOM      1  C   UNL     1       0.957   8.905  19.305  0.00  0.00    +0.000 A 
ATOM      2  C   UNL     1       0.097   9.500  18.348  0.00  0.00    +0.000 A 
ATOM      3  C   UNL     1      -0.937  10.400  18.692  0.00  0.00    +0.000 A 
ATOM      4  C   UNL     1      -1.207  10.662  20.029  0.00  0.00    +0.000 A 
ATOM      5  C   UNL     1      -0.347  10.114  20.958  0.00  0.00    +0.000 A 
ATOM      6  C   UNL     1       0.732   9.281  20.631  0.00  0.00    +0.000 A 
ATOM      7  C   UNL     1       1.507   8.994  21.884  0.00  0.00    +0.000 C 
ATOM      8  N   UNL     1       0.776   9.712  22.896  0.00  0.00    +0.000 N 
ATOM      9  C   UNL     1      -0.329  10.355  22.405  0.00  0.00    +0.000 C 
ATOM     10  O   UNL     1      -1.140  11.004  23.027  0.00  0.00    +0.000 OA
ATOM     11  H   UNL     1       1.013   9.751  23.877  0.00  0.00    +0.000 HD
ENDROOT
BRANCH   1  16
ATOM     12  C   UNL     1       5.331   5.503  17.718  0.00  0.00    +0.000 C 
ATOM     13  C   UNL     1       4.142   6.295  18.163  0.00  0.00    +0.000 A 
ATOM     14  N   UNL     1       3.841   7.367  17.383  0.00  0.00    +0.000 NA
ATOM     15  C   UNL     1       2.817   8.170  17.765  0.00  0.00    +0.000 A 
ATOM     16  C   UNL     1       2.034   7.978  18.900  0.00  0.00    +0.000 A 
ATOM     17  C   UNL     1       2.349   6.837  19.647  0.00  0.00    +0.000 A 
ATOM     18  C   UNL     1       3.427   6.012  19.328  0.00  0.00    +0.000 A 
BRANCH  18  19
ATOM     19  N   UNL     1       3.717   4.936  20.231  0.00  0.00    +0.000 N 
ATOM     20  H   UNL     1       4.704   4.775  20.442  0.00  0.00    +0.000 HD
BRANCH  19  21
ATOM     21  S   UNL     1       2.921   3.460  20.007  0.00  0.00    +0.000 S 
ATOM     22  C   UNL     1       4.257   2.328  19.655  0.00  0.00    +0.000 C 
ATOM     23  O   UNL     1       2.280   3.079  21.242  0.00  0.00    +0.000 OA
ATOM     24  O   UNL     1       2.164   3.627  18.782  0.00  0.00    +0.000 OA
ENDBRANCH  19  21
ENDBRANCH  18  19
ENDBRANCH   1  16
BRANCH   3  25
ATOM     25  O   UNL     1      -1.572  10.980  17.622  0.00  0.00    +0.000 OA
BRANCH  25  26
ATOM     26  C   UNL     1      -2.531  10.181  16.910  0.00  0.00    +0.000 C 
ATOM     27  C   UNL     1      -3.083  11.009  15.748  0.00  0.00    +0.000 C 
ATOM     28  C   UNL     1      -4.288  11.739  16.330  0.00  0.00    +0.000 C 
ATOM     29  N   UNL     1      -4.780  10.861  17.372  0.00  0.00    +0.000 N 
ATOM     30  C   UNL     1      -5.974  10.931  18.063  0.00  0.00    +0.000 C 
ATOM     31  O   UNL     1      -6.284  10.105  18.917  0.00  0.00    +0.000 OA
ATOM     32  C   UNL     1      -3.790   9.862  17.736  0.00  0.00    +0.000 C 
BRANCH  30  33
ATOM     33  C   UNL     1      -6.885  12.081  17.779  0.00  0.00    +0.000 C 
ATOM     34  C   UNL     1      -7.582  12.812  18.909  0.00  0.00    +0.000 C 
ATOM     35  C   UNL     1      -6.440  13.468  18.193  0.00  0.00    +0.000 C 
ENDBRANCH  30  33
ENDBRANCH  25  26
ENDBRANCH   3  25
TORSDOF 6
ENDMDL
MODEL 4
REMARK VINA RESULT:      -7.9      3.924      7.482
REMARK  Name = 
REMARK  8 active torsions:
REMARK  status: ('A' for Active; 'I' for Inactive)
REMARK    1  A    between atoms: C_1  and  C_2
REMARK    2  A    between atoms: C_5  and  C_6
REMARK    3  A    between atoms: C_8  and  O_9
REMARK    4  A    between atoms: O_9  and  C_10
REMARK    5  A    between atoms: C_14  and  C_16
REMARK    6  A    between atoms: C_28  and  N_29
REMARK    7  A    between atoms: N_29  and  S_30
REMARK    8  A    between atoms: S_30  and  C_31
REMARK                            x       y       z     vdW  Elec       q    Type
REMARK                         _______ _______ _______ _____ _____    ______ ____
ROOT
ATOM      1  C   UNL     1      -0.661  11.299  20.911  0.00  0.00    +0.000 A 
ATOM      2  C   UNL     1      -1.091  11.461  19.570  0.00  0.00    +0.000 A 
ATOM      3  C   UNL     1      -0.670  10.617  18.517  0.00  0.00    +0.000 A 
ATOM      4  C   UNL     1       0.278   9.633  18.759  0.00  0.00    +0.000 A 
ATOM      5  C   UNL     1       0.669   9.450  20.069  0.00  0.00    +0.000 A 
ATOM      6  C   UNL     1       0.204  10.226  21.140  0.00  0.00    +0.000 A 
ATOM      7  C   UNL     1       0.745   9.649  22.415  0.00  0.00    +0.000 C 
ATOM      8  N   UNL     1       1.530   8.530  21.964  0.00  0.00    +0.000 N 
ATOM      9  C   UNL     1       1.537   8.394  20.602  0.00  0.00    +0.000 C 
ATOM     10  O   UNL     1       2.133   7.569  19.947  0.00  0.00    +0.000 OA
ATOM     11  H   UNL     1       2.046   7.896  22.557  0.00  0.00    +0.000 HD
ENDROOT
BRANCH   1  16
ATOM     12  C   UNL     1      -2.488  15.015  24.920  0.00  0.00    +0.000 C 
ATOM     13  C   UNL     1      -2.056  13.969  23.942  0.00  0.00    +0.000 A 
ATOM     14  N   UNL     1      -0.860  14.203  23.341  0.00  0.00    +0.000 NA
ATOM     15  C   UNL     1      -0.438  13.331  22.391  0.00  0.00    +0.000 A 
ATOM     16  C   UNL     1      -1.135  12.198  21.984  0.00  0.00    +0.000 A 
ATOM     17  C   UNL     1      -2.339  11.971  22.662  0.00  0.00    +0.000 A 
ATOM     18  C   UNL     1      -2.843  12.866  23.605  0.00  0.00    +0.000 A 
BRANCH  18  19
ATOM     19  N   UNL     1      -4.138  12.581  24.150  0.00  0.00    +0.000 N 
ATOM     20  H   UNL     1      -4.256  11.663  24.584  0.00  0.00    +0.000 HD
BRANCH  19  21
ATOM     21  S   UNL     1      -5.502  12.969  23.228  0.00  0.00    +0.000 S 
ATOM     22  C   UNL     1      -5.182  14.649  22.715  0.00  0.00    +0.000 C 
ATOM     23  O   UNL     1      -5.545  12.112  22.068  0.00  0.00    +0.000 OA
ATOM     24  O   UNL     1      -6.595  13.010  24.178  0.00  0.00    +0.000 OA
ENDBRANCH  19  21
ENDBRANCH  18  19
ENDBRANCH   1  16
BRANCH   3  25
ATOM     25  O   UNL     1      -1.300  10.840  17.317  0.00  0.00    +0.000 OA
BRANCH  25  26
ATOM     26  C   UNL     1      -2.315   9.903  16.920  0.00  0.00    +0.000 C 
ATOM     27  C   UNL     1      -2.900  10.363  15.583  0.00  0.00    +0.000 C 
ATOM     28  C   UNL     1      -4.054  11.285  15.961  0.00  0.00    +0.000 C 
ATOM     29  N   UNL     1      -4.519  10.785  17.240  0.00  0.00    +0.000 N 
ATOM     30  C   UNL     1      -5.674  11.111  17.922  0.00  0.00    +0.000 C 
ATOM     31  O   UNL     1      -5.965  10.597  18.998  0.00  0.00    +0.000 OA
ATOM     32  C   UNL     1      -3.540   9.902  17.852  0.00  0.00    +0.000 C 
BRANCH  30  33
ATOM     33  C   UNL     1      -6.566  12.158  17.336  0.00  0.00    +0.000 C 
ATOM     34  C   UNL     1      -7.649  12.807  18.174  0.00  0.00    +0.000 C 
ATOM     35  C   UNL     1      -6.415  13.584  17.826  0.00  0.00    +0.000 C 
ENDBRANCH  30  33
ENDBRANCH  25  26
ENDBRANCH   3  25
TORSDOF 6
ENDMDL
MODEL 5
REMARK VINA RESULT:      -7.8      4.600      9.082
REMARK  Name = 
REMARK  8 active torsions:
REMARK  status: ('A' for Active; 'I' for Inactive)
REMARK    1  A    between atoms: C_1  and  C_2
REMARK    2  A    between atoms: C_5  and  C_6
REMARK    3  A    between atoms: C_8  and  O_9
REMARK    4  A    between atoms: O_9  and  C_10
REMARK    5  A    between atoms: C_14  and  C_16
REMARK    6  A    between atoms: C_28  and  N_29
REMARK    7  A    between atoms: N_29  and  S_30
REMARK    8  A    between atoms: S_30  and  C_31
REMARK                            x       y       z     vdW  Elec       q    Type
REMARK                         _______ _______ _______ _____ _____    ______ ____
ROOT
ATOM      1  C   UNL     1       0.765  11.729  19.234  0.00  0.00    +0.000 A 
ATOM      2  C   UNL     1       1.534  10.652  18.727  0.00  0.00    +0.000 A 
ATOM      3  C   UNL     1       0.978   9.594  17.971  0.00  0.00    +0.000 A 
ATOM      4  C   UNL     1      -0.395   9.533  17.778  0.00  0.00    +0.000 A 
ATOM      5  C   UNL     1      -1.139  10.600  18.238  0.00  0.00    +0.000 A 
ATOM      6  C   UNL     1      -0.596  11.696  18.922  0.00  0.00    +0.000 A 
ATOM      7  C   UNL     1      -1.684  12.706  19.141  0.00  0.00    +0.000 C 
ATOM      8  N   UNL     1      -2.837  12.083  18.545  0.00  0.00    +0.000 N 
ATOM      9  C   UNL     1      -2.571  10.842  18.033  0.00  0.00    +0.000 C 
ATOM     10  O   UNL     1      -3.351  10.081  17.505  0.00  0.00    +0.000 OA
ATOM     11  H   UNL     1      -3.764  12.482  18.501  0.00  0.00    +0.000 HD
ENDROOT
BRANCH   1  16
ATOM     12  C   UNL     1       3.215  15.816  22.478  0.00  0.00    +0.000 C 
ATOM     13  C   UNL     1       2.607  14.815  21.546  0.00  0.00    +0.000 A 
ATOM     14  N   UNL     1       1.467  14.228  21.998  0.00  0.00    +0.000 NA
ATOM     15  C   UNL     1       0.899  13.260  21.236  0.00  0.00    +0.000 A 
ATOM     16  C   UNL     1       1.390  12.821  20.010  0.00  0.00    +0.000 A 
ATOM     17  C   UNL     1       2.538  13.485  19.562  0.00  0.00    +0.000 A 
ATOM     18  C   UNL     1       3.190  14.447  20.333  0.00  0.00    +0.000 A 
BRANCH  18  19
ATOM     19  N   UNL     1       4.418  14.977  19.815  0.00  0.00    +0.000 N 
ATOM     20  H   UNL     1       5.137  15.211  20.503  0.00  0.00    +0.000 HD
BRANCH  19  21
ATOM     21  S   UNL     1       4.338  16.177  18.626  0.00  0.00    +0.000 S 
ATOM     22  C   UNL     1       5.926  16.984  18.756  0.00  0.00    +0.000 C 
ATOM     23  O   UNL     1       4.221  15.551  17.331  0.00  0.00    +0.000 OA
ATOM     24  O   UNL     1       3.340  17.112  19.106  0.00  0.00    +0.000 OA
ENDBRANCH  19  21
ENDBRANCH  18  19
ENDBRANCH   1  16
BRANCH   3  25
ATOM     25  O   UNL     1       1.897   8.718  17.448  0.00  0.00    +0.000 OA
BRANCH  25  26
ATOM     26  C   UNL     1       2.885   8.184  18.345  0.00  0.00    +0.000 C 
ATOM     27  C   UNL     1       3.801   7.249  17.552  0.00  0.00    +0.000 C 
ATOM     28  C   UNL     1       3.134   5.881  17.645  0.00  0.00    +0.000 C 
ATOM     29  N   UNL     1       2.433   5.902  18.914  0.00  0.00    +0.000 N 
ATOM     30  C   UNL     1       1.851   4.849  19.592  0.00  0.00    +0.000 C 
ATOM     31  O   UNL     1       1.299   4.996  20.678  0.00  0.00    +0.000 OA
ATOM     32  C   UNL     1       2.292   7.257  19.420  0.00  0.00    +0.000 C 
BRANCH  30  33
ATOM     33  C   UNL     1       1.867   3.501  18.945  0.00  0.00    +0.000 C 
ATOM     34  C   UNL     1       2.970   2.510  19.253  0.00  0.00    +0.000 C 
ATOM     35  C   UNL     1       1.597   2.288  19.811  0.00  0.00    +0.000 C 
ENDBRANCH  30  33
ENDBRANCH  25  26
ENDBRANCH   3  25
TORSDOF 6
ENDMDL
MODEL 6
REMARK VINA RESULT:      -7.8      3.845      9.912
REMARK  Name = 
REMARK  8 active torsions:
REMARK  status: ('A' for Active; 'I' for Inactive)
REMARK    1  A    between atoms: C_1  and  C_2
REMARK    2  A    between atoms: C_5  and  C_6
REMARK    3  A    between atoms: C_8  and  O_9
REMARK    4  A    between atoms: O_9  and  C_10
REMARK    5  A    between atoms: C_14  and  C_16
REMARK    6  A    between atoms: C_28  and  N_29
REMARK    7  A    between atoms: N_29  and  S_30
REMARK    8  A    between atoms: S_30  and  C_31
REMARK                            x       y       z     vdW  Elec       q    Type
REMARK                         _______ _______ _______ _____ _____    ______ ____
ROOT
ATOM      1  C   UNL     1      -0.505  11.196  19.951  0.00  0.00    +0.000 A 
ATOM      2  C   UNL     1       0.584  10.293  19.856  0.00  0.00    +0.000 A 
ATOM      3  C   UNL     1       0.794   9.451  18.741  0.00  0.00    +0.000 A 
ATOM      4  C   UNL     1      -0.142   9.417  17.716  0.00  0.00    +0.000 A 
ATOM      5  C   UNL     1      -1.181  10.321  17.789  0.00  0.00    +0.000 A 
ATOM      6  C   UNL     1      -1.364  11.219  18.850  0.00  0.00    +0.000 A 
ATOM      7  C   UNL     1      -2.514  12.123  18.513  0.00  0.00    +0.000 C 
ATOM      8  N   UNL     1      -2.938  11.651  17.221  0.00  0.00    +0.000 N 
ATOM      9  C   UNL     1      -2.207  10.583  16.774  0.00  0.00    +0.000 C 
ATOM     10  O   UNL     1      -2.360   9.966  15.743  0.00  0.00    +0.000 OA
ATOM     11  H   UNL     1      -3.698  12.032  16.675  0.00  0.00    +0.000 HD
ENDROOT
BRANCH   1  16
ATOM     12  C   UNL     1      -1.161  14.816  24.388  0.00  0.00    +0.000 C 
ATOM     13  C   UNL     1      -1.036  13.796  23.299  0.00  0.00    +0.000 A 
ATOM     14  N   UNL     1       0.084  13.906  22.536  0.00  0.00    +0.000 NA
ATOM     15  C   UNL     1       0.230  13.058  21.487  0.00  0.00    +0.000 A 
ATOM     16  C   UNL     1      -0.681  12.068  21.131  0.00  0.00    +0.000 A 
ATOM     17  C   UNL     1      -1.795  11.961  21.972  0.00  0.00    +0.000 A 
ATOM     18  C   UNL     1      -2.018  12.843  23.028  0.00  0.00    +0.000 A 
BRANCH  18  19
ATOM     19  N   UNL     1      -3.249  12.701  23.749  0.00  0.00    +0.000 N 
ATOM     20  H   UNL     1      -3.397  11.807  24.223  0.00  0.00    +0.000 HD
BRANCH  19  21
ATOM     21  S   UNL     1      -4.681  13.210  23.005  0.00  0.00    +0.000 S 
ATOM     22  C   UNL     1      -4.193  14.710  22.168  0.00  0.00    +0.000 C 
ATOM     23  O   UNL     1      -5.082  12.224  22.031  0.00  0.00    +0.000 OA
ATOM     24  O   UNL     1      -5.553  13.591  24.098  0.00  0.00    +0.000 OA
ENDBRANCH  19  21
ENDBRANCH  18  19
ENDBRANCH   1  16
BRANCH   3  25
ATOM     25  O   UNL     1       1.975   8.751  18.766  0.00  0.00    +0.000 OA
BRANCH  25  26
ATOM     26  C   UNL     1       2.148   7.713  17.787  0.00  0.00    +0.000 C 
ATOM     27  C   UNL     1       2.068   6.360  18.498  0.00  0.00    +0.000 C 
ATOM     28  C   UNL     1       3.501   6.055  18.915  0.00  0.00    +0.000 C 
ATOM     29  N   UNL     1       4.321   6.715  17.918  0.00  0.00    +0.000 N 
ATOM     30  C   UNL     1       5.677   6.579  17.693  0.00  0.00    +0.000 C 
ATOM     31  O   UNL     1       6.254   7.185  16.795  0.00  0.00    +0.000 OA
ATOM     32  C   UNL     1       3.555   7.693  17.165  0.00  0.00    +0.000 C 
BRANCH  30  33
ATOM     33  C   UNL     1       6.458   5.694  18.610  0.00  0.00    +0.000 C 
ATOM     34  C   UNL     1       7.603   4.853  18.082  0.00  0.00    +0.000 C 
ATOM     35  C   UNL     1       7.894   6.065  18.915  0.00  0.00    +0.000 C 
ENDBRANCH  30  33
ENDBRANCH  25  26
ENDBRANCH   3  25
TORSDOF 6
ENDMDL
MODEL 7
REMARK VINA RESULT:      -7.7      3.704      9.206
REMARK  Name = 
REMARK  8 active torsions:
REMARK  status: ('A' for Active; 'I' for Inactive)
REMARK    1  A    between atoms: C_1  and  C_2
REMARK    2  A    between atoms: C_5  and  C_6
REMARK    3  A    between atoms: C_8  and  O_9
REMARK    4  A    between atoms: O_9  and  C_10
REMARK    5  A    between atoms: C_14  and  C_16
REMARK    6  A    between atoms: C_28  and  N_29
REMARK    7  A    between atoms: N_29  and  S_30
REMARK    8  A    between atoms: S_30  and  C_31
REMARK                            x       y       z     vdW  Elec       q    Type
REMARK                         _______ _______ _______ _____ _____    ______ ____
ROOT
ATOM      1  C   UNL     1      -0.359  11.770  19.572  0.00  0.00    +0.000 A 
ATOM      2  C   UNL     1      -0.044  10.459  19.131  0.00  0.00    +0.000 A 
ATOM      3  C   UNL     1       1.176  10.131  18.497  0.00  0.00    +0.000 A 
ATOM      4  C   UNL     1       2.088  11.133  18.195  0.00  0.00    +0.000 A 
ATOM      5  C   UNL     1       1.799  12.400  18.656  0.00  0.00    +0.000 A 
ATOM      6  C   UNL     1       0.631  12.731  19.356  0.00  0.00    +0.000 A 
ATOM      7  C   UNL     1       0.734  14.160  19.804  0.00  0.00    +0.000 C 
ATOM      8  N   UNL     1       2.017  14.572  19.297  0.00  0.00    +0.000 N 
ATOM      9  C   UNL     1       2.659  13.587  18.596  0.00  0.00    +0.000 C 
ATOM     10  O   UNL     1       3.729  13.661  18.035  0.00  0.00    +0.000 OA
ATOM     11  H   UNL     1       2.429  15.487  19.413  0.00  0.00    +0.000 HD
ENDROOT
BRANCH   1  16
ATOM     12  C   UNL     1      -5.231  13.118  22.341  0.00  0.00    +0.000 C 
ATOM     13  C   UNL     1      -4.029  12.721  21.543  0.00  0.00    +0.000 A 
ATOM     14  N   UNL     1      -2.953  12.336  22.279  0.00  0.00    +0.000 NA
ATOM     15  C   UNL     1      -1.805  12.029  21.624  0.00  0.00    +0.000 A 
ATOM     16  C   UNL     1      -1.642  12.067  20.243  0.00  0.00    +0.000 A 
ATOM     17  C   UNL     1      -2.789  12.423  19.523  0.00  0.00    +0.000 A 
ATOM     18  C   UNL     1      -3.974  12.801  20.150  0.00  0.00    +0.000 A 
BRANCH  18  19
ATOM     19  N   UNL     1      -5.045  13.250  19.310  0.00  0.00    +0.000 N 
ATOM     20  H   UNL     1      -5.716  13.895  19.734  0.00  0.00    +0.000 HD
BRANCH  19  21
ATOM     21  S   UNL     1      -5.857  12.108  18.361  0.00  0.00    +0.000 S 
ATOM     22  C   UNL     1      -7.475  12.835  18.147  0.00  0.00    +0.000 C 
ATOM     23  O   UNL     1      -5.201  12.009  17.080  0.00  0.00    +0.000 OA
ATOM     24  O   UNL     1      -6.015  10.953  19.222  0.00  0.00    +0.000 OA
ENDBRANCH  19  21
ENDBRANCH  18  19
ENDBRANCH   1  16
BRANCH   3  25
ATOM     25  O   UNL     1       1.360   8.789  18.269  0.00  0.00    +0.000 OA
BRANCH  25  26
ATOM     26  C   UNL     1       2.480   8.158  18.912  0.00  0.00    +0.000 C 
ATOM     27  C   UNL     1       3.325   7.466  17.839  0.00  0.00    +0.000 C 
ATOM     28  C   UNL     1       2.738   6.063  17.729  0.00  0.00    +0.000 C 
ATOM     29  N   UNL     1       2.209   5.783  19.050  0.00  0.00    +0.000 N 
ATOM     30  C   UNL     1       1.769   4.578  19.562  0.00  0.00    +0.000 C 
ATOM     31  O   UNL     1       1.359   4.468  20.714  0.00  0.00    +0.000 OA
ATOM     32  C   UNL     1       2.076   6.997  19.837  0.00  0.00    +0.000 C 
BRANCH  30  33
ATOM     33  C   UNL     1       1.759   3.390  18.655  0.00  0.00    +0.000 C 
ATOM     34  C   UNL     1       2.785   2.286  18.817  0.00  0.00    +0.000 C 
ATOM     35  C   UNL     1       1.366   2.048  19.237  0.00  0.00    +0.000 C 
ENDBRANCH  30  33
ENDBRANCH  25  26
ENDBRANCH   3  25
TORSDOF 6
ENDMDL
MODEL 8
REMARK VINA RESULT:      -7.6      3.920      9.286
REMARK  Name = 
REMARK  8 active torsions:
REMARK  status: ('A' for Active; 'I' for Inactive)
REMARK    1  A    between atoms: C_1  and  C_2
REMARK    2  A    between atoms: C_5  and  C_6
REMARK    3  A    between atoms: C_8  and  O_9
REMARK    4  A    between atoms: O_9  and  C_10
REMARK    5  A    between atoms: C_14  and  C_16
REMARK    6  A    between atoms: C_28  and  N_29
REMARK    7  A    between atoms: N_29  and  S_30
REMARK    8  A    between atoms: S_30  and  C_31
REMARK                            x       y       z     vdW  Elec       q    Type
REMARK                         _______ _______ _______ _____ _____    ______ ____
ROOT
ATOM      1  C   UNL     1      -0.339  11.751  20.307  0.00  0.00    +0.000 A 
ATOM      2  C   UNL     1      -0.088  10.468  19.757  0.00  0.00    +0.000 A 
ATOM      3  C   UNL     1       1.009  10.193  18.910  0.00  0.00    +0.000 A 
ATOM      4  C   UNL     1       1.845  11.225  18.506  0.00  0.00    +0.000 A 
ATOM      5  C   UNL     1       1.624  12.464  19.070  0.00  0.00    +0.000 A 
ATOM      6  C   UNL     1       0.588  12.740  19.972  0.00  0.00    +0.000 A 
ATOM      7  C   UNL     1       0.749  14.149  20.464  0.00  0.00    +0.000 C 
ATOM      8  N   UNL     1       1.922  14.610  19.768  0.00  0.00    +0.000 N 
ATOM      9  C   UNL     1       2.447  13.670  18.922  0.00  0.00    +0.000 C 
ATOM     10  O   UNL     1       3.405  13.790  18.192  0.00  0.00    +0.000 OA
ATOM     11  H   UNL     1       2.336  15.527  19.856  0.00  0.00    +0.000 HD
ENDROOT
BRANCH   1  16
ATOM     12  C   UNL     1      -4.676  12.848  23.942  0.00  0.00    +0.000 C 
ATOM     13  C   UNL     1      -3.626  12.532  22.923  0.00  0.00    +0.000 A 
ATOM     14  N   UNL     1      -2.484  11.992  23.424  0.00  0.00    +0.000 NA
ATOM     15  C   UNL     1      -1.462  11.744  22.567  0.00  0.00    +0.000 A 
ATOM     16  C   UNL     1      -1.493  11.992  21.198  0.00  0.00    +0.000 A 
ATOM     17  C   UNL     1      -2.705  12.505  20.719  0.00  0.00    +0.000 A 
ATOM     18  C   UNL     1      -3.763  12.829  21.566  0.00  0.00    +0.000 A 
BRANCH  18  19
ATOM     19  N   UNL     1      -4.911  13.449  20.971  0.00  0.00    +0.000 N 
ATOM     20  H   UNL     1      -5.364  14.184  21.518  0.00  0.00    +0.000 HD
BRANCH  19  21
ATOM     21  S   UNL     1      -6.077  12.459  20.249  0.00  0.00    +0.000 S 
ATOM     22  C   UNL     1      -7.437  13.579  19.958  0.00  0.00    +0.000 C 
ATOM     23  O   UNL     1      -5.571  11.979  18.986  0.00  0.00    +0.000 OA
ATOM     24  O   UNL     1      -6.490  11.544  21.295  0.00  0.00    +0.000 OA
ENDBRANCH  19  21
ENDBRANCH  18  19
ENDBRANCH   1  16
BRANCH   3  25
ATOM     25  O   UNL     1       1.168   8.867  18.590  0.00  0.00    +0.000 OA
BRANCH  25  26
ATOM     26  C   UNL     1       2.325   8.195  19.115  0.00  0.00    +0.000 C 
ATOM     27  C   UNL     1       3.104   7.589  17.946  0.00  0.00    +0.000 C 
ATOM     28  C   UNL     1       2.513   6.196  17.766  0.00  0.00    +0.000 C 
ATOM     29  N   UNL     1       2.064   5.815  19.090  0.00  0.00    +0.000 N 
ATOM     30  C   UNL     1       1.657   4.573  19.535  0.00  0.00    +0.000 C 
ATOM     31  O   UNL     1       1.317   4.374  20.698  0.00  0.00    +0.000 OA
ATOM     32  C   UNL     1       1.978   6.966  19.973  0.00  0.00    +0.000 C 
BRANCH  30  33
ATOM     33  C   UNL     1       1.593   3.456  18.544  0.00  0.00    +0.000 C 
ATOM     34  C   UNL     1       2.286   2.137  18.821  0.00  0.00    +0.000 C 
ATOM     35  C   UNL     1       0.792   2.222  18.904  0.00  0.00    +0.000 C 
ENDBRANCH  30  33
ENDBRANCH  25  26
ENDBRANCH   3  25
TORSDOF 6
ENDMDL
MODEL 9
REMARK VINA RESULT:      -7.6      4.667      9.009
REMARK  Name = 
REMARK  8 active torsions:
REMARK  status: ('A' for Active; 'I' for Inactive)
REMARK    1  A    between atoms: C_1  and  C_2
REMARK    2  A    between atoms: C_5  and  C_6
REMARK    3  A    between atoms: C_8  and  O_9
REMARK    4  A    between atoms: O_9  and  C_10
REMARK    5  A    between atoms: C_14  and  C_16
REMARK    6  A    between atoms: C_28  and  N_29
REMARK    7  A    between atoms: N_29  and  S_30
REMARK    8  A    between atoms: S_30  and  C_31
REMARK                            x       y       z     vdW  Elec       q    Type
REMARK                         _______ _______ _______ _____ _____    ______ ____
ROOT
ATOM      1  C   UNL     1       0.971  11.680  18.961  0.00  0.00    +0.000 A 
ATOM      2  C   UNL     1       1.782  10.611  18.505  0.00  0.00    +0.000 A 
ATOM      3  C   UNL     1       1.262   9.474  17.845  0.00  0.00    +0.000 A 
ATOM      4  C   UNL     1      -0.112   9.326  17.706  0.00  0.00    +0.000 A 
ATOM      5  C   UNL     1      -0.898  10.382  18.116  0.00  0.00    +0.000 A 
ATOM      6  C   UNL     1      -0.395  11.552  18.701  0.00  0.00    +0.000 A 
ATOM      7  C   UNL     1      -1.531  12.516  18.887  0.00  0.00    +0.000 C 
ATOM      8  N   UNL     1      -2.666  11.792  18.378  0.00  0.00    +0.000 N 
ATOM      9  C   UNL     1      -2.348  10.533  17.945  0.00  0.00    +0.000 C 
ATOM     10  O   UNL     1      -3.100   9.695  17.500  0.00  0.00    +0.000 OA
ATOM     11  H   UNL     1      -3.614  12.136  18.339  0.00  0.00    +0.000 HD
ENDROOT
BRANCH   1  16
ATOM     12  C   UNL     1       3.377  16.098  21.776  0.00  0.00    +0.000 C 
ATOM     13  C   UNL     1       2.738  15.019  20.959  0.00  0.00    +0.000 A 
ATOM     14  N   UNL     1       1.945  14.163  21.656  0.00  0.00    +0.000 NA
ATOM     15  C   UNL     1       1.389  13.119  20.992  0.00  0.00    +0.000 A 
ATOM     16  C   UNL     1       1.558  12.857  19.636  0.00  0.00    +0.000 A 
ATOM     17  C   UNL     1       2.343  13.790  18.948  0.00  0.00    +0.000 A 
ATOM     18  C   UNL     1       2.982  14.846  19.595  0.00  0.00    +0.000 A 
BRANCH  18  19
ATOM     19  N   UNL     1       3.848  15.671  18.804  0.00  0.00    +0.000 N 
ATOM     20  H   UNL     1       3.545  15.857  17.845  0.00  0.00    +0.000 HD
BRANCH  19  21
ATOM     21  S   UNL     1       5.510  15.358  18.839  0.00  0.00    +0.000 S 
ATOM     22  C   UNL     1       6.230  16.993  18.833  0.00  0.00    +0.000 C 
ATOM     23  O   UNL     1       5.838  14.693  20.077  0.00  0.00    +0.000 OA
ATOM     24  O   UNL     1       5.804  14.754  17.555  0.00  0.00    +0.000 OA
ENDBRANCH  19  21
ENDBRANCH  18  19
ENDBRANCH   1  16
BRANCH   3  25
ATOM     25  O   UNL     1       2.211   8.613  17.352  0.00  0.00    +0.000 OA
BRANCH  25  26
ATOM     26  C   UNL     1       3.096   7.994  18.300  0.00  0.00    +0.000 C 
ATOM     27  C   UNL     1       4.052   7.073  17.537  0.00  0.00    +0.000 C 
ATOM     28  C   UNL     1       3.338   5.727  17.489  0.00  0.00    +0.000 C 
ATOM     29  N   UNL     1       2.525   5.700  18.689  0.00  0.00    +0.000 N 
ATOM     30  C   UNL     1       1.852   4.632  19.248  0.00  0.00    +0.000 C 
ATOM     31  O   UNL     1       1.208   4.737  20.288  0.00  0.00    +0.000 OA
ATOM     32  C   UNL     1       2.380   7.028  19.260  0.00  0.00    +0.000 C 
BRANCH  30  33
ATOM     33  C   UNL     1       1.886   3.323  18.526  0.00  0.00    +0.000 C 
ATOM     34  C   UNL     1       2.912   2.269  18.887  0.00  0.00    +0.000 C 
ATOM     35  C   UNL     1       1.479   2.076  19.283  0.00  0.00    +0.000 C 
ENDBRANCH  30  33
ENDBRANCH  25  26
ENDBRANCH   3  25
TORSDOF 6
ENDMDL
