MODEL 1
REMARK VINA RESULT:      -8.3      0.000      0.000
REMARK  Name = 
REMARK  6 active torsions:
REMARK  status: ('A' for Active; 'I' for Inactive)
REMARK    1  A    between atoms: C_1  and  C_2
REMARK    2  A    between atoms: N_4  and  C_5
REMARK    3  A    between atoms: C_8  and  S_9
REMARK    4  A    between atoms: S_9  and  N_12
REMARK    5  A    between atoms: N_12  and  C_13
REMARK    6  A    between atoms: C_17  and  C_18
REMARK                            x       y       z     vdW  Elec       q    Type
REMARK                         _______ _______ _______ _____ _____    ______ ____
ROOT
ATOM      1  N   UNL     1       2.344   5.845  21.189  0.00  0.00    +0.000 N 
ATOM      2  H   UNL     1       3.134   5.900  21.826  0.00  0.00    +0.000 HD
ENDROOT
BRANCH   1   3
ATOM      3  C   UNL     1       1.968   6.976  20.427  0.00  0.00    +0.000 A 
ATOM      4  C   UNL     1       2.481   7.105  19.138  0.00  0.00    +0.000 A 
ATOM      5  C   UNL     1       2.173   8.230  18.378  0.00  0.00    +0.000 A 
ATOM      6  C   UNL     1       1.367   9.233  18.917  0.00  0.00    +0.000 A 
ATOM      7  C   UNL     1       0.846   9.111  20.214  0.00  0.00    +0.000 A 
ATOM      8  C   UNL     1       1.137   7.958  20.958  0.00  0.00    +0.000 A 
BRANCH   7   9
ATOM      9  C   UNL     1       0.059  10.173  20.810  0.00  0.00    +0.000 A 
ATOM     10  C   UNL     1      -0.455  10.173  22.100  0.00  0.00    +0.000 A 
ATOM     11  N   UNL     1      -1.120  11.346  22.179  0.00  0.00    +0.000 N 
ATOM     12  C   UNL     1      -1.006  11.992  20.995  0.00  0.00    +0.000 A 
ATOM     13  N   UNL     1      -0.290  11.332  20.129  0.00  0.00    +0.000 NA
ATOM     14  S   UNL     1      -1.809  13.509  20.978  0.00  0.00    +0.000 S 
ATOM     15  C   UNL     1      -2.069  13.439  22.802  0.00  0.00    +0.000 C 
ATOM     16  C   UNL     1      -1.915  11.969  23.209  0.00  0.00    +0.000 C 
ENDBRANCH   7   9
ENDBRANCH   1   3
BRANCH   1  17
ATOM     17  S   UNL     1       1.970   4.301  20.628  0.00  0.00    +0.000 S 
ATOM     18  O   UNL     1       0.608   4.288  20.145  0.00  0.00    +0.000 OA
ATOM     19  O   UNL     1       2.407   3.386  21.662  0.00  0.00    +0.000 OA
BRANCH  17  23
ATOM     20  C   UNL     1       4.794   3.799  17.049  0.00  0.00    +0.000 A 
ATOM     21  C   UNL     1       5.284   4.113  18.322  0.00  0.00    +0.000 A 
ATOM     22  C   UNL     1       4.421   4.257  19.407  0.00  0.00    +0.000 A 
ATOM     23  C   UNL     1       3.050   4.087  19.227  0.00  0.00    +0.000 A 
ATOM     24  C   UNL     1       2.542   3.738  17.974  0.00  0.00    +0.000 A 
ATOM     25  C   UNL     1       3.412   3.624  16.880  0.00  0.00    +0.000 A 
BRANCH  20  29
ATOM     26  C   UNL     1       6.759   4.199  13.850  0.00  0.00    +0.000 C 
ATOM     27  C   UNL     1       5.924   4.673  15.008  0.00  0.00    +0.000 C 
ATOM     28  O   UNL     1       5.574   5.849  15.073  0.00  0.00    +0.000 OA
ATOM     29  N   UNL     1       5.634   3.673  15.923  0.00  0.00    +0.000 N 
ATOM     30  H   UNL     1       6.106   2.784  15.807  0.00  0.00    +0.000 HD
ENDBRANCH  20  29
ENDBRANCH  17  23
ENDBRANCH   1  17
TORSDOF 5
ENDMDL
MODEL 2
REMARK VINA RESULT:      -8.2      0.829      1.365
REMARK  Name = 
REMARK  6 active torsions:
REMARK  status: ('A' for Active; 'I' for Inactive)
REMARK    1  A    between atoms: C_1  and  C_2
REMARK    2  A    between atoms: N_4  and  C_5
REMARK    3  A    between atoms: C_8  and  S_9
REMARK    4  A    between atoms: S_9  and  N_12
REMARK    5  A    between atoms: N_12  and  C_13
REMARK    6  A    between atoms: C_17  and  C_18
REMARK                            x       y       z     vdW  Elec       q    Type
REMARK                         _______ _______ _______ _____ _____    ______ ____
ROOT
ATOM      1  N   UNL     1       2.300   6.259  21.111  0.00  0.00    +0.000 N 
ATOM      2  H   UNL     1       3.088   6.369  21.744  0.00  0.00    +0.000 HD
ENDROOT
BRANCH   1   3
ATOM      3  C   UNL     1       1.900   7.335  20.284  0.00  0.00    +0.000 A 
ATOM      4  C   UNL     1       2.395   7.388  18.983  0.00  0.00    +0.000 A 
ATOM      5  C   UNL     1       2.063   8.457  18.156  0.00  0.00    +0.000 A 
ATOM      6  C   UNL     1       1.250   9.482  18.641  0.00  0.00    +0.000 A 
ATOM      7  C   UNL     1       0.747   9.436  19.949  0.00  0.00    +0.000 A 
ATOM      8  C   UNL     1       1.062   8.337  20.762  0.00  0.00    +0.000 A 
BRANCH   7   9
ATOM      9  C   UNL     1      -0.049  10.524  20.486  0.00  0.00    +0.000 A 
ATOM     10  C   UNL     1      -1.110  11.144  19.840  0.00  0.00    +0.000 A 
ATOM     11  N   UNL     1      -1.507  12.092  20.717  0.00  0.00    +0.000 N 
ATOM     12  C   UNL     1      -0.714  12.032  21.812  0.00  0.00    +0.000 A 
ATOM     13  N   UNL     1       0.182  11.090  21.733  0.00  0.00    +0.000 NA
ATOM     14  S   UNL     1      -1.132  13.191  23.007  0.00  0.00    +0.000 S 
ATOM     15  C   UNL     1      -2.696  13.602  22.123  0.00  0.00    +0.000 C 
ATOM     16  C   UNL     1      -2.522  13.116  20.679  0.00  0.00    +0.000 C 
ENDBRANCH   7   9
ENDBRANCH   1   3
BRANCH   1  17
ATOM     17  S   UNL     1       1.962   4.676  20.643  0.00  0.00    +0.000 S 
ATOM     18  O   UNL     1       0.596   4.601  20.178  0.00  0.00    +0.000 OA
ATOM     19  O   UNL     1       2.434   3.833  21.723  0.00  0.00    +0.000 OA
BRANCH  17  23
ATOM     20  C   UNL     1       4.675   3.945  17.019  0.00  0.00    +0.000 A 
ATOM     21  C   UNL     1       3.285   3.805  16.925  0.00  0.00    +0.000 A 
ATOM     22  C   UNL     1       2.465   4.036  18.028  0.00  0.00    +0.000 A 
ATOM     23  C   UNL     1       3.033   4.411  19.244  0.00  0.00    +0.000 A 
ATOM     24  C   UNL     1       4.413   4.592  19.352  0.00  0.00    +0.000 A 
ATOM     25  C   UNL     1       5.235   4.329  18.246  0.00  0.00    +0.000 A 
BRANCH  20  29
ATOM     26  C   UNL     1       6.775   4.020  13.881  0.00  0.00    +0.000 C 
ATOM     27  C   UNL     1       5.951   4.620  14.988  0.00  0.00    +0.000 C 
ATOM     28  O   UNL     1       5.713   5.825  14.992  0.00  0.00    +0.000 OA
ATOM     29  N   UNL     1       5.537   3.692  15.931  0.00  0.00    +0.000 N 
ATOM     30  H   UNL     1       5.926   2.759  15.869  0.00  0.00    +0.000 HD
ENDBRANCH  20  29
ENDBRANCH  17  23
ENDBRANCH   1  17
TORSDOF 5
ENDMDL
MODEL 3
REMARK VINA RESULT:      -8.2      0.785      1.030
REMARK  Name = 
REMARK  6 active torsions:
REMARK  status: ('A' for Active; 'I' for Inactive)
REMARK    1  A    between atoms: C_1  and  C_2
REMARK    2  A    between atoms: N_4  and  C_5
REMARK    3  A    between atoms: C_8  and  S_9
REMARK    4  A    between atoms: S_9  and  N_12
REMARK    5  A    between atoms: N_12  and  C_13
REMARK    6  A    between atoms: C_17  and  C_18
REMARK                            x       y       z     vdW  Elec       q    Type
REMARK                         _______ _______ _______ _____ _____    ______ ____
ROOT
ATOM      1  N   UNL     1       2.343   5.952  21.125  0.00  0.00    +0.000 N 
ATOM      2  H   UNL     1       3.128   6.023  21.767  0.00  0.00    +0.000 HD
ENDROOT
BRANCH   1   3
ATOM      3  C   UNL     1       1.978   7.061  20.326  0.00  0.00    +0.000 A 
ATOM      4  C   UNL     1       2.448   7.115  19.016  0.00  0.00    +0.000 A 
ATOM      5  C   UNL     1       2.152   8.216  18.216  0.00  0.00    +0.000 A 
ATOM      6  C   UNL     1       1.400   9.269  18.737  0.00  0.00    +0.000 A 
ATOM      7  C   UNL     1       0.922   9.222  20.055  0.00  0.00    +0.000 A 
ATOM      8  C   UNL     1       1.201   8.094  20.840  0.00  0.00    +0.000 A 
BRANCH   7   9
ATOM      9  C   UNL     1       0.192  10.337  20.628  0.00  0.00    +0.000 A 
ATOM     10  C   UNL     1       0.176  11.633  20.131  0.00  0.00    +0.000 A 
ATOM     11  N   UNL     1      -0.612  12.300  21.003  0.00  0.00    +0.000 N 
ATOM     12  C   UNL     1      -1.026  11.438  21.962  0.00  0.00    +0.000 A 
ATOM     13  N   UNL     1      -0.578  10.229  21.779  0.00  0.00    +0.000 NA
ATOM     14  S   UNL     1      -2.046  12.174  23.130  0.00  0.00    +0.000 S 
ATOM     15  C   UNL     1      -2.200  13.694  22.099  0.00  0.00    +0.000 C 
ATOM     16  C   UNL     1      -1.024  13.677  21.117  0.00  0.00    +0.000 C 
ENDBRANCH   7   9
ENDBRANCH   1   3
BRANCH   1  17
ATOM     17  S   UNL     1       1.968   4.393  20.607  0.00  0.00    +0.000 S 
ATOM     18  O   UNL     1       0.604   4.367  20.130  0.00  0.00    +0.000 OA
ATOM     19  O   UNL     1       2.410   3.507  21.665  0.00  0.00    +0.000 OA
BRANCH  17  23
ATOM     20  C   UNL     1       4.778   3.796  17.032  0.00  0.00    +0.000 A 
ATOM     21  C   UNL     1       5.272   4.153  18.292  0.00  0.00    +0.000 A 
ATOM     22  C   UNL     1       4.414   4.326  19.376  0.00  0.00    +0.000 A 
ATOM     23  C   UNL     1       3.043   4.142  19.209  0.00  0.00    +0.000 A 
ATOM     24  C   UNL     1       2.531   3.750  17.970  0.00  0.00    +0.000 A 
ATOM     25  C   UNL     1       3.397   3.607  16.876  0.00  0.00    +0.000 A 
BRANCH  20  29
ATOM     26  C   UNL     1       6.764   4.128  13.838  0.00  0.00    +0.000 C 
ATOM     27  C   UNL     1       5.949   4.632  14.998  0.00  0.00    +0.000 C 
ATOM     28  O   UNL     1       5.651   5.821  15.069  0.00  0.00    +0.000 OA
ATOM     29  N   UNL     1       5.614   3.640  15.907  0.00  0.00    +0.000 N 
ATOM     30  H   UNL     1       6.047   2.732  15.787  0.00  0.00    +0.000 HD
ENDBRANCH  20  29
ENDBRANCH  17  23
ENDBRANCH   1  17
TORSDOF 5
ENDMDL
MODEL 4
REMARK VINA RESULT:      -8.0      5.359      7.692
REMARK  Name = 
REMARK  6 active torsions:
REMARK  status: ('A' for Active; 'I' for Inactive)
REMARK    1  A    between atoms: C_1  and  C_2
REMARK    2  A    between atoms: N_4  and  C_5
REMARK    3  A    between atoms: C_8  and  S_9
REMARK    4  A    between atoms: S_9  and  N_12
REMARK    5  A    between atoms: N_12  and  C_13
REMARK    6  A    between atoms: C_17  and  C_18
REMARK                            x       y       z     vdW  Elec       q    Type
REMARK                         _______ _______ _______ _____ _____    ______ ____
ROOT
ATOM      1  N   UNL     1       7.033   5.527  15.625  0.00  0.00    +0.000 N 
ATOM      2  H   UNL     1       7.652   5.497  14.818  0.00  0.00    +0.000 HD
ENDROOT
BRANCH   1   3
ATOM      3  C   UNL     1       7.500   6.042  16.857  0.00  0.00    +0.000 A 
ATOM      4  C   UNL     1       7.557   5.184  17.953  0.00  0.00    +0.000 A 
ATOM      5  C   UNL     1       7.963   5.668  19.194  0.00  0.00    +0.000 A 
ATOM      6  C   UNL     1       8.294   7.015  19.338  0.00  0.00    +0.000 A 
ATOM      7  C   UNL     1       8.241   7.886  18.240  0.00  0.00    +0.000 A 
ATOM      8  C   UNL     1       7.861   7.379  16.988  0.00  0.00    +0.000 A 
BRANCH   7   9
ATOM      9  C   UNL     1       8.523   9.301  18.389  0.00  0.00    +0.000 A 
ATOM     10  C   UNL     1       9.260   9.874  19.416  0.00  0.00    +0.000 A 
ATOM     11  N   UNL     1       9.227  11.194  19.136  0.00  0.00    +0.000 N 
ATOM     12  C   UNL     1       8.501  11.381  18.008  0.00  0.00    +0.000 A 
ATOM     13  N   UNL     1       8.058  10.265  17.504  0.00  0.00    +0.000 NA
ATOM     14  S   UNL     1       8.395  13.031  17.545  0.00  0.00    +0.000 S 
ATOM     15  C   UNL     1       9.682  13.503  18.777  0.00  0.00    +0.000 C 
ATOM     16  C   UNL     1       9.747  12.364  19.800  0.00  0.00    +0.000 C 
ENDBRANCH   7   9
ENDBRANCH   1   3
BRANCH   1  17
ATOM     17  S   UNL     1       5.386   5.568  15.275  0.00  0.00    +0.000 S 
ATOM     18  O   UNL     1       5.107   4.653  14.192  0.00  0.00    +0.000 OA
ATOM     19  O   UNL     1       5.034   6.970  15.181  0.00  0.00    +0.000 OA
BRANCH  17  23
ATOM     20  C   UNL     1       3.445   3.957  19.106  0.00  0.00    +0.000 A 
ATOM     21  C   UNL     1       3.452   5.326  18.816  0.00  0.00    +0.000 A 
ATOM     22  C   UNL     1       4.037   5.809  17.647  0.00  0.00    +0.000 A 
ATOM     23  C   UNL     1       4.625   4.919  16.750  0.00  0.00    +0.000 A 
ATOM     24  C   UNL     1       4.597   3.546  17.000  0.00  0.00    +0.000 A 
ATOM     25  C   UNL     1       4.034   3.069  18.193  0.00  0.00    +0.000 A 
BRANCH  20  29
ATOM     26  C   UNL     1       1.248   2.660  21.890  0.00  0.00    +0.000 C 
ATOM     27  C   UNL     1       1.563   3.070  20.477  0.00  0.00    +0.000 C 
ATOM     28  O   UNL     1       0.682   3.051  19.621  0.00  0.00    +0.000 OA
ATOM     29  N   UNL     1       2.887   3.436  20.293  0.00  0.00    +0.000 N 
ATOM     30  H   UNL     1       3.528   3.270  21.059  0.00  0.00    +0.000 HD
ENDBRANCH  20  29
ENDBRANCH  17  23
ENDBRANCH   1  17
TORSDOF 5
ENDMDL
MODEL 5
REMARK VINA RESULT:      -7.8      3.562     10.345
REMARK  Name = 
REMARK  6 active torsions:
REMARK  status: ('A' for Active; 'I' for Inactive)
REMARK    1  A    between atoms: C_1  and  C_2
REMARK    2  A    between atoms: N_4  and  C_5
REMARK    3  A    between atoms: C_8  and  S_9
REMARK    4  A    between atoms: S_9  and  N_12
REMARK    5  A    between atoms: N_12  and  C_13
REMARK    6  A    between atoms: C_17  and  C_18
REMARK                            x       y       z     vdW  Elec       q    Type
REMARK                         _______ _______ _______ _____ _____    ______ ____
ROOT
ATOM      1  N   UNL     1      -0.429  10.048  20.560  0.00  0.00    +0.000 N 
ATOM      2  H   UNL     1      -1.360  10.150  20.165  0.00  0.00    +0.000 HD
ENDROOT
BRANCH   1   3
ATOM      3  C   UNL     1       0.614   9.496  19.781  0.00  0.00    +0.000 A 
ATOM      4  C   UNL     1       1.076  10.222  18.685  0.00  0.00    +0.000 A 
ATOM      5  C   UNL     1       2.067   9.688  17.866  0.00  0.00    +0.000 A 
ATOM      6  C   UNL     1       2.580   8.420  18.135  0.00  0.00    +0.000 A 
ATOM      7  C   UNL     1       2.121   7.682  19.236  0.00  0.00    +0.000 A 
ATOM      8  C   UNL     1       1.146   8.244  20.072  0.00  0.00    +0.000 A 
BRANCH   7   9
ATOM      9  C   UNL     1       2.602   6.337  19.491  0.00  0.00    +0.000 A 
ATOM     10  C   UNL     1       3.716   5.752  18.905  0.00  0.00    +0.000 A 
ATOM     11  N   UNL     1       3.740   4.510  19.434  0.00  0.00    +0.000 N 
ATOM     12  C   UNL     1       2.691   4.376  20.279  0.00  0.00    +0.000 A 
ATOM     13  N   UNL     1       1.972   5.458  20.362  0.00  0.00    +0.000 NA
ATOM     14  S   UNL     1       2.622   2.831  21.023  0.00  0.00    +0.000 S 
ATOM     15  C   UNL     1       4.307   2.411  20.405  0.00  0.00    +0.000 C 
ATOM     16  C   UNL     1       4.595   3.364  19.240  0.00  0.00    +0.000 C 
ENDBRANCH   7   9
ENDBRANCH   1   3
BRANCH   1  17
ATOM     17  S   UNL     1      -0.059  11.095  21.827  0.00  0.00    +0.000 S 
ATOM     18  O   UNL     1       0.851  12.111  21.352  0.00  0.00    +0.000 OA
ATOM     19  O   UNL     1       0.283  10.249  22.954  0.00  0.00    +0.000 OA
BRANCH  17  23
ATOM     20  C   UNL     1      -4.049  13.168  22.730  0.00  0.00    +0.000 A 
ATOM     21  C   UNL     1      -3.453  13.259  21.467  0.00  0.00    +0.000 A 
ATOM     22  C   UNL     1      -2.244  12.621  21.196  0.00  0.00    +0.000 A 
ATOM     23  C   UNL     1      -1.615  11.880  22.195  0.00  0.00    +0.000 A 
ATOM     24  C   UNL     1      -2.209  11.745  23.452  0.00  0.00    +0.000 A 
ATOM     25  C   UNL     1      -3.410  12.415  23.727  0.00  0.00    +0.000 A 
BRANCH  20  29
ATOM     26  C   UNL     1      -7.623  14.243  23.300  0.00  0.00    +0.000 C 
ATOM     27  C   UNL     1      -6.521  13.256  23.027  0.00  0.00    +0.000 C 
ATOM     28  O   UNL     1      -6.790  12.076  22.820  0.00  0.00    +0.000 OA
ATOM     29  N   UNL     1      -5.257  13.824  23.047  0.00  0.00    +0.000 N 
ATOM     30  H   UNL     1      -5.181  14.782  23.367  0.00  0.00    +0.000 HD
ENDBRANCH  20  29
ENDBRANCH  17  23
ENDBRANCH   1  17
TORSDOF 5
ENDMDL
MODEL 6
REMARK VINA RESULT:      -7.8      3.702      5.021
REMARK  Name = 
REMARK  6 active torsions:
REMARK  status: ('A' for Active; 'I' for Inactive)
REMARK    1  A    between atoms: C_1  and  C_2
REMARK    2  A    between atoms: N_4  and  C_5
REMARK    3  A    between atoms: C_8  and  S_9
REMARK    4  A    between atoms: S_9  and  N_12
REMARK    5  A    between atoms: N_12  and  C_13
REMARK    6  A    between atoms: C_17  and  C_18
REMARK                            x       y       z     vdW  Elec       q    Type
REMARK                         _______ _______ _______ _____ _____    ______ ____
ROOT
ATOM      1  N   UNL     1       5.001   3.680  18.498  0.00  0.00    +0.000 N 
ATOM      2  H   UNL     1       5.776   3.214  18.962  0.00  0.00    +0.000 HD
ENDROOT
BRANCH   1   3
ATOM      3  C   UNL     1       3.863   4.075  19.240  0.00  0.00    +0.000 A 
ATOM      4  C   UNL     1       3.084   3.083  19.832  0.00  0.00    +0.000 A 
ATOM      5  C   UNL     1       1.929   3.430  20.527  0.00  0.00    +0.000 A 
ATOM      6  C   UNL     1       1.547   4.768  20.613  0.00  0.00    +0.000 A 
ATOM      7  C   UNL     1       2.326   5.773  20.020  0.00  0.00    +0.000 A 
ATOM      8  C   UNL     1       3.504   5.414  19.350  0.00  0.00    +0.000 A 
BRANCH   7   9
ATOM      9  C   UNL     1       1.907   7.162  20.049  0.00  0.00    +0.000 A 
ATOM     10  C   UNL     1       1.316   7.806  21.128  0.00  0.00    +0.000 A 
ATOM     11  N   UNL     1       1.095   9.057  20.670  0.00  0.00    +0.000 N 
ATOM     12  C   UNL     1       1.528   9.136  19.390  0.00  0.00    +0.000 A 
ATOM     13  N   UNL     1       2.042   8.018  18.963  0.00  0.00    +0.000 NA
ATOM     14  S   UNL     1       1.305  10.692  18.701  0.00  0.00    +0.000 S 
ATOM     15  C   UNL     1       0.882  11.406  20.346  0.00  0.00    +0.000 C 
ATOM     16  C   UNL     1       0.481  10.230  21.243  0.00  0.00    +0.000 C 
ENDBRANCH   7   9
ENDBRANCH   1   3
BRANCH   1  17
ATOM     17  S   UNL     1       5.392   4.495  17.075  0.00  0.00    +0.000 S 
ATOM     18  O   UNL     1       4.202   5.117  16.542  0.00  0.00    +0.000 OA
ATOM     19  O   UNL     1       6.170   3.563  16.285  0.00  0.00    +0.000 OA
BRANCH  17  23
ATOM     20  C   UNL     1       8.215   7.801  18.538  0.00  0.00    +0.000 A 
ATOM     21  C   UNL     1       8.196   6.541  19.146  0.00  0.00    +0.000 A 
ATOM     22  C   UNL     1       7.341   5.538  18.693  0.00  0.00    +0.000 A 
ATOM     23  C   UNL     1       6.491   5.789  17.618  0.00  0.00    +0.000 A 
ATOM     24  C   UNL     1       6.518   7.026  16.972  0.00  0.00    +0.000 A 
ATOM     25  C   UNL     1       7.359   8.041  17.452  0.00  0.00    +0.000 A 
BRANCH  20  29
ATOM     26  C   UNL     1      10.085  11.024  19.149  0.00  0.00    +0.000 C 
ATOM     27  C   UNL     1       8.988  10.169  18.574  0.00  0.00    +0.000 C 
ATOM     28  O   UNL     1       8.153  10.665  17.821  0.00  0.00    +0.000 OA
ATOM     29  N   UNL     1       9.046   8.848  18.988  0.00  0.00    +0.000 N 
ATOM     30  H   UNL     1       9.710   8.616  19.718  0.00  0.00    +0.000 HD
ENDBRANCH  20  29
ENDBRANCH  17  23
ENDBRANCH   1  17
TORSDOF 5
ENDMDL
MODEL 7
REMARK VINA RESULT:      -7.8      4.193      5.734
REMARK  Name = 
REMARK  6 active torsions:
REMARK  status: ('A' for Active; 'I' for Inactive)
REMARK    1  A    between atoms: C_1  and  C_2
REMARK    2  A    between atoms: N_4  and  C_5
REMARK    3  A    between atoms: C_8  and  S_9
REMARK    4  A    between atoms: S_9  and  N_12
REMARK    5  A    between atoms: N_12  and  C_13
REMARK    6  A    between atoms: C_17  and  C_18
REMARK                            x       y       z     vdW  Elec       q    Type
REMARK                         _______ _______ _______ _____ _____    ______ ____
ROOT
ATOM      1  N   UNL     1       5.941   4.246  17.857  0.00  0.00    +0.000 N 
ATOM      2  H   UNL     1       6.529   3.946  18.631  0.00  0.00    +0.000 HD
ENDROOT
BRANCH   1   3
ATOM      3  C   UNL     1       4.553   4.437  18.054  0.00  0.00    +0.000 A 
ATOM      4  C   UNL     1       3.686   3.411  17.683  0.00  0.00    +0.000 A 
ATOM      5  C   UNL     1       2.311   3.582  17.815  0.00  0.00    +0.000 A 
ATOM      6  C   UNL     1       1.806   4.788  18.301  0.00  0.00    +0.000 A 
ATOM      7  C   UNL     1       2.671   5.826  18.677  0.00  0.00    +0.000 A 
ATOM      8  C   UNL     1       4.056   5.629  18.569  0.00  0.00    +0.000 A 
BRANCH   7   9
ATOM      9  C   UNL     1       2.158   7.106  19.125  0.00  0.00    +0.000 A 
ATOM     10  C   UNL     1       1.675   7.383  20.397  0.00  0.00    +0.000 A 
ATOM     11  N   UNL     1       1.299   8.678  20.321  0.00  0.00    +0.000 N 
ATOM     12  C   UNL     1       1.543   9.129  19.068  0.00  0.00    +0.000 A 
ATOM     13  N   UNL     1       2.075   8.221  18.301  0.00  0.00    +0.000 NA
ATOM     14  S   UNL     1       1.110  10.776  18.852  0.00  0.00    +0.000 S 
ATOM     15  C   UNL     1       0.866  10.994  20.666  0.00  0.00    +0.000 C 
ATOM     16  C   UNL     1       0.684   9.590  21.254  0.00  0.00    +0.000 C 
ENDBRANCH   7   9
ENDBRANCH   1   3
BRANCH   1  17
ATOM     17  S   UNL     1       6.732   5.086  16.629  0.00  0.00    +0.000 S 
ATOM     18  O   UNL     1       5.755   5.578  15.685  0.00  0.00    +0.000 OA
ATOM     19  O   UNL     1       7.823   4.232  16.203  0.00  0.00    +0.000 OA
BRANCH  17  23
ATOM     20  C   UNL     1       8.541   8.671  18.844  0.00  0.00    +0.000 A 
ATOM     21  C   UNL     1       8.600   7.380  19.382  0.00  0.00    +0.000 A 
ATOM     22  C   UNL     1       8.055   6.294  18.701  0.00  0.00    +0.000 A 
ATOM     23  C   UNL     1       7.441   6.490  17.466  0.00  0.00    +0.000 A 
ATOM     24  C   UNL     1       7.403   7.763  16.892  0.00  0.00    +0.000 A 
ATOM     25  C   UNL     1       7.927   8.857  17.597  0.00  0.00    +0.000 A 
BRANCH  20  29
ATOM     26  C   UNL     1      10.324  11.809  19.955  0.00  0.00    +0.000 C 
ATOM     27  C   UNL     1       9.824  10.804  18.953  0.00  0.00    +0.000 C 
ATOM     28  O   UNL     1      10.102  10.932  17.763  0.00  0.00    +0.000 OA
ATOM     29  N   UNL     1       9.058   9.797  19.519  0.00  0.00    +0.000 N 
ATOM     30  H   UNL     1       8.798   9.900  20.492  0.00  0.00    +0.000 HD
ENDBRANCH  20  29
ENDBRANCH  17  23
ENDBRANCH   1  17
TORSDOF 5
ENDMDL
MODEL 8
REMARK VINA RESULT:      -7.8      3.657     10.401
REMARK  Name = 
REMARK  6 active torsions:
REMARK  status: ('A' for Active; 'I' for Inactive)
REMARK    1  A    between atoms: C_1  and  C_2
REMARK    2  A    between atoms: N_4  and  C_5
REMARK    3  A    between atoms: C_8  and  S_9
REMARK    4  A    between atoms: S_9  and  N_12
REMARK    5  A    between atoms: N_12  and  C_13
REMARK    6  A    between atoms: C_17  and  C_18
REMARK                            x       y       z     vdW  Elec       q    Type
REMARK                         _______ _______ _______ _____ _____    ______ ____
ROOT
ATOM      1  N   UNL     1      -0.560  10.503  20.439  0.00  0.00    +0.000 N 
ATOM      2  H   UNL     1      -1.427  10.731  19.960  0.00  0.00    +0.000 HD
ENDROOT
BRANCH   1   3
ATOM      3  C   UNL     1       0.489   9.860  19.740  0.00  0.00    +0.000 A 
ATOM      4  C   UNL     1       1.056  10.516  18.650  0.00  0.00    +0.000 A 
ATOM      5  C   UNL     1       2.055   9.894  17.907  0.00  0.00    +0.000 A 
ATOM      6  C   UNL     1       2.472   8.607  18.247  0.00  0.00    +0.000 A 
ATOM      7  C   UNL     1       1.907   7.939  19.344  0.00  0.00    +0.000 A 
ATOM      8  C   UNL     1       0.924   8.589  20.103  0.00  0.00    +0.000 A 
BRANCH   7   9
ATOM      9  C   UNL     1       2.287   6.578  19.670  0.00  0.00    +0.000 A 
ATOM     10  C   UNL     1       3.298   5.851  19.055  0.00  0.00    +0.000 A 
ATOM     11  N   UNL     1       3.255   4.654  19.679  0.00  0.00    +0.000 N 
ATOM     12  C   UNL     1       2.266   4.679  20.603  0.00  0.00    +0.000 A 
ATOM     13  N   UNL     1       1.652   5.827  20.650  0.00  0.00    +0.000 NA
ATOM     14  S   UNL     1       2.120   3.205  21.470  0.00  0.00    +0.000 S 
ATOM     15  C   UNL     1       3.710   2.588  20.771  0.00  0.00    +0.000 C 
ATOM     16  C   UNL     1       3.989   3.423  19.517  0.00  0.00    +0.000 C 
ENDBRANCH   7   9
ENDBRANCH   1   3
BRANCH   1  17
ATOM     17  S   UNL     1      -0.205  11.448  21.788  0.00  0.00    +0.000 S 
ATOM     18  O   UNL     1       0.672  12.526  21.394  0.00  0.00    +0.000 OA
ATOM     19  O   UNL     1       0.169  10.521  22.836  0.00  0.00    +0.000 OA
BRANCH  17  23
ATOM     20  C   UNL     1      -4.252  13.239  22.993  0.00  0.00    +0.000 A 
ATOM     21  C   UNL     1      -3.260  12.980  23.946  0.00  0.00    +0.000 A 
ATOM     22  C   UNL     1      -2.030  12.443  23.573  0.00  0.00    +0.000 A 
ATOM     23  C   UNL     1      -1.779  12.157  22.232  0.00  0.00    +0.000 A 
ATOM     24  C   UNL     1      -2.739  12.440  21.260  0.00  0.00    +0.000 A 
ATOM     25  C   UNL     1      -3.987  12.953  21.646  0.00  0.00    +0.000 A 
BRANCH  20  29
ATOM     26  C   UNL     1      -7.845  13.841  23.985  0.00  0.00    +0.000 C 
ATOM     27  C   UNL     1      -6.593  13.024  23.820  0.00  0.00    +0.000 C 
ATOM     28  O   UNL     1      -6.594  11.830  24.109  0.00  0.00    +0.000 OA
ATOM     29  N   UNL     1      -5.518  13.756  23.339  0.00  0.00    +0.000 N 
ATOM     30  H   UNL     1      -5.629  14.761  23.276  0.00  0.00    +0.000 HD
ENDBRANCH  20  29
ENDBRANCH  17  23
ENDBRANCH   1  17
TORSDOF 5
ENDMDL
MODEL 9
REMARK VINA RESULT:      -7.7      3.769      5.749
REMARK  Name = 
REMARK  6 active torsions:
REMARK  status: ('A' for Active; 'I' for Inactive)
REMARK    1  A    between atoms: C_1  and  C_2
REMARK    2  A    between atoms: N_4  and  C_5
REMARK    3  A    between atoms: C_8  and  S_9
REMARK    4  A    between atoms: S_9  and  N_12
REMARK    5  A    between atoms: N_12  and  C_13
REMARK    6  A    between atoms: C_17  and  C_18
REMARK                            x       y       z     vdW  Elec       q    Type
REMARK                         _______ _______ _______ _____ _____    ______ ____
ROOT
ATOM      1  N   UNL     1       5.545   3.582  17.161  0.00  0.00    +0.000 N 
ATOM      2  H   UNL     1       6.246   3.010  17.625  0.00  0.00    +0.000 HD
ENDROOT
BRANCH   1   3
ATOM      3  C   UNL     1       4.298   3.822  17.785  0.00  0.00    +0.000 A 
ATOM      4  C   UNL     1       3.434   2.744  17.968  0.00  0.00    +0.000 A 
ATOM      5  C   UNL     1       2.178   2.950  18.533  0.00  0.00    +0.000 A 
ATOM      6  C   UNL     1       1.783   4.238  18.896  0.00  0.00    +0.000 A 
ATOM      7  C   UNL     1       2.648   5.328  18.715  0.00  0.00    +0.000 A 
ATOM      8  C   UNL     1       3.922   5.103  18.175  0.00  0.00    +0.000 A 
BRANCH   7   9
ATOM      9  C   UNL     1       2.227   6.679  19.031  0.00  0.00    +0.000 A 
ATOM     10  C   UNL     1       2.242   7.756  18.154  0.00  0.00    +0.000 A 
ATOM     11  N   UNL     1       1.787   8.784  18.903  0.00  0.00    +0.000 N 
ATOM     12  C   UNL     1       1.527   8.331  20.152  0.00  0.00    +0.000 A 
ATOM     13  N   UNL     1       1.764   7.057  20.284  0.00  0.00    +0.000 NA
ATOM     14  S   UNL     1       0.931   9.554  21.199  0.00  0.00    +0.000 S 
ATOM     15  C   UNL     1       0.707  10.714  19.784  0.00  0.00    +0.000 C 
ATOM     16  C   UNL     1       1.587  10.188  18.644  0.00  0.00    +0.000 C 
ENDBRANCH   7   9
ENDBRANCH   1   3
BRANCH   1  17
ATOM     17  S   UNL     1       6.140   4.687  16.036  0.00  0.00    +0.000 S 
ATOM     18  O   UNL     1       5.030   5.322  15.362  0.00  0.00    +0.000 OA
ATOM     19  O   UNL     1       7.165   3.984  15.292  0.00  0.00    +0.000 OA
BRANCH  17  23
ATOM     20  C   UNL     1       8.236   7.891  18.560  0.00  0.00    +0.000 A 
ATOM     21  C   UNL     1       7.529   8.229  17.400  0.00  0.00    +0.000 A 
ATOM     22  C   UNL     1       6.888   7.252  16.641  0.00  0.00    +0.000 A 
ATOM     23  C   UNL     1       6.949   5.918  17.039  0.00  0.00    +0.000 A 
ATOM     24  C   UNL     1       7.617   5.562  18.212  0.00  0.00    +0.000 A 
ATOM     25  C   UNL     1       8.286   6.546  18.955  0.00  0.00    +0.000 A 
BRANCH  20  29
ATOM     26  C   UNL     1      10.011  10.912  19.969  0.00  0.00    +0.000 C 
ATOM     27  C   UNL     1       9.150  10.171  18.982  0.00  0.00    +0.000 C 
ATOM     28  O   UNL     1       8.724  10.746  17.984  0.00  0.00    +0.000 OA
ATOM     29  N   UNL     1       8.920   8.850  19.337  0.00  0.00    +0.000 N 
ATOM     30  H   UNL     1       9.222   8.555  20.257  0.00  0.00    +0.000 HD
ENDBRANCH  20  29
ENDBRANCH  17  23
ENDBRANCH   1  17
TORSDOF 5
ENDMDL
