MODEL 1
REMARK VINA RESULT:     -10.2      0.000      0.000
REMARK  Name = 
REMARK  7 active torsions:
REMARK  status: ('A' for Active; 'I' for Inactive)
REMARK    1  A    between atoms: C_1  and  C_2
REMARK    2  A    between atoms: N_4  and  C_5
REMARK    3  A    between atoms: C_5  and  C_6
REMARK    4  A    between atoms: C_10  and  C_11
REMARK    5  A    between atoms: N_14  and  C_15
REMARK    6  A    between atoms: C_20  and  C_21
REMARK    7  A    between atoms: C_28  and  C_29
REMARK                            x       y       z     vdW  Elec       q    Type
REMARK                         _______ _______ _______ _____ _____    ______ ____
ROOT
ATOM      1  C   UNL     1       2.186   7.892  19.045  0.00  0.00    +0.000 A 
ATOM      2  C   UNL     1       2.968   8.075  17.908  0.00  0.00    +0.000 A 
ATOM      3  C   UNL     1       3.787   7.055  17.446  0.00  0.00    +0.000 A 
ATOM      4  C   UNL     1       3.942   5.844  18.157  0.00  0.00    +0.000 A 
ATOM      5  C   UNL     1       4.811   4.787  17.768  0.00  0.00    +0.000 A 
ATOM      6  C   UNL     1       4.892   3.652  18.575  0.00  0.00    +0.000 A 
ATOM      7  C   UNL     1       4.107   3.592  19.715  0.00  0.00    +0.000 A 
ATOM      8  N   UNL     1       3.250   4.573  20.101  0.00  0.00    +0.000 NA
ATOM      9  C   UNL     1       3.172   5.670  19.335  0.00  0.00    +0.000 A 
ATOM     10  C   UNL     1       2.295   6.675  19.734  0.00  0.00    +0.000 A 
ENDROOT
BRANCH   5  11
ATOM     11  C   UNL     1       5.622   4.832  16.551  0.00  0.00    +0.000 A 
ATOM     12  C   UNL     1       6.758   5.596  16.190  0.00  0.00    +0.000 A 
ATOM     13  N   UNL     1       7.164   5.375  14.937  0.00  0.00    +0.000 NA
ATOM     14  N   UNL     1       6.321   4.412  14.496  0.00  0.00    +0.000 N 
ATOM     15  C   UNL     1       5.388   4.054  15.435  0.00  0.00    +0.000 A 
BRANCH  14  16
ATOM     16  C   UNL     1       6.457   3.850  13.158  0.00  0.00    +0.000 C 
ATOM     17  F   UNL     1       5.259   3.827  12.515  0.00  0.00    +0.000 F 
ATOM     18  F   UNL     1       7.294   4.603  12.392  0.00  0.00    +0.000 F 
ENDBRANCH  14  16
ENDBRANCH   5  11
BRANCH   7  19
ATOM     19  C   UNL     1       4.194   2.391  20.606  0.00  0.00    +0.000 C 
ATOM     20  N   UNL     1       5.169   1.485  20.287  0.00  0.00    +0.000 N 
ATOM     21  O   UNL     1       3.440   2.220  21.555  0.00  0.00    +0.000 OA
ATOM     22  H   UNL     1       5.778   1.661  19.496  0.00  0.00    +0.000 HD
ATOM     23  H   UNL     1       5.278   0.653  20.848  0.00  0.00    +0.000 HD
ENDBRANCH   7  19
BRANCH   1  24
ATOM     24  C   UNL     1       1.262   8.992  19.514  0.00  0.00    +0.000 C 
BRANCH  24  28
ATOM     25  C   UNL     1      -0.305  13.023  20.714  0.00  0.00    +0.000 C 
ATOM     26  C   UNL     1      -0.259  11.652  20.056  0.00  0.00    +0.000 C 
ATOM     27  C   UNL     1       1.044  11.462  19.252  0.00  0.00    +0.000 C 
ATOM     28  N   UNL     1       1.131  10.138  18.592  0.00  0.00    +0.000 NA
ATOM     29  C   UNL     1      -0.095   9.993  17.758  0.00  0.00    +0.000 C 
ATOM     30  C   UNL     1      -1.416  10.233  18.528  0.00  0.00    +0.000 C 
ATOM     31  O   UNL     1      -1.396  11.525  19.188  0.00  0.00    +0.000 OA
BRANCH  30  32
ATOM     32  C   UNL     1      -2.624  10.079  17.590  0.00  0.00    +0.000 C 
ATOM     33  F   UNL     1      -3.445   9.068  17.958  0.00  0.00    +0.000 F 
ATOM     34  F   UNL     1      -3.369  11.214  17.601  0.00  0.00    +0.000 F 
ATOM     35  F   UNL     1      -2.264   9.857  16.306  0.00  0.00    +0.000 F 
ENDBRANCH  30  32
ENDBRANCH  24  28
ENDBRANCH   1  24
TORSDOF 6
ENDMDL
MODEL 2
REMARK VINA RESULT:      -9.4      2.293      2.725
REMARK  Name = 
REMARK  7 active torsions:
REMARK  status: ('A' for Active; 'I' for Inactive)
REMARK    1  A    between atoms: C_1  and  C_2
REMARK    2  A    between atoms: N_4  and  C_5
REMARK    3  A    between atoms: C_5  and  C_6
REMARK    4  A    between atoms: C_10  and  C_11
REMARK    5  A    between atoms: N_14  and  C_15
REMARK    6  A    between atoms: C_20  and  C_21
REMARK    7  A    between atoms: C_28  and  C_29
REMARK                            x       y       z     vdW  Elec       q    Type
REMARK                         _______ _______ _______ _____ _____    ______ ____
ROOT
ATOM      1  C   UNL     1       2.102   8.684  18.633  0.00  0.00    +0.000 A 
ATOM      2  C   UNL     1       3.127   8.556  17.701  0.00  0.00    +0.000 A 
ATOM      3  C   UNL     1       3.765   7.337  17.521  0.00  0.00    +0.000 A 
ATOM      4  C   UNL     1       3.479   6.219  18.336  0.00  0.00    +0.000 A 
ATOM      5  C   UNL     1       4.140   4.963  18.241  0.00  0.00    +0.000 A 
ATOM      6  C   UNL     1       3.782   3.946  19.126  0.00  0.00    +0.000 A 
ATOM      7  C   UNL     1       2.781   4.195  20.051  0.00  0.00    +0.000 A 
ATOM      8  N   UNL     1       2.114   5.374  20.151  0.00  0.00    +0.000 NA
ATOM      9  C   UNL     1       2.458   6.359  19.310  0.00  0.00    +0.000 A 
ATOM     10  C   UNL     1       1.776   7.568  19.416  0.00  0.00    +0.000 A 
ENDROOT
BRANCH   5  11
ATOM     11  C   UNL     1       5.179   4.684  17.249  0.00  0.00    +0.000 A 
ATOM     12  C   UNL     1       6.592   4.665  17.327  0.00  0.00    +0.000 A 
ATOM     13  N   UNL     1       7.181   4.421  16.153  0.00  0.00    +0.000 NA
ATOM     14  N   UNL     1       6.139   4.218  15.312  0.00  0.00    +0.000 N 
ATOM     15  C   UNL     1       4.924   4.360  15.931  0.00  0.00    +0.000 A 
BRANCH  14  16
ATOM     16  C   UNL     1       6.360   3.876  13.913  0.00  0.00    +0.000 C 
ATOM     17  F   UNL     1       5.188   3.868  13.222  0.00  0.00    +0.000 F 
ATOM     18  F   UNL     1       7.164   4.791  13.304  0.00  0.00    +0.000 F 
ENDBRANCH  14  16
ENDBRANCH   5  11
BRANCH   7  19
ATOM     19  C   UNL     1       2.394   3.123  21.023  0.00  0.00    +0.000 C 
ATOM     20  N   UNL     1       1.050   2.916  21.174  0.00  0.00    +0.000 N 
ATOM     21  O   UNL     1       3.221   2.474  21.651  0.00  0.00    +0.000 OA
ATOM     22  H   UNL     1       0.393   3.470  20.634  0.00  0.00    +0.000 HD
ATOM     23  H   UNL     1       0.724   2.208  21.815  0.00  0.00    +0.000 HD
ENDBRANCH   7  19
BRANCH   1  24
ATOM     24  C   UNL     1       1.381  10.003  18.789  0.00  0.00    +0.000 C 
BRANCH  24  28
ATOM     25  C   UNL     1      -1.270  13.479  19.810  0.00  0.00    +0.000 C 
ATOM     26  C   UNL     1      -0.491  12.184  19.984  0.00  0.00    +0.000 C 
ATOM     27  C   UNL     1      -0.817  11.180  18.857  0.00  0.00    +0.000 C 
ATOM     28  N   UNL     1      -0.079   9.902  18.989  0.00  0.00    +0.000 NA
ATOM     29  C   UNL     1      -0.379   9.370  20.347  0.00  0.00    +0.000 C 
ATOM     30  C   UNL     1      -0.114  10.377  21.493  0.00  0.00    +0.000 C 
ATOM     31  O   UNL     1      -0.828  11.618  21.259  0.00  0.00    +0.000 OA
BRANCH  30  32
ATOM     32  C   UNL     1      -0.465   9.752  22.853  0.00  0.00    +0.000 C 
ATOM     33  F   UNL     1      -1.374  10.479  23.542  0.00  0.00    +0.000 F 
ATOM     34  F   UNL     1      -1.003   8.519  22.673  0.00  0.00    +0.000 F 
ATOM     35  F   UNL     1       0.615   9.597  23.652  0.00  0.00    +0.000 F 
ENDBRANCH  30  32
ENDBRANCH  24  28
ENDBRANCH   1  24
TORSDOF 6
ENDMDL
MODEL 3
REMARK VINA RESULT:      -9.4      1.209      1.452
REMARK  Name = 
REMARK  7 active torsions:
REMARK  status: ('A' for Active; 'I' for Inactive)
REMARK    1  A    between atoms: C_1  and  C_2
REMARK    2  A    between atoms: N_4  and  C_5
REMARK    3  A    between atoms: C_5  and  C_6
REMARK    4  A    between atoms: C_10  and  C_11
REMARK    5  A    between atoms: N_14  and  C_15
REMARK    6  A    between atoms: C_20  and  C_21
REMARK    7  A    between atoms: C_28  and  C_29
REMARK                            x       y       z     vdW  Elec       q    Type
REMARK                         _______ _______ _______ _____ _____    ______ ____
ROOT
ATOM      1  C   UNL     1       1.498   8.800  19.393  0.00  0.00    +0.000 A 
ATOM      2  C   UNL     1       2.285   8.915  18.251  0.00  0.00    +0.000 A 
ATOM      3  C   UNL     1       3.008   7.827  17.783  0.00  0.00    +0.000 A 
ATOM      4  C   UNL     1       3.061   6.606  18.493  0.00  0.00    +0.000 A 
ATOM      5  C   UNL     1       3.830   5.478  18.098  0.00  0.00    +0.000 A 
ATOM      6  C   UNL     1       3.817   4.339  18.904  0.00  0.00    +0.000 A 
ATOM      7  C   UNL     1       3.038   4.348  20.049  0.00  0.00    +0.000 A 
ATOM      8  N   UNL     1       2.272   5.400  20.441  0.00  0.00    +0.000 NA
ATOM      9  C   UNL     1       2.286   6.500  19.676  0.00  0.00    +0.000 A 
ATOM     10  C   UNL     1       1.504   7.578  20.081  0.00  0.00    +0.000 A 
ENDROOT
BRANCH   5  11
ATOM     11  C   UNL     1       4.634   5.452  16.875  0.00  0.00    +0.000 A 
ATOM     12  C   UNL     1       5.431   6.433  16.237  0.00  0.00    +0.000 A 
ATOM     13  N   UNL     1       5.958   6.016  15.083  0.00  0.00    +0.000 NA
ATOM     14  N   UNL     1       5.550   4.727  14.998  0.00  0.00    +0.000 N 
ATOM     15  C   UNL     1       4.762   4.349  16.055  0.00  0.00    +0.000 A 
BRANCH  14  16
ATOM     16  C   UNL     1       5.954   3.884  13.879  0.00  0.00    +0.000 C 
ATOM     17  F   UNL     1       4.962   3.794  12.953  0.00  0.00    +0.000 F 
ATOM     18  F   UNL     1       7.037   4.405  13.239  0.00  0.00    +0.000 F 
ENDBRANCH  14  16
ENDBRANCH   5  11
BRANCH   7  19
ATOM     19  C   UNL     1       3.024   3.143  20.939  0.00  0.00    +0.000 C 
ATOM     20  N   UNL     1       2.085   3.151  21.934  0.00  0.00    +0.000 N 
ATOM     21  O   UNL     1       3.803   2.209  20.795  0.00  0.00    +0.000 OA
ATOM     22  H   UNL     1       1.452   3.939  22.021  0.00  0.00    +0.000 HD
ATOM     23  H   UNL     1       2.024   2.368  22.568  0.00  0.00    +0.000 HD
ENDBRANCH   7  19
BRANCH   1  24
ATOM     24  C   UNL     1       0.677   9.977  19.868  0.00  0.00    +0.000 C 
BRANCH  24  28
ATOM     25  C   UNL     1      -1.966  13.542  20.539  0.00  0.00    +0.000 C 
ATOM     26  C   UNL     1      -1.507  12.188  20.018  0.00  0.00    +0.000 C 
ATOM     27  C   UNL     1      -0.115  12.286  19.359  0.00  0.00    +0.000 C 
ATOM     28  N   UNL     1       0.370  10.988  18.836  0.00  0.00    +0.000 NA
ATOM     29  C   UNL     1      -0.679  10.478  17.909  0.00  0.00    +0.000 C 
ATOM     30  C   UNL     1      -2.096  10.422  18.528  0.00  0.00    +0.000 C 
ATOM     31  O   UNL     1      -2.471  11.717  19.064  0.00  0.00    +0.000 OA
BRANCH  30  32
ATOM     32  C   UNL     1      -3.114   9.902  17.500  0.00  0.00    +0.000 C 
ATOM     33  F   UNL     1      -2.531   9.493  16.350  0.00  0.00    +0.000 F 
ATOM     34  F   UNL     1      -3.779   8.832  18.006  0.00  0.00    +0.000 F 
ATOM     35  F   UNL     1      -4.046  10.825  17.173  0.00  0.00    +0.000 F 
ENDBRANCH  30  32
ENDBRANCH  24  28
ENDBRANCH   1  24
TORSDOF 6
ENDMDL
MODEL 4
REMARK VINA RESULT:      -9.4      1.629      2.045
REMARK  Name = 
REMARK  7 active torsions:
REMARK  status: ('A' for Active; 'I' for Inactive)
REMARK    1  A    between atoms: C_1  and  C_2
REMARK    2  A    between atoms: N_4  and  C_5
REMARK    3  A    between atoms: C_5  and  C_6
REMARK    4  A    between atoms: C_10  and  C_11
REMARK    5  A    between atoms: N_14  and  C_15
REMARK    6  A    between atoms: C_20  and  C_21
REMARK    7  A    between atoms: C_28  and  C_29
REMARK                            x       y       z     vdW  Elec       q    Type
REMARK                         _______ _______ _______ _____ _____    ______ ____
ROOT
ATOM      1  C   UNL     1       2.093   7.988  18.748  0.00  0.00    +0.000 A 
ATOM      2  C   UNL     1       2.945   8.142  17.659  0.00  0.00    +0.000 A 
ATOM      3  C   UNL     1       3.805   7.118  17.290  0.00  0.00    +0.000 A 
ATOM      4  C   UNL     1       3.928   5.936  18.054  0.00  0.00    +0.000 A 
ATOM      5  C   UNL     1       4.834   4.878  17.762  0.00  0.00    +0.000 A 
ATOM      6  C   UNL     1       4.876   3.774  18.613  0.00  0.00    +0.000 A 
ATOM      7  C   UNL     1       4.018   3.744  19.701  0.00  0.00    +0.000 A 
ATOM      8  N   UNL     1       3.125   4.725  19.993  0.00  0.00    +0.000 NA
ATOM      9  C   UNL     1       3.084   5.792  19.184  0.00  0.00    +0.000 A 
ATOM     10  C   UNL     1       2.171   6.798  19.488  0.00  0.00    +0.000 A 
ENDROOT
BRANCH   5  11
ATOM     11  C   UNL     1       5.723   4.892  16.599  0.00  0.00    +0.000 A 
ATOM     12  C   UNL     1       6.941   5.564  16.339  0.00  0.00    +0.000 A 
ATOM     13  N   UNL     1       7.407   5.350  15.105  0.00  0.00    +0.000 NA
ATOM     14  N   UNL     1       6.514   4.480  14.577  0.00  0.00    +0.000 N 
ATOM     15  C   UNL     1       5.495   4.175  15.442  0.00  0.00    +0.000 A 
BRANCH  14  16
ATOM     16  C   UNL     1       6.688   3.953  13.229  0.00  0.00    +0.000 C 
ATOM     17  F   UNL     1       5.487   3.768  12.619  0.00  0.00    +0.000 F 
ATOM     18  F   UNL     1       7.390   4.820  12.449  0.00  0.00    +0.000 F 
ENDBRANCH  14  16
ENDBRANCH   5  11
BRANCH   7  19
ATOM     19  C   UNL     1       4.060   2.577  20.638  0.00  0.00    +0.000 C 
ATOM     20  N   UNL     1       5.082   1.690  20.436  0.00  0.00    +0.000 N 
ATOM     21  O   UNL     1       3.233   2.416  21.528  0.00  0.00    +0.000 OA
ATOM     22  H   UNL     1       5.751   1.856  19.692  0.00  0.00    +0.000 HD
ATOM     23  H   UNL     1       5.165   0.881  21.034  0.00  0.00    +0.000 HD
ENDBRANCH   7  19
BRANCH   1  24
ATOM     24  C   UNL     1       1.126   9.090  19.115  0.00  0.00    +0.000 C 
BRANCH  24  28
ATOM     25  C   UNL     1      -0.856  10.325  22.949  0.00  0.00    +0.000 C 
ATOM     26  C   UNL     1      -0.362  10.404  21.512  0.00  0.00    +0.000 C 
ATOM     27  C   UNL     1       1.138  10.051  21.417  0.00  0.00    +0.000 C 
ATOM     28  N   UNL     1       1.661  10.117  20.033  0.00  0.00    +0.000 NA
ATOM     29  C   UNL     1       1.350  11.480  19.519  0.00  0.00    +0.000 C 
ATOM     30  C   UNL     1      -0.139  11.882  19.655  0.00  0.00    +0.000 C 
ATOM     31  O   UNL     1      -0.585  11.737  21.027  0.00  0.00    +0.000 OA
BRANCH  30  32
ATOM     32  C   UNL     1      -0.365  13.305  19.118  0.00  0.00    +0.000 C 
ATOM     33  F   UNL     1      -1.313  13.979  19.809  0.00  0.00    +0.000 F 
ATOM     34  F   UNL     1       0.780  14.026  19.216  0.00  0.00    +0.000 F 
ATOM     35  F   UNL     1      -0.730  13.321  17.816  0.00  0.00    +0.000 F 
ENDBRANCH  30  32
ENDBRANCH  24  28
ENDBRANCH   1  24
TORSDOF 6
ENDMDL
MODEL 5
REMARK VINA RESULT:      -9.3      0.973      1.263
REMARK  Name = 
REMARK  7 active torsions:
REMARK  status: ('A' for Active; 'I' for Inactive)
REMARK    1  A    between atoms: C_1  and  C_2
REMARK    2  A    between atoms: N_4  and  C_5
REMARK    3  A    between atoms: C_5  and  C_6
REMARK    4  A    between atoms: C_10  and  C_11
REMARK    5  A    between atoms: N_14  and  C_15
REMARK    6  A    between atoms: C_20  and  C_21
REMARK    7  A    between atoms: C_28  and  C_29
REMARK                            x       y       z     vdW  Elec       q    Type
REMARK                         _______ _______ _______ _____ _____    ______ ____
ROOT
ATOM      1  C   UNL     1       1.802   8.357  19.154  0.00  0.00    +0.000 A 
ATOM      2  C   UNL     1       2.707   8.503  18.107  0.00  0.00    +0.000 A 
ATOM      3  C   UNL     1       3.537   7.452  17.744  0.00  0.00    +0.000 A 
ATOM      4  C   UNL     1       3.575   6.244  18.477  0.00  0.00    +0.000 A 
ATOM      5  C   UNL     1       4.446   5.156  18.192  0.00  0.00    +0.000 A 
ATOM      6  C   UNL     1       4.403   4.028  19.011  0.00  0.00    +0.000 A 
ATOM      7  C   UNL     1       3.498   4.006  20.060  0.00  0.00    +0.000 A 
ATOM      8  N   UNL     1       2.636   5.017  20.343  0.00  0.00    +0.000 NA
ATOM      9  C   UNL     1       2.677   6.108  19.566  0.00  0.00    +0.000 A 
ATOM     10  C   UNL     1       1.796   7.145  19.860  0.00  0.00    +0.000 A 
ENDROOT
BRANCH   5  11
ATOM     11  C   UNL     1       5.384   5.163  17.070  0.00  0.00    +0.000 A 
ATOM     12  C   UNL     1       6.710   5.641  16.937  0.00  0.00    +0.000 A 
ATOM     13  N   UNL     1       7.198   5.507  15.702  0.00  0.00    +0.000 NA
ATOM     14  N   UNL     1       6.202   4.878  15.035  0.00  0.00    +0.000 N 
ATOM     15  C   UNL     1       5.102   4.647  15.820  0.00  0.00    +0.000 A 
BRANCH  14  16
ATOM     16  C   UNL     1       6.356   4.503  13.634  0.00  0.00    +0.000 C 
ATOM     17  F   UNL     1       7.500   5.022  13.114  0.00  0.00    +0.000 F 
ATOM     18  F   UNL     1       6.443   3.151  13.495  0.00  0.00    +0.000 F 
ENDBRANCH  14  16
ENDBRANCH   5  11
BRANCH   7  19
ATOM     19  C   UNL     1       3.448   2.812  20.963  0.00  0.00    +0.000 C 
ATOM     20  N   UNL     1       2.333   2.709  21.750  0.00  0.00    +0.000 N 
ATOM     21  O   UNL     1       4.346   1.980  21.006  0.00  0.00    +0.000 OA
ATOM     22  H   UNL     1       1.607   3.415  21.686  0.00  0.00    +0.000 HD
ATOM     23  H   UNL     1       2.239   1.928  22.382  0.00  0.00    +0.000 HD
ENDBRANCH   7  19
BRANCH   1  24
ATOM     24  C   UNL     1       0.869   9.490  19.513  0.00  0.00    +0.000 C 
BRANCH  24  28
ATOM     25  C   UNL     1      -1.077  13.490  20.113  0.00  0.00    +0.000 C 
ATOM     26  C   UNL     1      -0.904  12.043  19.677  0.00  0.00    +0.000 C 
ATOM     27  C   UNL     1       0.399  11.854  18.872  0.00  0.00    +0.000 C 
ATOM     28  N   UNL     1       0.608  10.457  18.426  0.00  0.00    +0.000 NA
ATOM     29  C   UNL     1      -0.611  10.061  17.665  0.00  0.00    +0.000 C 
ATOM     30  C   UNL     1      -1.936  10.293  18.430  0.00  0.00    +0.000 C 
ATOM     31  O   UNL     1      -2.035  11.669  18.877  0.00  0.00    +0.000 OA
BRANCH  30  32
ATOM     32  C   UNL     1      -3.138   9.874  17.567  0.00  0.00    +0.000 C 
ATOM     33  F   UNL     1      -4.053  10.862  17.433  0.00  0.00    +0.000 F 
ATOM     34  F   UNL     1      -2.721   9.551  16.316  0.00  0.00    +0.000 F 
ATOM     35  F   UNL     1      -3.783   8.792  18.058  0.00  0.00    +0.000 F 
ENDBRANCH  30  32
ENDBRANCH  24  28
ENDBRANCH   1  24
TORSDOF 6
ENDMDL
MODEL 6
REMARK VINA RESULT:      -9.2      0.785      1.120
REMARK  Name = 
REMARK  7 active torsions:
REMARK  status: ('A' for Active; 'I' for Inactive)
REMARK    1  A    between atoms: C_1  and  C_2
REMARK    2  A    between atoms: N_4  and  C_5
REMARK    3  A    between atoms: C_5  and  C_6
REMARK    4  A    between atoms: C_10  and  C_11
REMARK    5  A    between atoms: N_14  and  C_15
REMARK    6  A    between atoms: C_20  and  C_21
REMARK    7  A    between atoms: C_28  and  C_29
REMARK                            x       y       z     vdW  Elec       q    Type
REMARK                         _______ _______ _______ _____ _____    ______ ____
ROOT
ATOM      1  C   UNL     1       2.390   7.797  18.652  0.00  0.00    +0.000 A 
ATOM      2  C   UNL     1       3.263   8.078  17.605  0.00  0.00    +0.000 A 
ATOM      3  C   UNL     1       4.042   7.072  17.050  0.00  0.00    +0.000 A 
ATOM      4  C   UNL     1       4.062   5.765  17.585  0.00  0.00    +0.000 A 
ATOM      5  C   UNL     1       4.882   4.709  17.100  0.00  0.00    +0.000 A 
ATOM      6  C   UNL     1       4.827   3.468  17.736  0.00  0.00    +0.000 A 
ATOM      7  C   UNL     1       3.959   3.309  18.804  0.00  0.00    +0.000 A 
ATOM      8  N   UNL     1       3.145   4.290  19.275  0.00  0.00    +0.000 NA
ATOM      9  C   UNL     1       3.198   5.486  18.675  0.00  0.00    +0.000 A 
ATOM     10  C   UNL     1       2.365   6.491  19.162  0.00  0.00    +0.000 A 
ENDROOT
BRANCH   5  11
ATOM     11  C   UNL     1       5.781   4.862  15.955  0.00  0.00    +0.000 A 
ATOM     12  C   UNL     1       7.024   5.521  15.801  0.00  0.00    +0.000 A 
ATOM     13  N   UNL     1       7.493   5.476  14.551  0.00  0.00    +0.000 NA
ATOM     14  N   UNL     1       6.574   4.726  13.896  0.00  0.00    +0.000 N 
ATOM     15  C   UNL     1       5.538   4.333  14.703  0.00  0.00    +0.000 A 
BRANCH  14  16
ATOM     16  C   UNL     1       6.740   4.398  12.485  0.00  0.00    +0.000 C 
ATOM     17  F   UNL     1       7.853   4.991  11.975  0.00  0.00    +0.000 F 
ATOM     18  F   UNL     1       6.899   3.058  12.308  0.00  0.00    +0.000 F 
ENDBRANCH  14  16
ENDBRANCH   5  11
BRANCH   7  19
ATOM     19  C   UNL     1       3.898   1.991  19.512  0.00  0.00    +0.000 C 
ATOM     20  N   UNL     1       4.950   1.715  20.343  0.00  0.00    +0.000 N 
ATOM     21  O   UNL     1       2.973   1.203  19.359  0.00  0.00    +0.000 OA
ATOM     22  H   UNL     1       5.697   2.392  20.450  0.00  0.00    +0.000 HD
ATOM     23  H   UNL     1       4.969   0.842  20.849  0.00  0.00    +0.000 HD
ENDBRANCH   7  19
BRANCH   1  24
ATOM     24  C   UNL     1       1.512   8.888  19.219  0.00  0.00    +0.000 C 
BRANCH  24  28
ATOM     25  C   UNL     1       0.211  12.936  20.660  0.00  0.00    +0.000 C 
ATOM     26  C   UNL     1       0.142  11.579  19.975  0.00  0.00    +0.000 C 
ATOM     27  C   UNL     1       1.343  11.370  19.029  0.00  0.00    +0.000 C 
ATOM     28  N   UNL     1       1.315  10.058  18.339  0.00  0.00    +0.000 NA
ATOM     29  C   UNL     1       0.001   9.966  17.643  0.00  0.00    +0.000 C 
ATOM     30  C   UNL     1      -1.219  10.227  18.559  0.00  0.00    +0.000 C 
ATOM     31  O   UNL     1      -1.086  11.503  19.236  0.00  0.00    +0.000 OA
BRANCH  30  32
ATOM     32  C   UNL     1      -2.527  10.128  17.757  0.00  0.00    +0.000 C 
ATOM     33  F   UNL     1      -3.269  11.258  17.828  0.00  0.00    +0.000 F 
ATOM     34  F   UNL     1      -2.253   9.920  16.445  0.00  0.00    +0.000 F 
ATOM     35  F   UNL     1      -3.313   9.105  18.163  0.00  0.00    +0.000 F 
ENDBRANCH  30  32
ENDBRANCH  24  28
ENDBRANCH   1  24
TORSDOF 6
ENDMDL
MODEL 7
REMARK VINA RESULT:      -9.2      2.314      2.661
REMARK  Name = 
REMARK  7 active torsions:
REMARK  status: ('A' for Active; 'I' for Inactive)
REMARK    1  A    between atoms: C_1  and  C_2
REMARK    2  A    between atoms: N_4  and  C_5
REMARK    3  A    between atoms: C_5  and  C_6
REMARK    4  A    between atoms: C_10  and  C_11
REMARK    5  A    between atoms: N_14  and  C_15
REMARK    6  A    between atoms: C_20  and  C_21
REMARK    7  A    between atoms: C_28  and  C_29
REMARK                            x       y       z     vdW  Elec       q    Type
REMARK                         _______ _______ _______ _____ _____    ______ ____
ROOT
ATOM      1  C   UNL     1       2.489   8.262  18.349  0.00  0.00    +0.000 A 
ATOM      2  C   UNL     1       3.530   8.372  17.433  0.00  0.00    +0.000 A 
ATOM      3  C   UNL     1       4.142   7.236  16.924  0.00  0.00    +0.000 A 
ATOM      4  C   UNL     1       3.814   5.942  17.387  0.00  0.00    +0.000 A 
ATOM      5  C   UNL     1       4.447   4.745  16.951  0.00  0.00    +0.000 A 
ATOM      6  C   UNL     1       4.047   3.531  17.508  0.00  0.00    +0.000 A 
ATOM      7  C   UNL     1       3.033   3.538  18.452  0.00  0.00    +0.000 A 
ATOM      8  N   UNL     1       2.391   4.659  18.872  0.00  0.00    +0.000 NA
ATOM      9  C   UNL     1       2.776   5.831  18.347  0.00  0.00    +0.000 A 
ATOM     10  C   UNL     1       2.120   6.980  18.781  0.00  0.00    +0.000 A 
ENDROOT
BRANCH   5  11
ATOM     11  C   UNL     1       5.499   4.729  15.934  0.00  0.00    +0.000 A 
ATOM     12  C   UNL     1       6.810   5.262  15.909  0.00  0.00    +0.000 A 
ATOM     13  N   UNL     1       7.433   5.077  14.742  0.00  0.00    +0.000 NA
ATOM     14  N   UNL     1       6.540   4.361  14.018  0.00  0.00    +0.000 N 
ATOM     15  C   UNL     1       5.373   4.125  14.698  0.00  0.00    +0.000 A 
BRANCH  14  16
ATOM     16  C   UNL     1       6.858   3.909  12.669  0.00  0.00    +0.000 C 
ATOM     17  F   UNL     1       5.725   3.643  11.964  0.00  0.00    +0.000 F 
ATOM     18  F   UNL     1       7.530   4.869  11.975  0.00  0.00    +0.000 F 
ENDBRANCH  14  16
ENDBRANCH   5  11
BRANCH   7  19
ATOM     19  C   UNL     1       2.601   2.247  19.077  0.00  0.00    +0.000 C 
ATOM     20  N   UNL     1       3.225   1.123  18.609  0.00  0.00    +0.000 N 
ATOM     21  O   UNL     1       1.740   2.192  19.946  0.00  0.00    +0.000 OA
ATOM     22  H   UNL     1       3.937   1.206  17.890  0.00  0.00    +0.000 HD
ATOM     23  H   UNL     1       2.978   0.221  18.989  0.00  0.00    +0.000 HD
ENDBRANCH   7  19
BRANCH   1  24
ATOM     24  C   UNL     1       1.796   9.504  18.862  0.00  0.00    +0.000 C 
BRANCH  24  28
ATOM     25  C   UNL     1      -0.960  13.029  19.216  0.00  0.00    +0.000 C 
ATOM     26  C   UNL     1      -0.177  11.788  19.619  0.00  0.00    +0.000 C 
ATOM     27  C   UNL     1      -0.417  10.630  18.628  0.00  0.00    +0.000 C 
ATOM     28  N   UNL     1       0.328   9.399  18.984  0.00  0.00    +0.000 NA
ATOM     29  C   UNL     1      -0.051   9.057  20.383  0.00  0.00    +0.000 C 
ATOM     30  C   UNL     1       0.127  10.220  21.389  0.00  0.00    +0.000 C 
ATOM     31  O   UNL     1      -0.587  11.400  20.939  0.00  0.00    +0.000 OA
BRANCH  30  32
ATOM     32  C   UNL     1      -0.302   9.784  22.800  0.00  0.00    +0.000 C 
ATOM     33  F   UNL     1      -1.039   8.650  22.793  0.00  0.00    +0.000 F 
ATOM     34  F   UNL     1       0.793   9.537  23.563  0.00  0.00    +0.000 F 
ATOM     35  F   UNL     1      -1.024  10.730  23.442  0.00  0.00    +0.000 F 
ENDBRANCH  30  32
ENDBRANCH  24  28
ENDBRANCH   1  24
TORSDOF 6
ENDMDL
MODEL 8
REMARK VINA RESULT:      -9.1      1.327      1.731
REMARK  Name = 
REMARK  7 active torsions:
REMARK  status: ('A' for Active; 'I' for Inactive)
REMARK    1  A    between atoms: C_1  and  C_2
REMARK    2  A    between atoms: N_4  and  C_5
REMARK    3  A    between atoms: C_5  and  C_6
REMARK    4  A    between atoms: C_10  and  C_11
REMARK    5  A    between atoms: N_14  and  C_15
REMARK    6  A    between atoms: C_20  and  C_21
REMARK    7  A    between atoms: C_28  and  C_29
REMARK                            x       y       z     vdW  Elec       q    Type
REMARK                         _______ _______ _______ _____ _____    ______ ____
ROOT
ATOM      1  C   UNL     1       2.226   8.050  18.889  0.00  0.00    +0.000 A 
ATOM      2  C   UNL     1       3.031   8.186  17.762  0.00  0.00    +0.000 A 
ATOM      3  C   UNL     1       3.824   7.130  17.333  0.00  0.00    +0.000 A 
ATOM      4  C   UNL     1       3.928   5.929  18.070  0.00  0.00    +0.000 A 
ATOM      5  C   UNL     1       4.768   4.838  17.717  0.00  0.00    +0.000 A 
ATOM      6  C   UNL     1       4.799   3.717  18.547  0.00  0.00    +0.000 A 
ATOM      7  C   UNL     1       3.994   3.705  19.674  0.00  0.00    +0.000 A 
ATOM      8  N   UNL     1       3.163   4.720  20.026  0.00  0.00    +0.000 NA
ATOM      9  C   UNL     1       3.133   5.804  19.238  0.00  0.00    +0.000 A 
ATOM     10  C   UNL     1       2.284   6.845  19.603  0.00  0.00    +0.000 A 
ENDROOT
BRANCH   5  11
ATOM     11  C   UNL     1       5.599   4.832  16.513  0.00  0.00    +0.000 A 
ATOM     12  C   UNL     1       6.794   5.514  16.176  0.00  0.00    +0.000 A 
ATOM     13  N   UNL     1       7.203   5.274  14.927  0.00  0.00    +0.000 NA
ATOM     14  N   UNL     1       6.299   4.377  14.466  0.00  0.00    +0.000 N 
ATOM     15  C   UNL     1       5.328   4.081  15.387  0.00  0.00    +0.000 A 
BRANCH  14  16
ATOM     16  C   UNL     1       6.416   3.816  13.125  0.00  0.00    +0.000 C 
ATOM     17  F   UNL     1       5.201   3.749  12.517  0.00  0.00    +0.000 F 
ATOM     18  F   UNL     1       7.204   4.595  12.334  0.00  0.00    +0.000 F 
ENDBRANCH  14  16
ENDBRANCH   5  11
BRANCH   7  19
ATOM     19  C   UNL     1       4.027   2.519  20.589  0.00  0.00    +0.000 C 
ATOM     20  N   UNL     1       2.949   2.382  21.420  0.00  0.00    +0.000 N 
ATOM     21  O   UNL     1       4.957   1.723  20.602  0.00  0.00    +0.000 OA
ATOM     22  H   UNL     1       2.193   3.058  21.379  0.00  0.00    +0.000 HD
ATOM     23  H   UNL     1       2.911   1.604  22.062  0.00  0.00    +0.000 HD
ENDBRANCH   7  19
BRANCH   1  24
ATOM     24  C   UNL     1       1.331   9.189  19.321  0.00  0.00    +0.000 C 
BRANCH  24  28
ATOM     25  C   UNL     1       2.750  13.442  19.101  0.00  0.00    +0.000 C 
ATOM     26  C   UNL     1       1.807  12.264  19.300  0.00  0.00    +0.000 C 
ATOM     27  C   UNL     1       1.860  11.297  18.098  0.00  0.00    +0.000 C 
ATOM     28  N   UNL     1       0.954  10.134  18.250  0.00  0.00    +0.000 NA
ATOM     29  C   UNL     1      -0.409  10.680  18.499  0.00  0.00    +0.000 C 
ATOM     30  C   UNL     1      -0.480  11.697  19.665  0.00  0.00    +0.000 C 
ATOM     31  O   UNL     1       0.474  12.771  19.465  0.00  0.00    +0.000 OA
BRANCH  30  32
ATOM     32  C   UNL     1      -1.916  12.219  19.839  0.00  0.00    +0.000 C 
ATOM     33  F   UNL     1      -2.759  11.751  18.890  0.00  0.00    +0.000 F 
ATOM     34  F   UNL     1      -2.412  11.820  21.037  0.00  0.00    +0.000 F 
ATOM     35  F   UNL     1      -1.988  13.569  19.812  0.00  0.00    +0.000 F 
ENDBRANCH  30  32
ENDBRANCH  24  28
ENDBRANCH   1  24
TORSDOF 6
ENDMDL
MODEL 9
REMARK VINA RESULT:      -9.1      1.627      2.028
REMARK  Name = 
REMARK  7 active torsions:
REMARK  status: ('A' for Active; 'I' for Inactive)
REMARK    1  A    between atoms: C_1  and  C_2
REMARK    2  A    between atoms: N_4  and  C_5
REMARK    3  A    between atoms: C_5  and  C_6
REMARK    4  A    between atoms: C_10  and  C_11
REMARK    5  A    between atoms: N_14  and  C_15
REMARK    6  A    between atoms: C_20  and  C_21
REMARK    7  A    between atoms: C_28  and  C_29
REMARK                            x       y       z     vdW  Elec       q    Type
REMARK                         _______ _______ _______ _____ _____    ______ ____
ROOT
ATOM      1  C   UNL     1       2.440   7.869  18.431  0.00  0.00    +0.000 A 
ATOM      2  C   UNL     1       3.482   8.104  17.540  0.00  0.00    +0.000 A 
ATOM      3  C   UNL     1       4.169   7.043  16.967  0.00  0.00    +0.000 A 
ATOM      4  C   UNL     1       3.916   5.703  17.338  0.00  0.00    +0.000 A 
ATOM      5  C   UNL     1       4.626   4.579  16.833  0.00  0.00    +0.000 A 
ATOM      6  C   UNL     1       4.295   3.308  17.303  0.00  0.00    +0.000 A 
ATOM      7  C   UNL     1       3.273   3.190  18.230  0.00  0.00    +0.000 A 
ATOM      8  N   UNL     1       2.559   4.241  18.713  0.00  0.00    +0.000 NA
ATOM      9  C   UNL     1       2.876   5.466  18.273  0.00  0.00    +0.000 A 
ATOM     10  C   UNL     1       2.146   6.541  18.772  0.00  0.00    +0.000 A 
ENDROOT
BRANCH   5  11
ATOM     11  C   UNL     1       5.688   4.695  15.833  0.00  0.00    +0.000 A 
ATOM     12  C   UNL     1       6.956   5.324  15.857  0.00  0.00    +0.000 A 
ATOM     13  N   UNL     1       7.605   5.247  14.692  0.00  0.00    +0.000 NA
ATOM     14  N   UNL     1       6.776   4.507  13.918  0.00  0.00    +0.000 N 
ATOM     15  C   UNL     1       5.622   4.150  14.566  0.00  0.00    +0.000 A 
BRANCH  14  16
ATOM     16  C   UNL     1       7.143   4.152  12.552  0.00  0.00    +0.000 C 
ATOM     17  F   UNL     1       6.047   3.793  11.831  0.00  0.00    +0.000 F 
ATOM     18  F   UNL     1       7.704   5.209  11.904  0.00  0.00    +0.000 F 
ENDBRANCH  14  16
ENDBRANCH   5  11
BRANCH   7  19
ATOM     19  C   UNL     1       2.914   1.837  18.762  0.00  0.00    +0.000 C 
ATOM     20  N   UNL     1       3.818   0.842  18.509  0.00  0.00    +0.000 N 
ATOM     21  O   UNL     1       1.878   1.625  19.379  0.00  0.00    +0.000 OA
ATOM     22  H   UNL     1       4.669   1.053  17.998  0.00  0.00    +0.000 HD
ATOM     23  H   UNL     1       3.634  -0.094  18.840  0.00  0.00    +0.000 HD
ENDBRANCH   7  19
BRANCH   1  24
ATOM     24  C   UNL     1       1.666   9.029  19.014  0.00  0.00    +0.000 C 
BRANCH  24  28
ATOM     25  C   UNL     1       2.845  13.351  18.721  0.00  0.00    +0.000 C 
ATOM     26  C   UNL     1       1.992  12.125  19.010  0.00  0.00    +0.000 C 
ATOM     27  C   UNL     1       1.934  11.184  17.787  0.00  0.00    +0.000 C 
ATOM     28  N   UNL     1       1.111   9.975  18.025  0.00  0.00    +0.000 NA
ATOM     29  C   UNL     1      -0.233  10.449  18.461  0.00  0.00    +0.000 C 
ATOM     30  C   UNL     1      -0.199  11.438  19.651  0.00  0.00    +0.000 C 
ATOM     31  O   UNL     1       0.670  12.561  19.358  0.00  0.00    +0.000 OA
BRANCH  30  32
ATOM     32  C   UNL     1      -1.623  11.885  20.022  0.00  0.00    +0.000 C 
ATOM     33  F   UNL     1      -1.814  13.213  19.847  0.00  0.00    +0.000 F 
ATOM     34  F   UNL     1      -2.528  11.250  19.235  0.00  0.00    +0.000 F 
ATOM     35  F   UNL     1      -1.944  11.598  21.303  0.00  0.00    +0.000 F 
ENDBRANCH  30  32
ENDBRANCH  24  28
ENDBRANCH   1  24
TORSDOF 6
ENDMDL
