MODEL 1
REMARK VINA RESULT:      -8.7      0.000      0.000
REMARK  Name = 
REMARK  7 active torsions:
REMARK  status: ('A' for Active; 'I' for Inactive)
REMARK    1  A    between atoms: C_1  and  O_2
REMARK    2  A    between atoms: O_2  and  C_3
REMARK    3  A    between atoms: C_6  and  C_7
REMARK    4  A    between atoms: C_15  and  S_16
REMARK    5  A    between atoms: S_16  and  N_17
REMARK    6  A    between atoms: C_24  and  C_25
REMARK    7  A    between atoms: C_25  and  O_27
REMARK                            x       y       z     vdW  Elec       q    Type
REMARK                         _______ _______ _______ _____ _____    ______ ____
ROOT
ATOM      1  C   UNL     1       3.749   5.623  18.074  0.00  0.00    +0.000 A 
ATOM      2  N   UNL     1       3.173   6.845  18.214  0.00  0.00    +0.000 NA
ATOM      3  N   UNL     1       2.555   6.808  19.420  0.00  0.00    +0.000 N 
ATOM      4  C   UNL     1       1.828   7.863  19.991  0.00  0.00    +0.000 A 
ATOM      5  N   UNL     1       1.350   7.718  21.206  0.00  0.00    +0.000 NA
ATOM      6  C   UNL     1       0.626   8.828  21.560  0.00  0.00    +0.000 A 
ATOM      7  C   UNL     1      -0.020   8.987  22.800  0.00  0.00    +0.000 A 
ATOM      8  C   UNL     1      -0.763  10.134  23.052  0.00  0.00    +0.000 A 
ATOM      9  C   UNL     1      -0.858  11.124  22.076  0.00  0.00    +0.000 A 
ATOM     10  C   UNL     1      -0.218  11.001  20.824  0.00  0.00    +0.000 A 
ATOM     11  C   UNL     1       0.538   9.831  20.589  0.00  0.00    +0.000 A 
ATOM     12  S   UNL     1       1.472   9.322  19.200  0.00  0.00    +0.000 S 
ATOM     13  C   UNL     1       2.712   5.589  20.031  0.00  0.00    +0.000 A 
ATOM     14  C   UNL     1       3.467   4.793  19.207  0.00  0.00    +0.000 A 
ENDROOT
BRANCH   1  18
ATOM     15  C   UNL     1       6.043   4.583  14.573  0.00  0.00    +0.000 A 
ATOM     16  C   UNL     1       5.843   5.919  14.925  0.00  0.00    +0.000 A 
ATOM     17  C   UNL     1       5.099   6.261  16.066  0.00  0.00    +0.000 A 
ATOM     18  C   UNL     1       4.521   5.269  16.866  0.00  0.00    +0.000 A 
ATOM     19  C   UNL     1       4.703   3.929  16.479  0.00  0.00    +0.000 A 
ATOM     20  C   UNL     1       5.465   3.586  15.352  0.00  0.00    +0.000 A 
BRANCH  15  22
ATOM     21  C   UNL     1       6.226   3.468  12.488  0.00  0.00    +0.000 C 
ATOM     22  O   UNL     1       6.775   4.378  13.436  0.00  0.00    +0.000 OA
ENDBRANCH  15  22
ENDBRANCH   1  18
BRANCH   9  23
ATOM     23  S   UNL     1      -1.883  12.529  22.426  0.00  0.00    +0.000 S 
ATOM     24  O   UNL     1      -1.135  13.478  23.211  0.00  0.00    +0.000 OA
ATOM     25  O   UNL     1      -2.593  12.905  21.222  0.00  0.00    +0.000 OA
BRANCH  23  26
ATOM     26  N   UNL     1      -3.037  11.872  23.451  0.00  0.00    +0.000 NA
ATOM     27  H   UNL     1      -2.710  11.926  24.415  0.00  0.00    +0.000 HD
ATOM     28  H   UNL     1      -3.938  12.330  23.303  0.00  0.00    +0.000 HD
ENDBRANCH  23  26
ENDBRANCH   9  23
BRANCH  14  29
ATOM     29  C   UNL     1       3.878   3.440  19.526  0.00  0.00    +0.000 C 
ATOM     30  O   UNL     1       3.109   2.500  19.673  0.00  0.00    +0.000 OA
BRANCH  29  31
ATOM     31  O   UNL     1       5.222   3.281  19.667  0.00  0.00    +0.000 OA
ATOM     32  H   UNL     1       5.664   3.003  18.846  0.00  0.00    +0.000 HD
ENDBRANCH  29  31
ENDBRANCH  14  29
TORSDOF 6
ENDMDL
MODEL 2
REMARK VINA RESULT:      -8.6      0.171      1.082
REMARK  Name = 
REMARK  7 active torsions:
REMARK  status: ('A' for Active; 'I' for Inactive)
REMARK    1  A    between atoms: C_1  and  O_2
REMARK    2  A    between atoms: O_2  and  C_3
REMARK    3  A    between atoms: C_6  and  C_7
REMARK    4  A    between atoms: C_15  and  S_16
REMARK    5  A    between atoms: S_16  and  N_17
REMARK    6  A    between atoms: C_24  and  C_25
REMARK    7  A    between atoms: C_25  and  O_27
REMARK                            x       y       z     vdW  Elec       q    Type
REMARK                         _______ _______ _______ _____ _____    ______ ____
ROOT
ATOM      1  C   UNL     1       3.683   5.653  18.168  0.00  0.00    +0.000 A 
ATOM      2  N   UNL     1       3.118   6.881  18.300  0.00  0.00    +0.000 NA
ATOM      3  N   UNL     1       2.480   6.849  19.496  0.00  0.00    +0.000 N 
ATOM      4  C   UNL     1       1.756   7.912  20.057  0.00  0.00    +0.000 A 
ATOM      5  N   UNL     1       1.256   7.770  21.264  0.00  0.00    +0.000 NA
ATOM      6  C   UNL     1       0.538   8.887  21.607  0.00  0.00    +0.000 A 
ATOM      7  C   UNL     1      -0.127   9.051  22.837  0.00  0.00    +0.000 A 
ATOM      8  C   UNL     1      -0.861  10.206  23.078  0.00  0.00    +0.000 A 
ATOM      9  C   UNL     1      -0.929  11.198  22.101  0.00  0.00    +0.000 A 
ATOM     10  C   UNL     1      -0.271  11.070  20.860  0.00  0.00    +0.000 A 
ATOM     11  C   UNL     1       0.476   9.892  20.636  0.00  0.00    +0.000 A 
ATOM     12  S   UNL     1       1.427   9.374  19.262  0.00  0.00    +0.000 S 
ATOM     13  C   UNL     1       2.614   5.628  20.108  0.00  0.00    +0.000 A 
ATOM     14  C   UNL     1       3.375   4.825  19.296  0.00  0.00    +0.000 A 
ENDROOT
BRANCH   1  18
ATOM     15  C   UNL     1       5.945   4.604  14.649  0.00  0.00    +0.000 A 
ATOM     16  C   UNL     1       5.406   3.615  15.473  0.00  0.00    +0.000 A 
ATOM     17  C   UNL     1       4.667   3.953  16.618  0.00  0.00    +0.000 A 
ATOM     18  C   UNL     1       4.471   5.292  16.972  0.00  0.00    +0.000 A 
ATOM     19  C   UNL     1       5.048   6.277  16.150  0.00  0.00    +0.000 A 
ATOM     20  C   UNL     1       5.768   5.940  14.993  0.00  0.00    +0.000 A 
BRANCH  15  22
ATOM     21  C   UNL     1       5.912   3.439  12.584  0.00  0.00    +0.000 C 
ATOM     22  O   UNL     1       6.653   4.149  13.571  0.00  0.00    +0.000 OA
ENDBRANCH  15  22
ENDBRANCH   1  18
BRANCH   9  23
ATOM     23  S   UNL     1      -1.946  12.613  22.437  0.00  0.00    +0.000 S 
ATOM     24  O   UNL     1      -1.203  13.551  23.240  0.00  0.00    +0.000 OA
ATOM     25  O   UNL     1      -2.628  13.001  21.220  0.00  0.00    +0.000 OA
BRANCH  23  26
ATOM     26  N   UNL     1      -3.127  11.966  23.436  0.00  0.00    +0.000 NA
ATOM     27  H   UNL     1      -3.936  12.587  23.458  0.00  0.00    +0.000 HD
ATOM     28  H   UNL     1      -3.354  11.015  23.140  0.00  0.00    +0.000 HD
ENDBRANCH  23  26
ENDBRANCH   9  23
BRANCH  14  29
ATOM     29  C   UNL     1       3.766   3.468  19.620  0.00  0.00    +0.000 C 
ATOM     30  O   UNL     1       4.914   3.116  19.856  0.00  0.00    +0.000 OA
BRANCH  29  31
ATOM     31  O   UNL     1       2.738   2.577  19.637  0.00  0.00    +0.000 OA
ATOM     32  H   UNL     1       2.715   2.031  20.442  0.00  0.00    +0.000 HD
ENDBRANCH  29  31
ENDBRANCH  14  29
TORSDOF 6
ENDMDL
MODEL 3
REMARK VINA RESULT:      -8.5      0.677      1.213
REMARK  Name = 
REMARK  7 active torsions:
REMARK  status: ('A' for Active; 'I' for Inactive)
REMARK    1  A    between atoms: C_1  and  O_2
REMARK    2  A    between atoms: O_2  and  C_3
REMARK    3  A    between atoms: C_6  and  C_7
REMARK    4  A    between atoms: C_15  and  S_16
REMARK    5  A    between atoms: S_16  and  N_17
REMARK    6  A    between atoms: C_24  and  C_25
REMARK    7  A    between atoms: C_25  and  O_27
REMARK                            x       y       z     vdW  Elec       q    Type
REMARK                         _______ _______ _______ _____ _____    ______ ____
ROOT
ATOM      1  C   UNL     1       3.782   5.589  18.095  0.00  0.00    +0.000 A 
ATOM      2  N   UNL     1       3.189   6.806  18.203  0.00  0.00    +0.000 NA
ATOM      3  N   UNL     1       2.575   6.794  19.412  0.00  0.00    +0.000 N 
ATOM      4  C   UNL     1       1.835   7.854  19.956  0.00  0.00    +0.000 A 
ATOM      5  N   UNL     1       1.361   7.736  21.175  0.00  0.00    +0.000 NA
ATOM      6  C   UNL     1       0.623   8.844  21.501  0.00  0.00    +0.000 A 
ATOM      7  C   UNL     1      -0.023   9.029  22.738  0.00  0.00    +0.000 A 
ATOM      8  C   UNL     1      -0.781  10.171  22.960  0.00  0.00    +0.000 A 
ATOM      9  C   UNL     1      -0.892  11.133  21.957  0.00  0.00    +0.000 A 
ATOM     10  C   UNL     1      -0.254  10.985  20.707  0.00  0.00    +0.000 A 
ATOM     11  C   UNL     1       0.518   9.819  20.503  0.00  0.00    +0.000 A 
ATOM     12  S   UNL     1       1.456   9.285  19.126  0.00  0.00    +0.000 S 
ATOM     13  C   UNL     1       2.751   5.594  20.056  0.00  0.00    +0.000 A 
ATOM     14  C   UNL     1       3.515   4.786  19.252  0.00  0.00    +0.000 A 
ENDROOT
BRANCH   1  18
ATOM     15  C   UNL     1       6.003   4.494  14.564  0.00  0.00    +0.000 A 
ATOM     16  C   UNL     1       5.474   3.516  15.408  0.00  0.00    +0.000 A 
ATOM     17  C   UNL     1       4.747   3.868  16.556  0.00  0.00    +0.000 A 
ATOM     18  C   UNL     1       4.556   5.213  16.895  0.00  0.00    +0.000 A 
ATOM     19  C   UNL     1       5.124   6.186  16.054  0.00  0.00    +0.000 A 
ATOM     20  C   UNL     1       5.830   5.834  14.894  0.00  0.00    +0.000 A 
BRANCH  15  22
ATOM     21  C   UNL     1       5.926   3.430  12.447  0.00  0.00    +0.000 C 
ATOM     22  O   UNL     1       6.699   4.026  13.484  0.00  0.00    +0.000 OA
ENDBRANCH  15  22
ENDBRANCH   1  18
BRANCH   9  23
ATOM     23  S   UNL     1      -1.937  12.532  22.271  0.00  0.00    +0.000 S 
ATOM     24  O   UNL     1      -2.327  13.124  21.016  0.00  0.00    +0.000 OA
ATOM     25  O   UNL     1      -2.897  12.181  23.296  0.00  0.00    +0.000 OA
BRANCH  23  26
ATOM     26  N   UNL     1      -0.872  13.609  22.992  0.00  0.00    +0.000 NA
ATOM     27  H   UNL     1       0.049  13.518  22.563  0.00  0.00    +0.000 HD
ATOM     28  H   UNL     1      -1.248  14.557  22.946  0.00  0.00    +0.000 HD
ENDBRANCH  23  26
ENDBRANCH   9  23
BRANCH  14  29
ATOM     29  C   UNL     1       3.946   3.449  19.608  0.00  0.00    +0.000 C 
ATOM     30  O   UNL     1       3.188   2.518  19.843  0.00  0.00    +0.000 OA
BRANCH  29  31
ATOM     31  O   UNL     1       5.296   3.294  19.674  0.00  0.00    +0.000 OA
ATOM     32  H   UNL     1       5.788   4.023  19.258  0.00  0.00    +0.000 HD
ENDBRANCH  29  31
ENDBRANCH  14  29
TORSDOF 6
ENDMDL
MODEL 4
REMARK VINA RESULT:      -8.1      1.548      1.996
REMARK  Name = 
REMARK  7 active torsions:
REMARK  status: ('A' for Active; 'I' for Inactive)
REMARK    1  A    between atoms: C_1  and  O_2
REMARK    2  A    between atoms: O_2  and  C_3
REMARK    3  A    between atoms: C_6  and  C_7
REMARK    4  A    between atoms: C_15  and  S_16
REMARK    5  A    between atoms: S_16  and  N_17
REMARK    6  A    between atoms: C_24  and  C_25
REMARK    7  A    between atoms: C_25  and  O_27
REMARK                            x       y       z     vdW  Elec       q    Type
REMARK                         _______ _______ _______ _____ _____    ______ ____
ROOT
ATOM      1  C   UNL     1       2.694   5.913  19.241  0.00  0.00    +0.000 A 
ATOM      2  N   UNL     1       2.461   7.250  19.285  0.00  0.00    +0.000 NA
ATOM      3  N   UNL     1       1.609   7.427  20.325  0.00  0.00    +0.000 N 
ATOM      4  C   UNL     1       1.095   8.661  20.751  0.00  0.00    +0.000 A 
ATOM      5  N   UNL     1       0.342   8.695  21.827  0.00  0.00    +0.000 NA
ATOM      6  C   UNL     1      -0.106   9.973  22.043  0.00  0.00    +0.000 A 
ATOM      7  C   UNL     1      -0.938  10.347  23.115  0.00  0.00    +0.000 A 
ATOM      8  C   UNL     1      -1.372  11.662  23.229  0.00  0.00    +0.000 A 
ATOM      9  C   UNL     1      -0.975  12.605  22.283  0.00  0.00    +0.000 A 
ATOM     10  C   UNL     1      -0.137  12.267  21.198  0.00  0.00    +0.000 A 
ATOM     11  C   UNL     1       0.299  10.927  21.104  0.00  0.00    +0.000 A 
ATOM     12  S   UNL     1       1.336  10.132  19.940  0.00  0.00    +0.000 S 
ATOM     13  C   UNL     1       1.287   6.234  20.922  0.00  0.00    +0.000 A 
ATOM     14  C   UNL     1       1.954   5.232  20.263  0.00  0.00    +0.000 A 
ENDROOT
BRANCH   1  18
ATOM     15  C   UNL     1       5.309   4.148  16.301  0.00  0.00    +0.000 A 
ATOM     16  C   UNL     1       5.630   5.366  16.904  0.00  0.00    +0.000 A 
ATOM     17  C   UNL     1       4.783   5.942  17.863  0.00  0.00    +0.000 A 
ATOM     18  C   UNL     1       3.582   5.318  18.223  0.00  0.00    +0.000 A 
ATOM     19  C   UNL     1       3.258   4.108  17.583  0.00  0.00    +0.000 A 
ATOM     20  C   UNL     1       4.115   3.521  16.641  0.00  0.00    +0.000 A 
BRANCH  15  22
ATOM     21  C   UNL     1       5.989   4.107  14.030  0.00  0.00    +0.000 C 
ATOM     22  O   UNL     1       6.209   3.696  15.375  0.00  0.00    +0.000 OA
ENDBRANCH  15  22
ENDBRANCH   1  18
BRANCH   9  23
ATOM     23  S   UNL     1      -1.625  14.249  22.437  0.00  0.00    +0.000 S 
ATOM     24  O   UNL     1      -1.098  15.068  21.375  0.00  0.00    +0.000 OA
ATOM     25  O   UNL     1      -3.040  14.170  22.729  0.00  0.00    +0.000 OA
BRANCH  23  26
ATOM     26  N   UNL     1      -0.895  14.781  23.851  0.00  0.00    +0.000 NA
ATOM     27  H   UNL     1      -0.345  15.618  23.658  0.00  0.00    +0.000 HD
ATOM     28  H   UNL     1      -1.600  14.918  24.578  0.00  0.00    +0.000 HD
ENDBRANCH  23  26
ENDBRANCH   9  23
BRANCH  14  29
ATOM     29  C   UNL     1       1.897   3.831  20.628  0.00  0.00    +0.000 C 
ATOM     30  O   UNL     1       2.868   3.157  20.941  0.00  0.00    +0.000 OA
BRANCH  29  31
ATOM     31  O   UNL     1       0.648   3.293  20.589  0.00  0.00    +0.000 OA
ATOM     32  H   UNL     1       0.540   2.528  21.181  0.00  0.00    +0.000 HD
ENDBRANCH  29  31
ENDBRANCH  14  29
TORSDOF 6
ENDMDL
MODEL 5
REMARK VINA RESULT:      -8.1      1.816      2.400
REMARK  Name = 
REMARK  7 active torsions:
REMARK  status: ('A' for Active; 'I' for Inactive)
REMARK    1  A    between atoms: C_1  and  O_2
REMARK    2  A    between atoms: O_2  and  C_3
REMARK    3  A    between atoms: C_6  and  C_7
REMARK    4  A    between atoms: C_15  and  S_16
REMARK    5  A    between atoms: S_16  and  N_17
REMARK    6  A    between atoms: C_24  and  C_25
REMARK    7  A    between atoms: C_25  and  O_27
REMARK                            x       y       z     vdW  Elec       q    Type
REMARK                         _______ _______ _______ _____ _____    ______ ____
ROOT
ATOM      1  C   UNL     1       2.492   6.220  19.359  0.00  0.00    +0.000 A 
ATOM      2  N   UNL     1       2.247   7.555  19.300  0.00  0.00    +0.000 NA
ATOM      3  N   UNL     1       1.425   7.810  20.348  0.00  0.00    +0.000 N 
ATOM      4  C   UNL     1       0.912   9.071  20.687  0.00  0.00    +0.000 A 
ATOM      5  N   UNL     1       0.191   9.189  21.779  0.00  0.00    +0.000 NA
ATOM      6  C   UNL     1      -0.263  10.476  21.903  0.00  0.00    +0.000 A 
ATOM      7  C   UNL     1      -1.066  10.931  22.966  0.00  0.00    +0.000 A 
ATOM      8  C   UNL     1      -1.510  12.247  22.984  0.00  0.00    +0.000 A 
ATOM      9  C   UNL     1      -1.150  13.113  21.952  0.00  0.00    +0.000 A 
ATOM     10  C   UNL     1      -0.342  12.693  20.874  0.00  0.00    +0.000 A 
ATOM     11  C   UNL     1       0.104  11.352  20.877  0.00  0.00    +0.000 A 
ATOM     12  S   UNL     1       1.114  10.472  19.751  0.00  0.00    +0.000 S 
ATOM     13  C   UNL     1       1.133   6.668  21.051  0.00  0.00    +0.000 A 
ATOM     14  C   UNL     1       1.790   5.620  20.456  0.00  0.00    +0.000 A 
ENDROOT
BRANCH   1  18
ATOM     15  C   UNL     1       5.034   4.238  16.495  0.00  0.00    +0.000 A 
ATOM     16  C   UNL     1       5.382   5.484  17.017  0.00  0.00    +0.000 A 
ATOM     17  C   UNL     1       4.559   6.131  17.952  0.00  0.00    +0.000 A 
ATOM     18  C   UNL     1       3.355   5.550  18.366  0.00  0.00    +0.000 A 
ATOM     19  C   UNL     1       3.002   4.309  17.806  0.00  0.00    +0.000 A 
ATOM     20  C   UNL     1       3.836   3.652  16.889  0.00  0.00    +0.000 A 
BRANCH  15  22
ATOM     21  C   UNL     1       6.780   4.643  14.941  0.00  0.00    +0.000 C 
ATOM     22  O   UNL     1       5.912   3.715  15.585  0.00  0.00    +0.000 OA
ENDBRANCH  15  22
ENDBRANCH   1  18
BRANCH   9  23
ATOM     23  S   UNL     1      -1.812  14.759  21.991  0.00  0.00    +0.000 S 
ATOM     24  O   UNL     1      -2.983  14.780  22.830  0.00  0.00    +0.000 OA
ATOM     25  O   UNL     1      -0.723  15.699  22.153  0.00  0.00    +0.000 OA
BRANCH  23  26
ATOM     26  N   UNL     1      -2.354  14.955  20.416  0.00  0.00    +0.000 NA
ATOM     27  H   UNL     1      -1.596  14.752  19.765  0.00  0.00    +0.000 HD
ATOM     28  H   UNL     1      -3.186  14.383  20.259  0.00  0.00    +0.000 HD
ENDBRANCH  23  26
ENDBRANCH   9  23
BRANCH  14  29
ATOM     29  C   UNL     1       1.757   4.254  20.936  0.00  0.00    +0.000 C 
ATOM     30  O   UNL     1       2.616   3.750  21.647  0.00  0.00    +0.000 OA
BRANCH  29  31
ATOM     31  O   UNL     1       0.675   3.540  20.522  0.00  0.00    +0.000 OA
ATOM     32  H   UNL     1       0.201   3.103  21.251  0.00  0.00    +0.000 HD
ENDBRANCH  29  31
ENDBRANCH  14  29
TORSDOF 6
ENDMDL
MODEL 6
REMARK VINA RESULT:      -8.1      1.065      1.311
REMARK  Name = 
REMARK  7 active torsions:
REMARK  status: ('A' for Active; 'I' for Inactive)
REMARK    1  A    between atoms: C_1  and  O_2
REMARK    2  A    between atoms: O_2  and  C_3
REMARK    3  A    between atoms: C_6  and  C_7
REMARK    4  A    between atoms: C_15  and  S_16
REMARK    5  A    between atoms: S_16  and  N_17
REMARK    6  A    between atoms: C_24  and  C_25
REMARK    7  A    between atoms: C_25  and  O_27
REMARK                            x       y       z     vdW  Elec       q    Type
REMARK                         _______ _______ _______ _____ _____    ______ ____
ROOT
ATOM      1  C   UNL     1       4.223   5.436  17.580  0.00  0.00    +0.000 A 
ATOM      2  N   UNL     1       3.661   6.659  17.758  0.00  0.00    +0.000 NA
ATOM      3  N   UNL     1       2.969   6.564  18.920  0.00  0.00    +0.000 N 
ATOM      4  C   UNL     1       2.227   7.599  19.508  0.00  0.00    +0.000 A 
ATOM      5  N   UNL     1       1.671   7.393  20.680  0.00  0.00    +0.000 NA
ATOM      6  C   UNL     1       0.947   8.495  21.056  0.00  0.00    +0.000 A 
ATOM      7  C   UNL     1       0.228   8.595  22.261  0.00  0.00    +0.000 A 
ATOM      8  C   UNL     1      -0.509   9.740  22.536  0.00  0.00    +0.000 A 
ATOM      9  C   UNL     1      -0.525  10.789  21.617  0.00  0.00    +0.000 A 
ATOM     10  C   UNL     1       0.188  10.726  20.401  0.00  0.00    +0.000 A 
ATOM     11  C   UNL     1       0.937   9.555  20.143  0.00  0.00    +0.000 A 
ATOM     12  S   UNL     1       1.946   9.109  18.785  0.00  0.00    +0.000 S 
ATOM     13  C   UNL     1       3.066   5.308  19.465  0.00  0.00    +0.000 A 
ATOM     14  C   UNL     1       3.857   4.546  18.642  0.00  0.00    +0.000 A 
ENDROOT
BRANCH   1  18
ATOM     15  C   UNL     1       6.661   4.605  14.120  0.00  0.00    +0.000 A 
ATOM     16  C   UNL     1       5.357   4.113  14.211  0.00  0.00    +0.000 A 
ATOM     17  C   UNL     1       4.560   4.384  15.334  0.00  0.00    +0.000 A 
ATOM     18  C   UNL     1       5.062   5.137  16.402  0.00  0.00    +0.000 A 
ATOM     19  C   UNL     1       6.388   5.597  16.310  0.00  0.00    +0.000 A 
ATOM     20  C   UNL     1       7.177   5.346  15.178  0.00  0.00    +0.000 A 
BRANCH  15  22
ATOM     21  C   UNL     1       6.632   3.464  12.042  0.00  0.00    +0.000 C 
ATOM     22  O   UNL     1       7.340   4.264  12.983  0.00  0.00    +0.000 OA
ENDBRANCH  15  22
ENDBRANCH   1  18
BRANCH   9  23
ATOM     23  S   UNL     1      -1.546  12.192  21.988  0.00  0.00    +0.000 S 
ATOM     24  O   UNL     1      -2.507  11.825  22.997  0.00  0.00    +0.000 OA
ATOM     25  O   UNL     1      -0.707  13.366  22.103  0.00  0.00    +0.000 OA
BRANCH  23  26
ATOM     26  N   UNL     1      -2.407  12.384  20.561  0.00  0.00    +0.000 NA
ATOM     27  H   UNL     1      -2.894  11.516  20.335  0.00  0.00    +0.000 HD
ATOM     28  H   UNL     1      -3.030  13.190  20.634  0.00  0.00    +0.000 HD
ENDBRANCH  23  26
ENDBRANCH   9  23
BRANCH  14  29
ATOM     29  C   UNL     1       4.223   3.169  18.904  0.00  0.00    +0.000 C 
ATOM     30  O   UNL     1       3.621   2.198  18.467  0.00  0.00    +0.000 OA
BRANCH  29  31
ATOM     31  O   UNL     1       5.314   3.021  19.704  0.00  0.00    +0.000 OA
ATOM     32  H   UNL     1       5.657   3.865  20.046  0.00  0.00    +0.000 HD
ENDBRANCH  29  31
ENDBRANCH  14  29
TORSDOF 6
ENDMDL
MODEL 7
REMARK VINA RESULT:      -8.0      3.041     10.658
REMARK  Name = 
REMARK  7 active torsions:
REMARK  status: ('A' for Active; 'I' for Inactive)
REMARK    1  A    between atoms: C_1  and  O_2
REMARK    2  A    between atoms: O_2  and  C_3
REMARK    3  A    between atoms: C_6  and  C_7
REMARK    4  A    between atoms: C_15  and  S_16
REMARK    5  A    between atoms: S_16  and  N_17
REMARK    6  A    between atoms: C_24  and  C_25
REMARK    7  A    between atoms: C_25  and  O_27
REMARK                            x       y       z     vdW  Elec       q    Type
REMARK                         _______ _______ _______ _____ _____    ______ ____
ROOT
ATOM      1  C   UNL     1      -0.373  11.731  20.821  0.00  0.00    +0.000 A 
ATOM      2  N   UNL     1       0.120  10.505  21.136  0.00  0.00    +0.000 NA
ATOM      3  N   UNL     1       0.709  10.059  19.999  0.00  0.00    +0.000 N 
ATOM      4  C   UNL     1       1.362   8.826  19.855  0.00  0.00    +0.000 A 
ATOM      5  N   UNL     1       1.961   8.555  18.717  0.00  0.00    +0.000 NA
ATOM      6  C   UNL     1       2.486   7.289  18.754  0.00  0.00    +0.000 A 
ATOM      7  C   UNL     1       3.190   6.695  17.690  0.00  0.00    +0.000 A 
ATOM      8  C   UNL     1       3.652   5.390  17.808  0.00  0.00    +0.000 A 
ATOM      9  C   UNL     1       3.420   4.679  18.985  0.00  0.00    +0.000 A 
ATOM     10  C   UNL     1       2.724   5.244  20.074  0.00  0.00    +0.000 A 
ATOM     11  C   UNL     1       2.268   6.575  19.937  0.00  0.00    +0.000 A 
ATOM     12  S   UNL     1       1.397   7.614  21.043  0.00  0.00    +0.000 S 
ATOM     13  C   UNL     1       0.581  10.964  18.975  0.00  0.00    +0.000 A 
ATOM     14  C   UNL     1      -0.107  12.052  19.450  0.00  0.00    +0.000 A 
ENDROOT
BRANCH   1  18
ATOM     15  C   UNL     1      -2.482  14.087  23.754  0.00  0.00    +0.000 A 
ATOM     16  C   UNL     1      -3.121  13.044  23.081  0.00  0.00    +0.000 A 
ATOM     17  C   UNL     1      -2.437  12.273  22.128  0.00  0.00    +0.000 A 
ATOM     18  C   UNL     1      -1.101  12.547  21.813  0.00  0.00    +0.000 A 
ATOM     19  C   UNL     1      -0.480  13.621  22.476  0.00  0.00    +0.000 A 
ATOM     20  C   UNL     1      -1.157  14.377  23.446  0.00  0.00    +0.000 A 
BRANCH  15  22
ATOM     21  C   UNL     1      -4.395  15.440  24.118  0.00  0.00    +0.000 C 
ATOM     22  O   UNL     1      -3.257  14.770  24.651  0.00  0.00    +0.000 OA
ENDBRANCH  15  22
ENDBRANCH   1  18
BRANCH   9  23
ATOM     23  S   UNL     1       3.966   2.991  19.046  0.00  0.00    +0.000 S 
ATOM     24  O   UNL     1       5.149   2.905  19.864  0.00  0.00    +0.000 OA
ATOM     25  O   UNL     1       2.817   2.134  19.249  0.00  0.00    +0.000 OA
BRANCH  23  26
ATOM     26  N   UNL     1       4.461   2.727  17.466  0.00  0.00    +0.000 NA
ATOM     27  H   UNL     1       3.646   2.579  16.871  0.00  0.00    +0.000 HD
ATOM     28  H   UNL     1       5.057   3.495  17.153  0.00  0.00    +0.000 HD
ENDBRANCH  23  26
ENDBRANCH   9  23
BRANCH  14  29
ATOM     29  C   UNL     1      -0.407  13.236  18.670  0.00  0.00    +0.000 C 
ATOM     30  O   UNL     1      -0.130  14.377  19.011  0.00  0.00    +0.000 OA
BRANCH  29  31
ATOM     31  O   UNL     1      -1.047  12.986  17.496  0.00  0.00    +0.000 OA
ATOM     32  H   UNL     1      -1.777  12.350  17.584  0.00  0.00    +0.000 HD
ENDBRANCH  29  31
ENDBRANCH  14  29
TORSDOF 6
ENDMDL
MODEL 8
REMARK VINA RESULT:      -8.0      2.979     10.713
REMARK  Name = 
REMARK  7 active torsions:
REMARK  status: ('A' for Active; 'I' for Inactive)
REMARK    1  A    between atoms: C_1  and  O_2
REMARK    2  A    between atoms: O_2  and  C_3
REMARK    3  A    between atoms: C_6  and  C_7
REMARK    4  A    between atoms: C_15  and  S_16
REMARK    5  A    between atoms: S_16  and  N_17
REMARK    6  A    between atoms: C_24  and  C_25
REMARK    7  A    between atoms: C_25  and  O_27
REMARK                            x       y       z     vdW  Elec       q    Type
REMARK                         _______ _______ _______ _____ _____    ______ ____
ROOT
ATOM      1  C   UNL     1      -0.663  11.769  20.818  0.00  0.00    +0.000 A 
ATOM      2  N   UNL     1      -0.151  10.548  21.123  0.00  0.00    +0.000 NA
ATOM      3  N   UNL     1       0.525  10.162  20.012  0.00  0.00    +0.000 N 
ATOM      4  C   UNL     1       1.227   8.956  19.870  0.00  0.00    +0.000 A 
ATOM      5  N   UNL     1       1.907   8.745  18.766  0.00  0.00    +0.000 NA
ATOM      6  C   UNL     1       2.470   7.496  18.793  0.00  0.00    +0.000 A 
ATOM      7  C   UNL     1       3.261   6.963  17.758  0.00  0.00    +0.000 A 
ATOM      8  C   UNL     1       3.757   5.669  17.862  0.00  0.00    +0.000 A 
ATOM      9  C   UNL     1       3.474   4.909  18.996  0.00  0.00    +0.000 A 
ATOM     10  C   UNL     1       2.689   5.413  20.055  0.00  0.00    +0.000 A 
ATOM     11  C   UNL     1       2.199   6.732  19.934  0.00  0.00    +0.000 A 
ATOM     12  S   UNL     1       1.225   7.703  21.015  0.00  0.00    +0.000 S 
ATOM     13  C   UNL     1       0.434  11.099  19.013  0.00  0.00    +0.000 A 
ATOM     14  C   UNL     1      -0.320  12.147  19.479  0.00  0.00    +0.000 A 
ENDROOT
BRANCH   1  18
ATOM     15  C   UNL     1      -3.054  14.015  23.618  0.00  0.00    +0.000 A 
ATOM     16  C   UNL     1      -1.661  14.020  23.702  0.00  0.00    +0.000 A 
ATOM     17  C   UNL     1      -0.879  13.293  22.791  0.00  0.00    +0.000 A 
ATOM     18  C   UNL     1      -1.481  12.525  21.787  0.00  0.00    +0.000 A 
ATOM     19  C   UNL     1      -2.886  12.503  21.736  0.00  0.00    +0.000 A 
ATOM     20  C   UNL     1      -3.667  13.249  22.632  0.00  0.00    +0.000 A 
BRANCH  15  22
ATOM     21  C   UNL     1      -4.627  15.726  24.090  0.00  0.00    +0.000 C 
ATOM     22  O   UNL     1      -3.704  14.753  24.569  0.00  0.00    +0.000 OA
ENDBRANCH  15  22
ENDBRANCH   1  18
BRANCH   9  23
ATOM     23  S   UNL     1       4.069   3.238  19.035  0.00  0.00    +0.000 S 
ATOM     24  O   UNL     1       3.813   2.674  20.337  0.00  0.00    +0.000 OA
ATOM     25  O   UNL     1       3.682   2.572  17.810  0.00  0.00    +0.000 OA
BRANCH  23  26
ATOM     26  N   UNL     1       5.729   3.456  18.933  0.00  0.00    +0.000 NA
ATOM     27  H   UNL     1       5.978   3.757  17.990  0.00  0.00    +0.000 HD
ATOM     28  H   UNL     1       6.043   4.102  19.659  0.00  0.00    +0.000 HD
ENDBRANCH  23  26
ENDBRANCH   9  23
BRANCH  14  29
ATOM     29  C   UNL     1      -0.607  13.349  18.722  0.00  0.00    +0.000 C 
ATOM     30  O   UNL     1      -0.458  14.486  19.147  0.00  0.00    +0.000 OA
BRANCH  29  31
ATOM     31  O   UNL     1      -1.079  13.121  17.467  0.00  0.00    +0.000 OA
ATOM     32  H   UNL     1      -1.801  13.722  17.212  0.00  0.00    +0.000 HD
ENDBRANCH  29  31
ENDBRANCH  14  29
TORSDOF 6
ENDMDL
