MODEL 1
REMARK VINA RESULT:      -6.4      0.000      0.000
REMARK  Name = 
REMARK  8 active torsions:
REMARK  status: ('A' for Active; 'I' for Inactive)
REMARK    1  A    between atoms: C_1  and  O_2
REMARK    2  A    between atoms: O_2  and  C_3
REMARK    3  A    between atoms: C_5  and  O_6
REMARK    4  A    between atoms: O_6  and  C_7
REMARK    5  A    between atoms: C_10  and  C_11
REMARK    6  A    between atoms: C_13  and  C_14
REMARK    7  A    between atoms: C_16  and  C_17
REMARK    8  A    between atoms: C_22  and  C_23
REMARK                            x       y       z     vdW  Elec       q    Type
REMARK                         _______ _______ _______ _____ _____    ______ ____
ROOT
ATOM      1  C   UNL     1       1.508   7.899  20.296  0.00  0.00    +0.000 A 
ATOM      2  C   UNL     1       1.487   8.989  19.433  0.00  0.00    +0.000 A 
ATOM      3  C   UNL     1       2.268   8.984  18.271  0.00  0.00    +0.000 A 
ATOM      4  C   UNL     1       3.010   7.831  17.925  0.00  0.00    +0.000 A 
ATOM      5  N   UNL     1       3.798   7.859  16.751  0.00  0.00    +0.000 NA
ATOM      6  C   UNL     1       4.454   6.804  16.380  0.00  0.00    +0.000 A 
ATOM      7  C   UNL     1       5.311   6.907  15.152  0.00  0.00    +0.000 C 
ATOM      8  C   UNL     1       4.352   5.575  17.123  0.00  0.00    +0.000 A 
ATOM      9  C   UNL     1       4.886   4.311  16.966  0.00  0.00    +0.000 A 
ATOM     10  C   UNL     1       5.798   3.723  15.959  0.00  0.00    +0.000 C 
ATOM     11  N   UNL     1       4.406   3.487  17.946  0.00  0.00    +0.000 NA
ATOM     12  C   UNL     1       3.581   4.185  18.708  0.00  0.00    +0.000 A 
ATOM     13  N   UNL     1       3.589   5.523  18.285  0.00  0.00    +0.000 N 
ATOM     14  C   UNL     1       2.958   6.701  18.766  0.00  0.00    +0.000 A 
ATOM     15  C   UNL     1       2.292   6.785  19.987  0.00  0.00    +0.000 A 
ENDROOT
BRANCH  12  16
ATOM     16  C   UNL     1       2.791   3.544  19.778  0.00  0.00    +0.000 A 
ATOM     17  C   UNL     1       3.319   3.350  21.057  0.00  0.00    +0.000 A 
ATOM     18  N   UNL     1       2.701   2.695  22.071  0.00  0.00    +0.000 NA
ATOM     19  C   UNL     1       1.448   2.266  21.832  0.00  0.00    +0.000 A 
ATOM     20  C   UNL     1       0.777   2.502  20.646  0.00  0.00    +0.000 A 
ATOM     21  C   UNL     1       1.443   3.164  19.601  0.00  0.00    +0.000 A 
ATOM     22  C   UNL     1       0.668   3.461  18.344  0.00  0.00    +0.000 C 
ENDBRANCH  12  16
BRANCH   1  24
ATOM     23  C   UNL     1      -0.313   8.655  21.634  0.00  0.00    +0.000 C 
ATOM     24  O   UNL     1       0.802   7.788  21.463  0.00  0.00    +0.000 OA
ENDBRANCH   1  24
BRANCH   3  25
ATOM     25  O   UNL     1       2.361  10.048  17.405  0.00  0.00    +0.000 OA
ATOM     26  C   UNL     1       2.296  11.355  17.956  0.00  0.00    +0.000 C 
ENDBRANCH   3  25
TORSDOF 3
ENDMDL
MODEL 2
REMARK VINA RESULT:      -6.4      6.677     10.096
REMARK  Name = 
REMARK  8 active torsions:
REMARK  status: ('A' for Active; 'I' for Inactive)
REMARK    1  A    between atoms: C_1  and  O_2
REMARK    2  A    between atoms: O_2  and  C_3
REMARK    3  A    between atoms: C_5  and  O_6
REMARK    4  A    between atoms: O_6  and  C_7
REMARK    5  A    between atoms: C_10  and  C_11
REMARK    6  A    between atoms: C_13  and  C_14
REMARK    7  A    between atoms: C_16  and  C_17
REMARK    8  A    between atoms: C_22  and  C_23
REMARK                            x       y       z     vdW  Elec       q    Type
REMARK                         _______ _______ _______ _____ _____    ______ ____
ROOT
ATOM      1  C   UNL     1      -3.220  11.185  16.676  0.00  0.00    +0.000 A 
ATOM      2  C   UNL     1      -4.589  11.422  16.618  0.00  0.00    +0.000 A 
ATOM      3  C   UNL     1      -5.284  11.820  17.766  0.00  0.00    +0.000 A 
ATOM      4  C   UNL     1      -4.580  12.073  18.965  0.00  0.00    +0.000 A 
ATOM      5  N   UNL     1      -5.310  12.465  20.111  0.00  0.00    +0.000 NA
ATOM      6  C   UNL     1      -4.692  12.749  21.214  0.00  0.00    +0.000 A 
ATOM      7  C   UNL     1      -5.523  13.112  22.411  0.00  0.00    +0.000 C 
ATOM      8  C   UNL     1      -3.254  12.723  21.279  0.00  0.00    +0.000 A 
ATOM      9  C   UNL     1      -2.332  12.998  22.270  0.00  0.00    +0.000 A 
ATOM     10  C   UNL     1      -2.471  13.425  23.681  0.00  0.00    +0.000 C 
ATOM     11  N   UNL     1      -1.068  12.866  21.768  0.00  0.00    +0.000 NA
ATOM     12  C   UNL     1      -1.161  12.527  20.493  0.00  0.00    +0.000 A 
ATOM     13  N   UNL     1      -2.512  12.334  20.168  0.00  0.00    +0.000 N 
ATOM     14  C   UNL     1      -3.180  11.910  18.989  0.00  0.00    +0.000 A 
ATOM     15  C   UNL     1      -2.534  11.373  17.878  0.00  0.00    +0.000 A 
ENDROOT
BRANCH  12  16
ATOM     16  C   UNL     1       0.034  12.439  19.629  0.00  0.00    +0.000 A 
ATOM     17  C   UNL     1       0.680  11.222  19.400  0.00  0.00    +0.000 A 
ATOM     18  N   UNL     1       1.828  11.063  18.696  0.00  0.00    +0.000 NA
ATOM     19  C   UNL     1       2.334  12.167  18.116  0.00  0.00    +0.000 A 
ATOM     20  C   UNL     1       1.720  13.405  18.173  0.00  0.00    +0.000 A 
ATOM     21  C   UNL     1       0.543  13.552  18.925  0.00  0.00    +0.000 A 
ATOM     22  C   UNL     1      -0.136  14.897  18.920  0.00  0.00    +0.000 C 
ENDBRANCH  12  16
BRANCH   1  24
ATOM     23  C   UNL     1      -3.076  10.125  14.546  0.00  0.00    +0.000 C 
ATOM     24  O   UNL     1      -2.432  10.783  15.631  0.00  0.00    +0.000 OA
ENDBRANCH   1  24
BRANCH   3  25
ATOM     25  O   UNL     1      -6.647  12.003  17.811  0.00  0.00    +0.000 OA
ATOM     26  C   UNL     1      -7.186  13.122  17.122  0.00  0.00    +0.000 C 
ENDBRANCH   3  25
TORSDOF 3
ENDMDL
MODEL 3
REMARK VINA RESULT:      -6.4      6.335      9.867
REMARK  Name = 
REMARK  8 active torsions:
REMARK  status: ('A' for Active; 'I' for Inactive)
REMARK    1  A    between atoms: C_1  and  O_2
REMARK    2  A    between atoms: O_2  and  C_3
REMARK    3  A    between atoms: C_5  and  O_6
REMARK    4  A    between atoms: O_6  and  C_7
REMARK    5  A    between atoms: C_10  and  C_11
REMARK    6  A    between atoms: C_13  and  C_14
REMARK    7  A    between atoms: C_16  and  C_17
REMARK    8  A    between atoms: C_22  and  C_23
REMARK                            x       y       z     vdW  Elec       q    Type
REMARK                         _______ _______ _______ _____ _____    ______ ____
ROOT
ATOM      1  C   UNL     1      -3.187  11.133  16.712  0.00  0.00    +0.000 A 
ATOM      2  C   UNL     1      -4.548  11.413  16.639  0.00  0.00    +0.000 A 
ATOM      3  C   UNL     1      -5.244  11.832  17.779  0.00  0.00    +0.000 A 
ATOM      4  C   UNL     1      -4.546  12.061  18.988  0.00  0.00    +0.000 A 
ATOM      5  N   UNL     1      -5.277  12.473  20.125  0.00  0.00    +0.000 NA
ATOM      6  C   UNL     1      -4.663  12.736  21.236  0.00  0.00    +0.000 A 
ATOM      7  C   UNL     1      -5.496  13.124  22.424  0.00  0.00    +0.000 C 
ATOM      8  C   UNL     1      -3.227  12.665  21.318  0.00  0.00    +0.000 A 
ATOM      9  C   UNL     1      -2.309  12.910  22.320  0.00  0.00    +0.000 A 
ATOM     10  C   UNL     1      -2.450  13.339  23.730  0.00  0.00    +0.000 C 
ATOM     11  N   UNL     1      -1.043  12.739  21.832  0.00  0.00    +0.000 NA
ATOM     12  C   UNL     1      -1.132  12.405  20.555  0.00  0.00    +0.000 A 
ATOM     13  N   UNL     1      -2.485  12.255  20.215  0.00  0.00    +0.000 N 
ATOM     14  C   UNL     1      -3.152  11.853  19.027  0.00  0.00    +0.000 A 
ATOM     15  C   UNL     1      -2.510  11.298  17.923  0.00  0.00    +0.000 A 
ENDROOT
BRANCH  12  16
ATOM     16  C   UNL     1       0.069  12.281  19.706  0.00  0.00    +0.000 A 
ATOM     17  C   UNL     1       0.704  13.405  19.172  0.00  0.00    +0.000 A 
ATOM     18  N   UNL     1       1.755  13.380  18.315  0.00  0.00    +0.000 NA
ATOM     19  C   UNL     1       2.262  12.168  18.022  0.00  0.00    +0.000 A 
ATOM     20  C   UNL     1       1.794  10.993  18.581  0.00  0.00    +0.000 A 
ATOM     21  C   UNL     1       0.691  11.039  19.450  0.00  0.00    +0.000 A 
ATOM     22  C   UNL     1       0.242   9.752  20.091  0.00  0.00    +0.000 C 
ENDBRANCH  12  16
BRANCH   1  24
ATOM     23  C   UNL     1      -3.043  10.017  14.612  0.00  0.00    +0.000 C 
ATOM     24  O   UNL     1      -2.401  10.708  15.676  0.00  0.00    +0.000 OA
ENDBRANCH   1  24
BRANCH   3  25
ATOM     25  O   UNL     1      -6.600  12.057  17.809  0.00  0.00    +0.000 OA
ATOM     26  C   UNL     1      -7.101  13.166  17.077  0.00  0.00    +0.000 C 
ENDBRANCH   3  25
TORSDOF 3
ENDMDL
MODEL 4
REMARK VINA RESULT:      -6.2      5.670      9.140
REMARK  Name = 
REMARK  8 active torsions:
REMARK  status: ('A' for Active; 'I' for Inactive)
REMARK    1  A    between atoms: C_1  and  O_2
REMARK    2  A    between atoms: O_2  and  C_3
REMARK    3  A    between atoms: C_5  and  O_6
REMARK    4  A    between atoms: O_6  and  C_7
REMARK    5  A    between atoms: C_10  and  C_11
REMARK    6  A    between atoms: C_13  and  C_14
REMARK    7  A    between atoms: C_16  and  C_17
REMARK    8  A    between atoms: C_22  and  C_23
REMARK                            x       y       z     vdW  Elec       q    Type
REMARK                         _______ _______ _______ _____ _____    ______ ____
ROOT
ATOM      1  C   UNL     1      -3.337  10.535  17.100  0.00  0.00    +0.000 A 
ATOM      2  C   UNL     1      -4.508  11.278  16.995  0.00  0.00    +0.000 A 
ATOM      3  C   UNL     1      -4.892  12.138  18.031  0.00  0.00    +0.000 A 
ATOM      4  C   UNL     1      -4.042  12.325  19.145  0.00  0.00    +0.000 A 
ATOM      5  N   UNL     1      -4.460  13.192  20.180  0.00  0.00    +0.000 NA
ATOM      6  C   UNL     1      -3.685  13.421  21.193  0.00  0.00    +0.000 A 
ATOM      7  C   UNL     1      -4.202  14.314  22.285  0.00  0.00    +0.000 C 
ATOM      8  C   UNL     1      -2.369  12.841  21.259  0.00  0.00    +0.000 A 
ATOM      9  C   UNL     1      -1.329  12.920  22.164  0.00  0.00    +0.000 A 
ATOM     10  C   UNL     1      -1.167  13.638  23.449  0.00  0.00    +0.000 C 
ATOM     11  N   UNL     1      -0.263  12.201  21.699  0.00  0.00    +0.000 NA
ATOM     12  C   UNL     1      -0.592  11.681  20.529  0.00  0.00    +0.000 A 
ATOM     13  N   UNL     1      -1.936  11.979  20.257  0.00  0.00    +0.000 N 
ATOM     14  C   UNL     1      -2.817  11.628  19.200  0.00  0.00    +0.000 A 
ATOM     15  C   UNL     1      -2.529  10.670  18.230  0.00  0.00    +0.000 A 
ENDROOT
BRANCH  12  16
ATOM     16  C   UNL     1       0.395  10.958  19.702  0.00  0.00    +0.000 A 
ATOM     17  C   UNL     1       1.157  11.616  18.733  0.00  0.00    +0.000 A 
ATOM     18  N   UNL     1       2.019  11.019  17.873  0.00  0.00    +0.000 NA
ATOM     19  C   UNL     1       2.199   9.695  18.027  0.00  0.00    +0.000 A 
ATOM     20  C   UNL     1       1.591   8.956  19.026  0.00  0.00    +0.000 A 
ATOM     21  C   UNL     1       0.685   9.589  19.893  0.00  0.00    +0.000 A 
ATOM     22  C   UNL     1       0.086   8.773  21.008  0.00  0.00    +0.000 C 
ENDBRANCH  12  16
BRANCH   1  24
ATOM     23  C   UNL     1      -3.030  10.005  14.797  0.00  0.00    +0.000 C 
ATOM     24  O   UNL     1      -2.861   9.655  16.165  0.00  0.00    +0.000 OA
ENDBRANCH   1  24
BRANCH   3  25
ATOM     25  O   UNL     1      -6.068  12.851  18.039  0.00  0.00    +0.000 OA
ATOM     26  C   UNL     1      -7.278  12.126  18.205  0.00  0.00    +0.000 C 
ENDBRANCH   3  25
TORSDOF 3
ENDMDL
MODEL 5
REMARK VINA RESULT:      -6.1      7.444     10.488
REMARK  Name = 
REMARK  8 active torsions:
REMARK  status: ('A' for Active; 'I' for Inactive)
REMARK    1  A    between atoms: C_1  and  O_2
REMARK    2  A    between atoms: O_2  and  C_3
REMARK    3  A    between atoms: C_5  and  O_6
REMARK    4  A    between atoms: O_6  and  C_7
REMARK    5  A    between atoms: C_10  and  C_11
REMARK    6  A    between atoms: C_13  and  C_14
REMARK    7  A    between atoms: C_16  and  C_17
REMARK    8  A    between atoms: C_22  and  C_23
REMARK                            x       y       z     vdW  Elec       q    Type
REMARK                         _______ _______ _______ _____ _____    ______ ____
ROOT
ATOM      1  C   UNL     1      -0.901  10.703  18.674  0.00  0.00    +0.000 A 
ATOM      2  C   UNL     1      -1.371  10.143  17.491  0.00  0.00    +0.000 A 
ATOM      3  C   UNL     1      -2.715  10.289  17.127  0.00  0.00    +0.000 A 
ATOM      4  C   UNL     1      -3.577  11.085  17.915  0.00  0.00    +0.000 A 
ATOM      5  N   UNL     1      -4.931  11.206  17.529  0.00  0.00    +0.000 NA
ATOM      6  C   UNL     1      -5.738  11.965  18.203  0.00  0.00    +0.000 A 
ATOM      7  C   UNL     1      -7.176  12.017  17.773  0.00  0.00    +0.000 C 
ATOM      8  C   UNL     1      -5.260  12.737  19.320  0.00  0.00    +0.000 A 
ATOM      9  C   UNL     1      -5.849  13.635  20.189  0.00  0.00    +0.000 A 
ATOM     10  C   UNL     1      -7.230  14.152  20.316  0.00  0.00    +0.000 C 
ATOM     11  N   UNL     1      -4.905  14.128  21.045  0.00  0.00    +0.000 NA
ATOM     12  C   UNL     1      -3.740  13.580  20.740  0.00  0.00    +0.000 A 
ATOM     13  N   UNL     1      -3.933  12.631  19.725  0.00  0.00    +0.000 N 
ATOM     14  C   UNL     1      -3.067  11.717  19.068  0.00  0.00    +0.000 A 
ATOM     15  C   UNL     1      -1.769  11.437  19.486  0.00  0.00    +0.000 A 
ENDROOT
BRANCH  12  16
ATOM     16  C   UNL     1      -2.490  14.010  21.398  0.00  0.00    +0.000 A 
ATOM     17  C   UNL     1      -1.769  15.116  20.941  0.00  0.00    +0.000 A 
ATOM     18  N   UNL     1      -0.571  15.528  21.427  0.00  0.00    +0.000 NA
ATOM     19  C   UNL     1      -0.088  14.849  22.484  0.00  0.00    +0.000 A 
ATOM     20  C   UNL     1      -0.767  13.812  23.097  0.00  0.00    +0.000 A 
ATOM     21  C   UNL     1      -1.995  13.388  22.565  0.00  0.00    +0.000 A 
ATOM     22  C   UNL     1      -2.741  12.298  23.289  0.00  0.00    +0.000 C 
ENDBRANCH  12  16
BRANCH   1  24
ATOM     23  C   UNL     1       0.743  11.495  20.207  0.00  0.00    +0.000 C 
ATOM     24  O   UNL     1       0.382  10.622  19.143  0.00  0.00    +0.000 OA
ENDBRANCH   1  24
BRANCH   3  25
ATOM     25  O   UNL     1      -3.275   9.706  16.015  0.00  0.00    +0.000 OA
ATOM     26  C   UNL     1      -2.956  10.260  14.747  0.00  0.00    +0.000 C 
ENDBRANCH   3  25
TORSDOF 3
ENDMDL
MODEL 6
REMARK VINA RESULT:      -6.1      7.268     10.026
REMARK  Name = 
REMARK  8 active torsions:
REMARK  status: ('A' for Active; 'I' for Inactive)
REMARK    1  A    between atoms: C_1  and  O_2
REMARK    2  A    between atoms: O_2  and  C_3
REMARK    3  A    between atoms: C_5  and  O_6
REMARK    4  A    between atoms: O_6  and  C_7
REMARK    5  A    between atoms: C_10  and  C_11
REMARK    6  A    between atoms: C_13  and  C_14
REMARK    7  A    between atoms: C_16  and  C_17
REMARK    8  A    between atoms: C_22  and  C_23
REMARK                            x       y       z     vdW  Elec       q    Type
REMARK                         _______ _______ _______ _____ _____    ______ ____
ROOT
ATOM      1  C   UNL     1      -3.040  13.733  22.855  0.00  0.00    +0.000 A 
ATOM      2  C   UNL     1      -4.300  13.386  23.331  0.00  0.00    +0.000 A 
ATOM      3  C   UNL     1      -5.244  12.811  22.472  0.00  0.00    +0.000 A 
ATOM      4  C   UNL     1      -4.888  12.497  21.141  0.00  0.00    +0.000 A 
ATOM      5  N   UNL     1      -5.866  11.927  20.294  0.00  0.00    +0.000 NA
ATOM      6  C   UNL     1      -5.561  11.585  19.082  0.00  0.00    +0.000 A 
ATOM      7  C   UNL     1      -6.652  11.028  18.213  0.00  0.00    +0.000 C 
ATOM      8  C   UNL     1      -4.214  11.728  18.594  0.00  0.00    +0.000 A 
ATOM      9  C   UNL     1      -3.589  11.433  17.398  0.00  0.00    +0.000 A 
ATOM     10  C   UNL     1      -4.075  10.851  16.126  0.00  0.00    +0.000 C 
ATOM     11  N   UNL     1      -2.257  11.726  17.494  0.00  0.00    +0.000 NA
ATOM     12  C   UNL     1      -2.020  12.186  18.711  0.00  0.00    +0.000 A 
ATOM     13  N   UNL     1      -3.234  12.293  19.404  0.00  0.00    +0.000 N 
ATOM     14  C   UNL     1      -3.581  12.778  20.693  0.00  0.00    +0.000 A 
ATOM     15  C   UNL     1      -2.710  13.482  21.521  0.00  0.00    +0.000 A 
ENDROOT
BRANCH  12  16
ATOM     16  C   UNL     1      -0.646  12.466  19.175  0.00  0.00    +0.000 A 
ATOM     17  C   UNL     1      -0.027  13.692  18.921  0.00  0.00    +0.000 A 
ATOM     18  N   UNL     1       1.257  14.003  19.231  0.00  0.00    +0.000 NA
ATOM     19  C   UNL     1       1.954  13.069  19.904  0.00  0.00    +0.000 A 
ATOM     20  C   UNL     1       1.413  11.865  20.315  0.00  0.00    +0.000 A 
ATOM     21  C   UNL     1       0.088  11.554  19.964  0.00  0.00    +0.000 A 
ATOM     22  C   UNL     1      -0.494  10.263  20.477  0.00  0.00    +0.000 C 
ENDBRANCH  12  16
BRANCH   1  24
ATOM     23  C   UNL     1      -2.420  15.082  24.720  0.00  0.00    +0.000 C 
ATOM     24  O   UNL     1      -2.038  14.308  23.588  0.00  0.00    +0.000 OA
ENDBRANCH   1  24
BRANCH   3  25
ATOM     25  O   UNL     1      -6.533  12.507  22.844  0.00  0.00    +0.000 OA
ATOM     26  C   UNL     1      -6.957  12.902  24.141  0.00  0.00    +0.000 C 
ENDBRANCH   3  25
TORSDOF 3
ENDMDL
MODEL 7
REMARK VINA RESULT:      -6.1      7.990     11.801
REMARK  Name = 
REMARK  8 active torsions:
REMARK  status: ('A' for Active; 'I' for Inactive)
REMARK    1  A    between atoms: C_1  and  O_2
REMARK    2  A    between atoms: O_2  and  C_3
REMARK    3  A    between atoms: C_5  and  O_6
REMARK    4  A    between atoms: O_6  and  C_7
REMARK    5  A    between atoms: C_10  and  C_11
REMARK    6  A    between atoms: C_13  and  C_14
REMARK    7  A    between atoms: C_16  and  C_17
REMARK    8  A    between atoms: C_22  and  C_23
REMARK                            x       y       z     vdW  Elec       q    Type
REMARK                         _______ _______ _______ _____ _____    ______ ____
ROOT
ATOM      1  C   UNL     1      -1.945  12.329  19.677  0.00  0.00    +0.000 A 
ATOM      2  C   UNL     1      -1.098  11.793  20.641  0.00  0.00    +0.000 A 
ATOM      3  C   UNL     1      -1.472  11.801  21.990  0.00  0.00    +0.000 A 
ATOM      4  C   UNL     1      -2.752  12.269  22.365  0.00  0.00    +0.000 A 
ATOM      5  N   UNL     1      -3.098  12.274  23.736  0.00  0.00    +0.000 NA
ATOM      6  C   UNL     1      -4.279  12.653  24.110  0.00  0.00    +0.000 A 
ATOM      7  C   UNL     1      -4.573  12.683  25.583  0.00  0.00    +0.000 C 
ATOM      8  C   UNL     1      -5.275  13.024  23.139  0.00  0.00    +0.000 A 
ATOM      9  C   UNL     1      -6.593  13.429  23.221  0.00  0.00    +0.000 A 
ATOM     10  C   UNL     1      -7.506  13.652  24.364  0.00  0.00    +0.000 C 
ATOM     11  N   UNL     1      -7.097  13.602  21.962  0.00  0.00    +0.000 NA
ATOM     12  C   UNL     1      -6.146  13.311  21.090  0.00  0.00    +0.000 A 
ATOM     13  N   UNL     1      -4.958  13.034  21.784  0.00  0.00    +0.000 N 
ATOM     14  C   UNL     1      -3.634  12.732  21.368  0.00  0.00    +0.000 A 
ATOM     15  C   UNL     1      -3.184  12.850  20.055  0.00  0.00    +0.000 A 
ENDROOT
BRANCH  12  16
ATOM     16  C   UNL     1      -6.417  13.271  19.639  0.00  0.00    +0.000 A 
ATOM     17  C   UNL     1      -6.343  14.422  18.851  0.00  0.00    +0.000 A 
ATOM     18  N   UNL     1      -6.659  14.493  17.534  0.00  0.00    +0.000 NA
ATOM     19  C   UNL     1      -6.999  13.337  16.936  0.00  0.00    +0.000 A 
ATOM     20  C   UNL     1      -6.994  12.115  17.583  0.00  0.00    +0.000 A 
ATOM     21  C   UNL     1      -6.684  12.066  18.952  0.00  0.00    +0.000 A 
ATOM     22  C   UNL     1      -6.627  10.715  19.616  0.00  0.00    +0.000 C 
ENDBRANCH  12  16
BRANCH   1  24
ATOM     23  C   UNL     1      -2.309  11.410  17.508  0.00  0.00    +0.000 C 
ATOM     24  O   UNL     1      -1.691  12.390  18.333  0.00  0.00    +0.000 OA
ENDBRANCH   1  24
BRANCH   3  25
ATOM     25  O   UNL     1      -0.663  11.359  23.011  0.00  0.00    +0.000 OA
ATOM     26  C   UNL     1      -0.399   9.966  23.089  0.00  0.00    +0.000 C 
ENDBRANCH   3  25
TORSDOF 3
ENDMDL
MODEL 8
REMARK VINA RESULT:      -6.1      8.021     10.021
REMARK  Name = 
REMARK  8 active torsions:
REMARK  status: ('A' for Active; 'I' for Inactive)
REMARK    1  A    between atoms: C_1  and  O_2
REMARK    2  A    between atoms: O_2  and  C_3
REMARK    3  A    between atoms: C_5  and  O_6
REMARK    4  A    between atoms: O_6  and  C_7
REMARK    5  A    between atoms: C_10  and  C_11
REMARK    6  A    between atoms: C_13  and  C_14
REMARK    7  A    between atoms: C_16  and  C_17
REMARK    8  A    between atoms: C_22  and  C_23
REMARK                            x       y       z     vdW  Elec       q    Type
REMARK                         _______ _______ _______ _____ _____    ______ ____
ROOT
ATOM      1  C   UNL     1      -5.141  11.465  18.794  0.00  0.00    +0.000 A 
ATOM      2  C   UNL     1      -4.496  10.890  17.704  0.00  0.00    +0.000 A 
ATOM      3  C   UNL     1      -3.136  11.133  17.481  0.00  0.00    +0.000 A 
ATOM      4  C   UNL     1      -2.392  11.890  18.415  0.00  0.00    +0.000 A 
ATOM      5  N   UNL     1      -1.022  12.128  18.159  0.00  0.00    +0.000 NA
ATOM      6  C   UNL     1      -0.301  12.778  19.016  0.00  0.00    +0.000 A 
ATOM      7  C   UNL     1       1.136  13.042  18.668  0.00  0.00    +0.000 C 
ATOM      8  C   UNL     1      -0.863  13.222  20.265  0.00  0.00    +0.000 A 
ATOM      9  C   UNL     1      -0.357  13.890  21.363  0.00  0.00    +0.000 A 
ATOM     10  C   UNL     1       0.985  14.427  21.682  0.00  0.00    +0.000 C 
ATOM     11  N   UNL     1      -1.332  14.009  22.315  0.00  0.00    +0.000 NA
ATOM     12  C   UNL     1      -2.430  13.431  21.858  0.00  0.00    +0.000 A 
ATOM     13  N   UNL     1      -2.210  13.007  20.539  0.00  0.00    +0.000 N 
ATOM     14  C   UNL     1      -3.039  12.398  19.560  0.00  0.00    +0.000 A 
ATOM     15  C   UNL     1      -4.421  12.266  19.682  0.00  0.00    +0.000 A 
ENDROOT
BRANCH  12  16
ATOM     16  C   UNL     1      -3.628  13.272  22.708  0.00  0.00    +0.000 A 
ATOM     17  C   UNL     1      -3.687  12.300  23.710  0.00  0.00    +0.000 A 
ATOM     18  N   UNL     1      -4.773  12.027  24.475  0.00  0.00    +0.000 NA
ATOM     19  C   UNL     1      -5.849  12.814  24.293  0.00  0.00    +0.000 A 
ATOM     20  C   UNL     1      -5.869  13.883  23.415  0.00  0.00    +0.000 A 
ATOM     21  C   UNL     1      -4.742  14.135  22.616  0.00  0.00    +0.000 A 
ATOM     22  C   UNL     1      -4.770  15.341  21.715  0.00  0.00    +0.000 C 
ENDBRANCH  12  16
BRANCH   1  24
ATOM     23  C   UNL     1      -6.817  11.405  20.487  0.00  0.00    +0.000 C 
ATOM     24  O   UNL     1      -6.463  11.313  19.112  0.00  0.00    +0.000 OA
ENDBRANCH   1  24
BRANCH   3  25
ATOM     25  O   UNL     1      -2.442  10.664  16.390  0.00  0.00    +0.000 OA
ATOM     26  C   UNL     1      -3.118  10.633  15.141  0.00  0.00    +0.000 C 
ENDBRANCH   3  25
TORSDOF 3
ENDMDL
MODEL 9
REMARK VINA RESULT:      -6.0      5.701      9.206
REMARK  Name = 
REMARK  8 active torsions:
REMARK  status: ('A' for Active; 'I' for Inactive)
REMARK    1  A    between atoms: C_1  and  O_2
REMARK    2  A    between atoms: O_2  and  C_3
REMARK    3  A    between atoms: C_5  and  O_6
REMARK    4  A    between atoms: O_6  and  C_7
REMARK    5  A    between atoms: C_10  and  C_11
REMARK    6  A    between atoms: C_13  and  C_14
REMARK    7  A    between atoms: C_16  and  C_17
REMARK    8  A    between atoms: C_22  and  C_23
REMARK                            x       y       z     vdW  Elec       q    Type
REMARK                         _______ _______ _______ _____ _____    ______ ____
ROOT
ATOM      1  C   UNL     1       0.208  10.488  21.031  0.00  0.00    +0.000 A 
ATOM      2  C   UNL     1       0.923   9.985  19.950  0.00  0.00    +0.000 A 
ATOM      3  C   UNL     1       0.325   9.899  18.688  0.00  0.00    +0.000 A 
ATOM      4  C   UNL     1      -0.978  10.410  18.488  0.00  0.00    +0.000 A 
ATOM      5  N   UNL     1      -1.561  10.299  17.204  0.00  0.00    +0.000 NA
ATOM      6  C   UNL     1      -2.734  10.798  16.975  0.00  0.00    +0.000 A 
ATOM      7  C   UNL     1      -3.323  10.609  15.606  0.00  0.00    +0.000 C 
ATOM      8  C   UNL     1      -3.442  11.516  18.002  0.00  0.00    +0.000 A 
ATOM      9  C   UNL     1      -4.657  12.171  18.053  0.00  0.00    +0.000 A 
ATOM     10  C   UNL     1      -5.728  12.382  17.053  0.00  0.00    +0.000 C 
ATOM     11  N   UNL     1      -4.817  12.742  19.285  0.00  0.00    +0.000 NA
ATOM     12  C   UNL     1      -3.742  12.478  20.008  0.00  0.00    +0.000 A 
ATOM     13  N   UNL     1      -2.895  11.633  19.276  0.00  0.00    +0.000 N 
ATOM     14  C   UNL     1      -1.662  10.994  19.574  0.00  0.00    +0.000 A 
ATOM     15  C   UNL     1      -1.103  10.934  20.848  0.00  0.00    +0.000 A 
ENDROOT
BRANCH  12  16
ATOM     16  C   UNL     1      -3.548  13.072  21.346  0.00  0.00    +0.000 A 
ATOM     17  C   UNL     1      -4.191  12.556  22.473  0.00  0.00    +0.000 A 
ATOM     18  N   UNL     1      -4.140  13.088  23.720  0.00  0.00    +0.000 NA
ATOM     19  C   UNL     1      -3.342  14.159  23.882  0.00  0.00    +0.000 A 
ATOM     20  C   UNL     1      -2.564  14.689  22.868  0.00  0.00    +0.000 A 
ATOM     21  C   UNL     1      -2.648  14.136  21.580  0.00  0.00    +0.000 A 
ATOM     22  C   UNL     1      -1.746  14.693  20.511  0.00  0.00    +0.000 C 
ENDBRANCH  12  16
BRANCH   1  24
ATOM     23  C   UNL     1       0.311   9.599  23.240  0.00  0.00    +0.000 C 
ATOM     24  O   UNL     1       0.675  10.614  22.312  0.00  0.00    +0.000 OA
ENDBRANCH   1  24
BRANCH   3  25
ATOM     25  O   UNL     1       0.936   9.347  17.586  0.00  0.00    +0.000 OA
ATOM     26  C   UNL     1       2.158   8.652  17.788  0.00  0.00    +0.000 C 
ENDBRANCH   3  25
TORSDOF 3
ENDMDL
