MODEL 1
REMARK VINA RESULT:      -5.3      0.000      0.000
REMARK  Name = 
REMARK  3 active torsions:
REMARK  status: ('A' for Active; 'I' for Inactive)
REMARK    1  A    between atoms: N_1  and  C_2
REMARK    2  A    between atoms: C_2  and  C_3
REMARK    3  A    between atoms: C_3  and  C_4
REMARK                            x       y       z     vdW  Elec       q    Type
REMARK                         _______ _______ _______ _____ _____    ______ ____
ROOT
ATOM      1  C   UNL     1       3.239   3.088  19.073  0.00  0.00    +0.000 A 
ATOM      2  C   UNL     1       3.585   2.541  20.316  0.00  0.00    +0.000 A 
ATOM      3  F   UNL     1       4.813   2.038  20.502  0.00  0.00    +0.000 F 
ATOM      4  C   UNL     1       2.688   2.505  21.380  0.00  0.00    +0.000 A 
ATOM      5  C   UNL     1       1.411   3.031  21.224  0.00  0.00    +0.000 A 
ATOM      6  C   UNL     1       1.042   3.591  20.002  0.00  0.00    +0.000 A 
ATOM      7  C   UNL     1       1.949   3.621  18.934  0.00  0.00    +0.000 A 
ATOM      8 CL   UNL     1       1.415   4.344  17.458  0.00  0.00    +0.000 Cl
ENDROOT
BRANCH   1   9
ATOM      9  C   UNL     1       4.268   3.105  17.968  0.00  0.00    +0.000 C 
BRANCH   9  10
ATOM     10  C   UNL     1       5.140   4.364  18.019  0.00  0.00    +0.000 C 
BRANCH  10  11
ATOM     11  N   UNL     1       6.561   4.020  18.023  0.00  0.00    +0.000 NA
ATOM     12  H   UNL     1       6.887   3.946  18.987  0.00  0.00    +0.000 HD
ATOM     13  H   UNL     1       7.099   4.777  17.601  0.00  0.00    +0.000 HD
ENDBRANCH  10  11
ENDBRANCH   9  10
ENDBRANCH   1   9
TORSDOF 3
ENDMDL
MODEL 2
REMARK VINA RESULT:      -5.2      2.228      2.657
REMARK  Name = 
REMARK  3 active torsions:
REMARK  status: ('A' for Active; 'I' for Inactive)
REMARK    1  A    between atoms: N_1  and  C_2
REMARK    2  A    between atoms: C_2  and  C_3
REMARK    3  A    between atoms: C_3  and  C_4
REMARK                            x       y       z     vdW  Elec       q    Type
REMARK                         _______ _______ _______ _____ _____    ______ ____
ROOT
ATOM      1  C   UNL     1       2.889   3.127  18.915  0.00  0.00    +0.000 A 
ATOM      2  C   UNL     1       1.628   3.737  18.886  0.00  0.00    +0.000 A 
ATOM      3  F   UNL     1       1.148   4.219  17.731  0.00  0.00    +0.000 F 
ATOM      4  C   UNL     1       0.842   3.860  20.029  0.00  0.00    +0.000 A 
ATOM      5  C   UNL     1       1.304   3.359  21.241  0.00  0.00    +0.000 A 
ATOM      6  C   UNL     1       2.551   2.737  21.298  0.00  0.00    +0.000 A 
ATOM      7  C   UNL     1       3.337   2.619  20.144  0.00  0.00    +0.000 A 
ATOM      8 CL   UNL     1       4.863   1.824  20.300  0.00  0.00    +0.000 Cl
ENDROOT
BRANCH   1   9
ATOM      9  C   UNL     1       3.679   3.017  17.634  0.00  0.00    +0.000 C 
BRANCH   9  10
ATOM     10  C   UNL     1       4.540   4.261  17.385  0.00  0.00    +0.000 C 
BRANCH  10  11
ATOM     11  N   UNL     1       5.948   3.992  17.673  0.00  0.00    +0.000 NA
ATOM     12  H   UNL     1       6.515   4.264  16.870  0.00  0.00    +0.000 HD
ATOM     13  H   UNL     1       6.089   2.988  17.791  0.00  0.00    +0.000 HD
ENDBRANCH  10  11
ENDBRANCH   9  10
ENDBRANCH   1   9
TORSDOF 3
ENDMDL
MODEL 3
REMARK VINA RESULT:      -5.1      2.934      4.125
REMARK  Name = 
REMARK  3 active torsions:
REMARK  status: ('A' for Active; 'I' for Inactive)
REMARK    1  A    between atoms: N_1  and  C_2
REMARK    2  A    between atoms: C_2  and  C_3
REMARK    3  A    between atoms: C_3  and  C_4
REMARK                            x       y       z     vdW  Elec       q    Type
REMARK                         _______ _______ _______ _____ _____    ______ ____
ROOT
ATOM      1  C   UNL     1       1.870   4.365  19.373  0.00  0.00    +0.000 A 
ATOM      2  C   UNL     1       2.132   5.684  19.767  0.00  0.00    +0.000 A 
ATOM      3  F   UNL     1       1.534   6.185  20.857  0.00  0.00    +0.000 F 
ATOM      4  C   UNL     1       3.006   6.505  19.059  0.00  0.00    +0.000 A 
ATOM      5  C   UNL     1       3.653   6.012  17.931  0.00  0.00    +0.000 A 
ATOM      6  C   UNL     1       3.419   4.700  17.522  0.00  0.00    +0.000 A 
ATOM      7  C   UNL     1       2.536   3.881  18.238  0.00  0.00    +0.000 A 
ATOM      8 CL   UNL     1       2.314   2.264  17.669  0.00  0.00    +0.000 Cl
ENDROOT
BRANCH   1   9
ATOM      9  C   UNL     1       0.920   3.530  20.198  0.00  0.00    +0.000 C 
BRANCH   9  10
ATOM     10  C   UNL     1       1.662   2.504  21.060  0.00  0.00    +0.000 C 
BRANCH  10  11
ATOM     11  N   UNL     1       2.285   3.143  22.219  0.00  0.00    +0.000 NA
ATOM     12  H   UNL     1       1.682   3.025  23.033  0.00  0.00    +0.000 HD
ATOM     13  H   UNL     1       2.352   4.149  22.061  0.00  0.00    +0.000 HD
ENDBRANCH  10  11
ENDBRANCH   9  10
ENDBRANCH   1   9
TORSDOF 3
ENDMDL
MODEL 4
REMARK VINA RESULT:      -5.1      2.040      2.100
REMARK  Name = 
REMARK  3 active torsions:
REMARK  status: ('A' for Active; 'I' for Inactive)
REMARK    1  A    between atoms: N_1  and  C_2
REMARK    2  A    between atoms: C_2  and  C_3
REMARK    3  A    between atoms: C_3  and  C_4
REMARK                            x       y       z     vdW  Elec       q    Type
REMARK                         _______ _______ _______ _____ _____    ______ ____
ROOT
ATOM      1  C   UNL     1       2.710   4.079  18.364  0.00  0.00    +0.000 A 
ATOM      2  C   UNL     1       2.227   2.764  18.315  0.00  0.00    +0.000 A 
ATOM      3  F   UNL     1       2.689   1.920  17.382  0.00  0.00    +0.000 F 
ATOM      4  C   UNL     1       1.275   2.294  19.216  0.00  0.00    +0.000 A 
ATOM      5  C   UNL     1       0.785   3.141  20.205  0.00  0.00    +0.000 A 
ATOM      6  C   UNL     1       1.255   4.450  20.284  0.00  0.00    +0.000 A 
ATOM      7  C   UNL     1       2.211   4.917  19.372  0.00  0.00    +0.000 A 
ATOM      8 CL   UNL     1       2.748   6.550  19.549  0.00  0.00    +0.000 Cl
ENDROOT
BRANCH   1   9
ATOM      9  C   UNL     1       3.752   4.514  17.362  0.00  0.00    +0.000 C 
BRANCH   9  10
ATOM     10  C   UNL     1       5.126   4.706  18.014  0.00  0.00    +0.000 C 
BRANCH  10  11
ATOM     11  N   UNL     1       5.524   3.514  18.763  0.00  0.00    +0.000 NA
ATOM     12  H   UNL     1       5.213   3.605  19.730  0.00  0.00    +0.000 HD
ATOM     13  H   UNL     1       6.542   3.455  18.799  0.00  0.00    +0.000 HD
ENDBRANCH  10  11
ENDBRANCH   9  10
ENDBRANCH   1   9
TORSDOF 3
ENDMDL
MODEL 5
REMARK VINA RESULT:      -5.1      2.680      4.034
REMARK  Name = 
REMARK  3 active torsions:
REMARK  status: ('A' for Active; 'I' for Inactive)
REMARK    1  A    between atoms: N_1  and  C_2
REMARK    2  A    between atoms: C_2  and  C_3
REMARK    3  A    between atoms: C_3  and  C_4
REMARK                            x       y       z     vdW  Elec       q    Type
REMARK                         _______ _______ _______ _____ _____    ______ ____
ROOT
ATOM      1  C   UNL     1       2.019   4.073  18.991  0.00  0.00    +0.000 A 
ATOM      2  C   UNL     1       2.533   3.283  17.954  0.00  0.00    +0.000 A 
ATOM      3  F   UNL     1       2.074   2.037  17.776  0.00  0.00    +0.000 F 
ATOM      4  C   UNL     1       3.514   3.755  17.086  0.00  0.00    +0.000 A 
ATOM      5  C   UNL     1       4.002   5.049  17.234  0.00  0.00    +0.000 A 
ATOM      6  C   UNL     1       3.502   5.860  18.251  0.00  0.00    +0.000 A 
ATOM      7  C   UNL     1       2.516   5.378  19.122  0.00  0.00    +0.000 A 
ATOM      8 CL   UNL     1       1.942   6.454  20.347  0.00  0.00    +0.000 Cl
ENDROOT
BRANCH   1   9
ATOM      9  C   UNL     1       0.946   3.499  19.886  0.00  0.00    +0.000 C 
BRANCH   9  10
ATOM     10  C   UNL     1       1.527   2.543  20.934  0.00  0.00    +0.000 C 
BRANCH  10  11
ATOM     11  N   UNL     1       2.123   3.282  22.046  0.00  0.00    +0.000 NA
ATOM     12  H   UNL     1       3.139   3.224  21.984  0.00  0.00    +0.000 HD
ATOM     13  H   UNL     1       1.868   2.837  22.929  0.00  0.00    +0.000 HD
ENDBRANCH  10  11
ENDBRANCH   9  10
ENDBRANCH   1   9
TORSDOF 3
ENDMDL
MODEL 6
REMARK VINA RESULT:      -5.1      2.135      2.406
REMARK  Name = 
REMARK  3 active torsions:
REMARK  status: ('A' for Active; 'I' for Inactive)
REMARK    1  A    between atoms: N_1  and  C_2
REMARK    2  A    between atoms: C_2  and  C_3
REMARK    3  A    between atoms: C_3  and  C_4
REMARK                            x       y       z     vdW  Elec       q    Type
REMARK                         _______ _______ _______ _____ _____    ______ ____
ROOT
ATOM      1  C   UNL     1       2.975   4.385  18.728  0.00  0.00    +0.000 A 
ATOM      2  C   UNL     1       2.386   5.324  19.585  0.00  0.00    +0.000 A 
ATOM      3  F   UNL     1       2.686   6.624  19.455  0.00  0.00    +0.000 F 
ATOM      4  C   UNL     1       1.486   4.952  20.580  0.00  0.00    +0.000 A 
ATOM      5  C   UNL     1       1.143   3.613  20.734  0.00  0.00    +0.000 A 
ATOM      6  C   UNL     1       1.705   2.658  19.888  0.00  0.00    +0.000 A 
ATOM      7  C   UNL     1       2.612   3.040  18.891  0.00  0.00    +0.000 A 
ATOM      8 CL   UNL     1       3.252   1.794  17.878  0.00  0.00    +0.000 Cl
ENDROOT
BRANCH   1   9
ATOM      9  C   UNL     1       3.932   4.864  17.664  0.00  0.00    +0.000 C 
BRANCH   9  10
ATOM     10  C   UNL     1       5.317   5.180  18.241  0.00  0.00    +0.000 C 
BRANCH  10  11
ATOM     11  N   UNL     1       6.056   3.954  18.536  0.00  0.00    +0.000 NA
ATOM     12  H   UNL     1       5.877   3.676  19.501  0.00  0.00    +0.000 HD
ATOM     13  H   UNL     1       7.058   4.134  18.476  0.00  0.00    +0.000 HD
ENDBRANCH  10  11
ENDBRANCH   9  10
ENDBRANCH   1   9
TORSDOF 3
ENDMDL
MODEL 7
REMARK VINA RESULT:      -5.0      2.096      2.308
REMARK  Name = 
REMARK  3 active torsions:
REMARK  status: ('A' for Active; 'I' for Inactive)
REMARK    1  A    between atoms: N_1  and  C_2
REMARK    2  A    between atoms: C_2  and  C_3
REMARK    3  A    between atoms: C_3  and  C_4
REMARK                            x       y       z     vdW  Elec       q    Type
REMARK                         _______ _______ _______ _____ _____    ______ ____
ROOT
ATOM      1  C   UNL     1       3.023   4.372  18.621  0.00  0.00    +0.000 A 
ATOM      2  C   UNL     1       2.988   3.142  17.952  0.00  0.00    +0.000 A 
ATOM      3  F   UNL     1       3.956   2.831  17.078  0.00  0.00    +0.000 F 
ATOM      4  C   UNL     1       1.971   2.214  18.167  0.00  0.00    +0.000 A 
ATOM      5  C   UNL     1       0.959   2.500  19.077  0.00  0.00    +0.000 A 
ATOM      6  C   UNL     1       0.975   3.712  19.765  0.00  0.00    +0.000 A 
ATOM      7  C   UNL     1       2.000   4.641  19.541  0.00  0.00    +0.000 A 
ATOM      8 CL   UNL     1       1.949   6.113  20.445  0.00  0.00    +0.000 Cl
ENDROOT
BRANCH   1   9
ATOM      9  C   UNL     1       4.164   5.322  18.347  0.00  0.00    +0.000 C 
BRANCH   9  10
ATOM     10  C   UNL     1       5.369   5.045  19.252  0.00  0.00    +0.000 C 
BRANCH  10  11
ATOM     11  N   UNL     1       6.379   4.249  18.555  0.00  0.00    +0.000 NA
ATOM     12  H   UNL     1       6.847   4.831  17.861  0.00  0.00    +0.000 HD
ATOM     13  H   UNL     1       5.925   3.499  18.034  0.00  0.00    +0.000 HD
ENDBRANCH  10  11
ENDBRANCH   9  10
ENDBRANCH   1   9
TORSDOF 3
ENDMDL
MODEL 8
REMARK VINA RESULT:      -5.0      2.965      4.127
REMARK  Name = 
REMARK  3 active torsions:
REMARK  status: ('A' for Active; 'I' for Inactive)
REMARK    1  A    between atoms: N_1  and  C_2
REMARK    2  A    between atoms: C_2  and  C_3
REMARK    3  A    between atoms: C_3  and  C_4
REMARK                            x       y       z     vdW  Elec       q    Type
REMARK                         _______ _______ _______ _____ _____    ______ ____
ROOT
ATOM      1  C   UNL     1       3.267   4.303  17.523  0.00  0.00    +0.000 A 
ATOM      2  C   UNL     1       2.414   5.185  18.200  0.00  0.00    +0.000 A 
ATOM      3  F   UNL     1       1.326   4.712  18.823  0.00  0.00    +0.000 F 
ATOM      4  C   UNL     1       2.661   6.554  18.252  0.00  0.00    +0.000 A 
ATOM      5  C   UNL     1       3.788   7.076  17.627  0.00  0.00    +0.000 A 
ATOM      6  C   UNL     1       4.660   6.221  16.956  0.00  0.00    +0.000 A 
ATOM      7  C   UNL     1       4.404   4.844  16.905  0.00  0.00    +0.000 A 
ATOM      8 CL   UNL     1       5.543   3.854  16.063  0.00  0.00    +0.000 Cl
ENDROOT
BRANCH   1   9
ATOM      9  C   UNL     1       2.942   2.828  17.520  0.00  0.00    +0.000 C 
BRANCH   9  10
ATOM     10  C   UNL     1       3.544   2.108  18.732  0.00  0.00    +0.000 C 
BRANCH  10  11
ATOM     11  N   UNL     1       4.028   0.778  18.366  0.00  0.00    +0.000 NA
ATOM     12  H   UNL     1       3.254   0.227  17.995  0.00  0.00    +0.000 HD
ATOM     13  H   UNL     1       4.348   0.287  19.201  0.00  0.00    +0.000 HD
ENDBRANCH  10  11
ENDBRANCH   9  10
ENDBRANCH   1   9
TORSDOF 3
ENDMDL
MODEL 9
REMARK VINA RESULT:      -5.0      2.753      3.970
REMARK  Name = 
REMARK  3 active torsions:
REMARK  status: ('A' for Active; 'I' for Inactive)
REMARK    1  A    between atoms: N_1  and  C_2
REMARK    2  A    between atoms: C_2  and  C_3
REMARK    3  A    between atoms: C_3  and  C_4
REMARK                            x       y       z     vdW  Elec       q    Type
REMARK                         _______ _______ _______ _____ _____    ______ ____
ROOT
ATOM      1  C   UNL     1       2.331   4.250  19.296  0.00  0.00    +0.000 A 
ATOM      2  C   UNL     1       3.449   5.035  18.985  0.00  0.00    +0.000 A 
ATOM      3  F   UNL     1       3.864   5.974  19.847  0.00  0.00    +0.000 F 
ATOM      4  C   UNL     1       4.157   4.871  17.797  0.00  0.00    +0.000 A 
ATOM      5  C   UNL     1       3.761   3.897  16.887  0.00  0.00    +0.000 A 
ATOM      6  C   UNL     1       2.659   3.094  17.176  0.00  0.00    +0.000 A 
ATOM      7  C   UNL     1       1.950   3.267  18.372  0.00  0.00    +0.000 A 
ATOM      8 CL   UNL     1       0.603   2.221  18.656  0.00  0.00    +0.000 Cl
ENDROOT
BRANCH   1   9
ATOM      9  C   UNL     1       1.621   4.476  20.609  0.00  0.00    +0.000 C 
BRANCH   9  10
ATOM     10  C   UNL     1       2.267   3.686  21.752  0.00  0.00    +0.000 C 
BRANCH  10  11
ATOM     11  N   UNL     1       1.502   2.476  22.054  0.00  0.00    +0.000 NA
ATOM     12  H   UNL     1       0.561   2.569  21.673  0.00  0.00    +0.000 HD
ATOM     13  H   UNL     1       1.390   2.385  23.064  0.00  0.00    +0.000 HD
ENDBRANCH  10  11
ENDBRANCH   9  10
ENDBRANCH   1   9
TORSDOF 3
ENDMDL
