MODEL 1
REMARK VINA RESULT:      -9.5      0.000      0.000
REMARK  Name = 
REMARK  8 active torsions:
REMARK  status: ('A' for Active; 'I' for Inactive)
REMARK    1  A    between atoms: C_1  and  C_2
REMARK    2  A    between atoms: C_5  and  N_6
REMARK    3  A    between atoms: N_6  and  S_7
REMARK    4  A    between atoms: S_7  and  C_10
REMARK    5  A    between atoms: C_13  and  C_14
REMARK    6  A    between atoms: C_14  and  N_15
REMARK    7  A    between atoms: C_24  and  C_25
REMARK    8  A    between atoms: C_27  and  C_28
REMARK                            x       y       z     vdW  Elec       q    Type
REMARK                         _______ _______ _______ _____ _____    ______ ____
ROOT
ATOM      1  C   UNL     1       5.469   5.372  18.147  0.00  0.00    +0.000 A 
ATOM      2  C   UNL     1       5.189   4.128  18.766  0.00  0.00    +0.000 A 
ATOM      3  C   UNL     1       3.893   3.632  18.921  0.00  0.00    +0.000 A 
ATOM      4  C   UNL     1       3.524   2.352  19.569  0.00  0.00    +0.000 A 
ATOM      5  C   UNL     1       2.214   2.063  19.642  0.00  0.00    +0.000 A 
ATOM      6  C   UNL     1       1.133   2.928  19.150  0.00  0.00    +0.000 A 
ATOM      7  O   UNL     1      -0.038   2.604  19.286  0.00  0.00    +0.000 OA
ATOM      8  O   UNL     1       1.515   4.097  18.527  0.00  0.00    +0.000 OA
ATOM      9  C   UNL     1       2.873   4.446  18.417  0.00  0.00    +0.000 A 
ATOM     10  C   UNL     1       3.117   5.665  17.777  0.00  0.00    +0.000 A 
ATOM     11  C   UNL     1       4.424   6.147  17.605  0.00  0.00    +0.000 A 
ATOM     12  C   UNL     1       4.562   7.454  16.877  0.00  0.00    +0.000 C 
ENDROOT
BRANCH   1  13
ATOM     13  S   UNL     1       7.221   5.766  18.069  0.00  0.00    +0.000 S 
ATOM     14  O   UNL     1       7.813   5.433  19.328  0.00  0.00    +0.000 OA
ATOM     15  O   UNL     1       7.298   7.128  17.533  0.00  0.00    +0.000 OA
BRANCH  13  16
ATOM     16  N   UNL     1       7.884   4.776  16.865  0.00  0.00    +0.000 N 
ATOM     17  H   UNL     1       8.891   4.648  16.857  0.00  0.00    +0.000 HD
BRANCH  16  22
ATOM     18  C   UNL     1       5.226   3.468  11.968  0.00  0.00    +0.000 C 
ATOM     19  C   UNL     1       5.901   3.872  13.252  0.00  0.00    +0.000 A 
ATOM     20  C   UNL     1       5.402   3.390  14.472  0.00  0.00    +0.000 A 
ATOM     21  C   UNL     1       6.027   3.706  15.681  0.00  0.00    +0.000 A 
ATOM     22  C   UNL     1       7.170   4.496  15.669  0.00  0.00    +0.000 A 
ATOM     23  C   UNL     1       7.654   5.011  14.470  0.00  0.00    +0.000 A 
ATOM     24  C   UNL     1       7.031   4.706  13.252  0.00  0.00    +0.000 A 
ATOM     25  C   UNL     1       7.606   5.264  11.980  0.00  0.00    +0.000 C 
ENDBRANCH  16  22
ENDBRANCH  13  16
ENDBRANCH   1  13
BRANCH   4  26
ATOM     26  C   UNL     1       4.508   1.317  20.082  0.00  0.00    +0.000 C 
BRANCH  26  27
ATOM     27  N   UNL     1       5.120   1.724  21.355  0.00  0.00    +0.000 NA
ATOM     28  N   UNL     1       5.872   0.900  21.907  0.00  0.00    +0.000 NA
ATOM     29  N   UNL     1       6.577   0.157  22.431  0.00  0.00    +0.000 NA
ENDBRANCH  26  27
ENDBRANCH   4  26
TORSDOF 5
ENDMDL
MODEL 2
REMARK VINA RESULT:      -9.2      3.682      7.138
REMARK  Name = 
REMARK  8 active torsions:
REMARK  status: ('A' for Active; 'I' for Inactive)
REMARK    1  A    between atoms: C_1  and  C_2
REMARK    2  A    between atoms: C_5  and  N_6
REMARK    3  A    between atoms: N_6  and  S_7
REMARK    4  A    between atoms: S_7  and  C_10
REMARK    5  A    between atoms: C_13  and  C_14
REMARK    6  A    between atoms: C_14  and  N_15
REMARK    7  A    between atoms: C_24  and  C_25
REMARK    8  A    between atoms: C_27  and  C_28
REMARK                            x       y       z     vdW  Elec       q    Type
REMARK                         _______ _______ _______ _____ _____    ______ ____
ROOT
ATOM      1  C   UNL     1       2.848   4.533  18.958  0.00  0.00    +0.000 A 
ATOM      2  C   UNL     1       3.947   5.314  18.522  0.00  0.00    +0.000 A 
ATOM      3  C   UNL     1       4.670   5.027  17.362  0.00  0.00    +0.000 A 
ATOM      4  C   UNL     1       5.835   5.788  16.853  0.00  0.00    +0.000 A 
ATOM      5  C   UNL     1       6.412   5.336  15.728  0.00  0.00    +0.000 A 
ATOM      6  C   UNL     1       5.988   4.140  14.986  0.00  0.00    +0.000 A 
ATOM      7  O   UNL     1       6.589   3.778  13.986  0.00  0.00    +0.000 OA
ATOM      8  O   UNL     1       4.883   3.474  15.473  0.00  0.00    +0.000 OA
ATOM      9  C   UNL     1       4.236   3.908  16.644  0.00  0.00    +0.000 A 
ATOM     10  C   UNL     1       3.140   3.132  17.033  0.00  0.00    +0.000 A 
ATOM     11  C   UNL     1       2.404   3.440  18.187  0.00  0.00    +0.000 A 
ATOM     12  C   UNL     1       1.230   2.550  18.486  0.00  0.00    +0.000 C 
ENDROOT
BRANCH   1  13
ATOM     13  S   UNL     1       2.091   5.128  20.476  0.00  0.00    +0.000 S 
ATOM     14  O   UNL     1       2.583   4.338  21.563  0.00  0.00    +0.000 OA
ATOM     15  O   UNL     1       0.655   5.217  20.195  0.00  0.00    +0.000 OA
BRANCH  13  16
ATOM     16  N   UNL     1       2.605   6.729  20.675  0.00  0.00    +0.000 N 
ATOM     17  H   UNL     1       3.262   6.926  21.423  0.00  0.00    +0.000 HD
BRANCH  16  22
ATOM     18  C   UNL     1      -0.248  11.279  18.697  0.00  0.00    +0.000 C 
ATOM     19  C   UNL     1       0.447  10.049  19.219  0.00  0.00    +0.000 A 
ATOM     20  C   UNL     1       1.253   9.295  18.352  0.00  0.00    +0.000 A 
ATOM     21  C   UNL     1       1.949   8.173  18.810  0.00  0.00    +0.000 A 
ATOM     22  C   UNL     1       1.853   7.813  20.148  0.00  0.00    +0.000 A 
ATOM     23  C   UNL     1       1.028   8.530  21.010  0.00  0.00    +0.000 A 
ATOM     24  C   UNL     1       0.320   9.653  20.561  0.00  0.00    +0.000 A 
ATOM     25  C   UNL     1      -0.537  10.412  21.535  0.00  0.00    +0.000 C 
ENDBRANCH  16  22
ENDBRANCH  13  16
ENDBRANCH   1  13
BRANCH   4  26
ATOM     26  C   UNL     1       6.372   7.071  17.459  0.00  0.00    +0.000 C 
BRANCH  26  27
ATOM     27  N   UNL     1       7.648   6.858  18.157  0.00  0.00    +0.000 NA
ATOM     28  N   UNL     1       7.637   6.073  19.123  0.00  0.00    +0.000 NA
ATOM     29  N   UNL     1       7.652   5.346  20.014  0.00  0.00    +0.000 NA
ENDBRANCH  26  27
ENDBRANCH   4  26
TORSDOF 5
ENDMDL
MODEL 3
REMARK VINA RESULT:      -9.2      3.376      7.345
REMARK  Name = 
REMARK  8 active torsions:
REMARK  status: ('A' for Active; 'I' for Inactive)
REMARK    1  A    between atoms: C_1  and  C_2
REMARK    2  A    between atoms: C_5  and  N_6
REMARK    3  A    between atoms: N_6  and  S_7
REMARK    4  A    between atoms: S_7  and  C_10
REMARK    5  A    between atoms: C_13  and  C_14
REMARK    6  A    between atoms: C_14  and  N_15
REMARK    7  A    between atoms: C_24  and  C_25
REMARK    8  A    between atoms: C_27  and  C_28
REMARK                            x       y       z     vdW  Elec       q    Type
REMARK                         _______ _______ _______ _____ _____    ______ ____
ROOT
ATOM      1  C   UNL     1       5.139   3.911  17.304  0.00  0.00    +0.000 A 
ATOM      2  C   UNL     1       5.107   3.592  15.924  0.00  0.00    +0.000 A 
ATOM      3  C   UNL     1       5.997   4.141  14.997  0.00  0.00    +0.000 A 
ATOM      4  C   UNL     1       6.014   3.867  13.541  0.00  0.00    +0.000 A 
ATOM      5  C   UNL     1       6.937   4.515  12.812  0.00  0.00    +0.000 A 
ATOM      6  C   UNL     1       7.905   5.482  13.347  0.00  0.00    +0.000 A 
ATOM      7  O   UNL     1       8.692   6.054  12.607  0.00  0.00    +0.000 OA
ATOM      8  O   UNL     1       7.879   5.690  14.709  0.00  0.00    +0.000 OA
ATOM      9  C   UNL     1       6.938   5.033  15.522  0.00  0.00    +0.000 A 
ATOM     10  C   UNL     1       7.012   5.348  16.882  0.00  0.00    +0.000 A 
ATOM     11  C   UNL     1       6.129   4.776  17.810  0.00  0.00    +0.000 A 
ATOM     12  C   UNL     1       6.327   5.169  19.248  0.00  0.00    +0.000 C 
ENDROOT
BRANCH   1  13
ATOM     13  S   UNL     1       3.889   3.058  18.275  0.00  0.00    +0.000 S 
ATOM     14  O   UNL     1       4.297   3.074  19.646  0.00  0.00    +0.000 OA
ATOM     15  O   UNL     1       3.636   1.795  17.575  0.00  0.00    +0.000 OA
BRANCH  13  16
ATOM     16  N   UNL     1       2.460   3.951  18.110  0.00  0.00    +0.000 N 
ATOM     17  H   UNL     1       1.890   3.787  17.286  0.00  0.00    +0.000 HD
BRANCH  16  22
ATOM     18  C   UNL     1       1.441   8.893  20.811  0.00  0.00    +0.000 C 
ATOM     19  C   UNL     1       1.772   7.606  20.104  0.00  0.00    +0.000 A 
ATOM     20  C   UNL     1       1.633   6.389  20.790  0.00  0.00    +0.000 A 
ATOM     21  C   UNL     1       1.888   5.171  20.155  0.00  0.00    +0.000 A 
ATOM     22  C   UNL     1       2.268   5.168  18.818  0.00  0.00    +0.000 A 
ATOM     23  C   UNL     1       2.446   6.368  18.136  0.00  0.00    +0.000 A 
ATOM     24  C   UNL     1       2.200   7.596  18.765  0.00  0.00    +0.000 A 
ATOM     25  C   UNL     1       2.379   8.866  17.981  0.00  0.00    +0.000 C 
ENDBRANCH  16  22
ENDBRANCH  13  16
ENDBRANCH   1  13
BRANCH   4  26
ATOM     26  C   UNL     1       5.127   2.861  12.831  0.00  0.00    +0.000 C 
BRANCH  26  27
ATOM     27  N   UNL     1       5.641   2.519  11.498  0.00  0.00    +0.000 NA
ATOM     28  N   UNL     1       5.917   1.323  11.290  0.00  0.00    +0.000 NA
ATOM     29  N   UNL     1       6.170   0.222  11.073  0.00  0.00    +0.000 NA
ENDBRANCH  26  27
ENDBRANCH   4  26
TORSDOF 5
ENDMDL
MODEL 4
REMARK VINA RESULT:      -9.0      3.464      7.484
REMARK  Name = 
REMARK  8 active torsions:
REMARK  status: ('A' for Active; 'I' for Inactive)
REMARK    1  A    between atoms: C_1  and  C_2
REMARK    2  A    between atoms: C_5  and  N_6
REMARK    3  A    between atoms: N_6  and  S_7
REMARK    4  A    between atoms: S_7  and  C_10
REMARK    5  A    between atoms: C_13  and  C_14
REMARK    6  A    between atoms: C_14  and  N_15
REMARK    7  A    between atoms: C_24  and  C_25
REMARK    8  A    between atoms: C_27  and  C_28
REMARK                            x       y       z     vdW  Elec       q    Type
REMARK                         _______ _______ _______ _____ _____    ______ ____
ROOT
ATOM      1  C   UNL     1       5.139   3.953  17.383  0.00  0.00    +0.000 A 
ATOM      2  C   UNL     1       5.084   3.629  16.005  0.00  0.00    +0.000 A 
ATOM      3  C   UNL     1       5.967   4.163  15.064  0.00  0.00    +0.000 A 
ATOM      4  C   UNL     1       5.961   3.883  13.609  0.00  0.00    +0.000 A 
ATOM      5  C   UNL     1       6.881   4.517  12.864  0.00  0.00    +0.000 A 
ATOM      6  C   UNL     1       7.868   5.475  13.380  0.00  0.00    +0.000 A 
ATOM      7  O   UNL     1       8.651   6.034  12.627  0.00  0.00    +0.000 OA
ATOM      8  O   UNL     1       7.863   5.689  14.742  0.00  0.00    +0.000 OA
ATOM      9  C   UNL     1       6.926   5.046  15.571  0.00  0.00    +0.000 A 
ATOM     10  C   UNL     1       7.023   5.367  16.929  0.00  0.00    +0.000 A 
ATOM     11  C   UNL     1       6.146   4.809  17.871  0.00  0.00    +0.000 A 
ATOM     12  C   UNL     1       6.368   5.206  19.304  0.00  0.00    +0.000 C 
ENDROOT
BRANCH   1  13
ATOM     13  S   UNL     1       3.893   3.120  18.375  0.00  0.00    +0.000 S 
ATOM     14  O   UNL     1       4.301   3.171  19.745  0.00  0.00    +0.000 OA
ATOM     15  O   UNL     1       3.645   1.839  17.707  0.00  0.00    +0.000 OA
BRANCH  13  16
ATOM     16  N   UNL     1       2.460   4.002  18.189  0.00  0.00    +0.000 N 
ATOM     17  H   UNL     1       1.890   3.814  17.370  0.00  0.00    +0.000 HD
BRANCH  16  22
ATOM     18  C   UNL     1       1.425   9.010  20.760  0.00  0.00    +0.000 C 
ATOM     19  C   UNL     1       1.760   7.705  20.086  0.00  0.00    +0.000 A 
ATOM     20  C   UNL     1       1.624   6.507  20.804  0.00  0.00    +0.000 A 
ATOM     21  C   UNL     1       1.883   5.273  20.200  0.00  0.00    +0.000 A 
ATOM     22  C   UNL     1       2.264   5.236  18.865  0.00  0.00    +0.000 A 
ATOM     23  C   UNL     1       2.440   6.419  18.153  0.00  0.00    +0.000 A 
ATOM     24  C   UNL     1       2.189   7.663  18.749  0.00  0.00    +0.000 A 
ATOM     25  C   UNL     1       2.366   8.912  17.932  0.00  0.00    +0.000 C 
ENDBRANCH  16  22
ENDBRANCH  13  16
ENDBRANCH   1  13
BRANCH   4  26
ATOM     26  C   UNL     1       5.053   2.884  12.915  0.00  0.00    +0.000 C 
BRANCH  26  27
ATOM     27  N   UNL     1       5.124   2.999  11.452  0.00  0.00    +0.000 NA
ATOM     28  N   UNL     1       4.095   3.382  10.866  0.00  0.00    +0.000 NA
ATOM     29  N   UNL     1       3.158   3.741  10.304  0.00  0.00    +0.000 NA
ENDBRANCH  26  27
ENDBRANCH   4  26
TORSDOF 5
ENDMDL
MODEL 5
REMARK VINA RESULT:      -9.0      3.748      7.473
REMARK  Name = 
REMARK  8 active torsions:
REMARK  status: ('A' for Active; 'I' for Inactive)
REMARK    1  A    between atoms: C_1  and  C_2
REMARK    2  A    between atoms: C_5  and  N_6
REMARK    3  A    between atoms: N_6  and  S_7
REMARK    4  A    between atoms: S_7  and  C_10
REMARK    5  A    between atoms: C_13  and  C_14
REMARK    6  A    between atoms: C_14  and  N_15
REMARK    7  A    between atoms: C_24  and  C_25
REMARK    8  A    between atoms: C_27  and  C_28
REMARK                            x       y       z     vdW  Elec       q    Type
REMARK                         _______ _______ _______ _____ _____    ______ ____
ROOT
ATOM      1  C   UNL     1       2.857   4.370  19.061  0.00  0.00    +0.000 A 
ATOM      2  C   UNL     1       3.929   5.222  18.698  0.00  0.00    +0.000 A 
ATOM      3  C   UNL     1       4.712   5.015  17.560  0.00  0.00    +0.000 A 
ATOM      4  C   UNL     1       5.854   5.853  17.126  0.00  0.00    +0.000 A 
ATOM      5  C   UNL     1       6.498   5.472  16.011  0.00  0.00    +0.000 A 
ATOM      6  C   UNL     1       6.167   4.285  15.211  0.00  0.00    +0.000 A 
ATOM      7  O   UNL     1       6.826   3.992  14.225  0.00  0.00    +0.000 OA
ATOM      8  O   UNL     1       5.081   3.546  15.627  0.00  0.00    +0.000 OA
ATOM      9  C   UNL     1       4.366   3.903  16.785  0.00  0.00    +0.000 A 
ATOM     10  C   UNL     1       3.297   3.058  17.102  0.00  0.00    +0.000 A 
ATOM     11  C   UNL     1       2.502   3.284  18.235  0.00  0.00    +0.000 A 
ATOM     12  C   UNL     1       1.365   2.326  18.454  0.00  0.00    +0.000 C 
ENDROOT
BRANCH   1  13
ATOM     13  S   UNL     1       2.011   4.868  20.566  0.00  0.00    +0.000 S 
ATOM     14  O   UNL     1       2.429   4.003  21.626  0.00  0.00    +0.000 OA
ATOM     15  O   UNL     1       0.596   4.990  20.203  0.00  0.00    +0.000 OA
BRANCH  13  16
ATOM     16  N   UNL     1       2.521   6.447  20.904  0.00  0.00    +0.000 N 
ATOM     17  H   UNL     1       3.083   6.596  21.736  0.00  0.00    +0.000 HD
BRANCH  16  22
ATOM     18  C   UNL     1       0.016  11.145  18.802  0.00  0.00    +0.000 C 
ATOM     19  C   UNL     1       0.618   9.879  19.352  0.00  0.00    +0.000 A 
ATOM     20  C   UNL     1       1.448   9.099  18.532  0.00  0.00    +0.000 A 
ATOM     21  C   UNL     1       2.060   7.942  19.020  0.00  0.00    +0.000 A 
ATOM     22  C   UNL     1       1.856   7.570  20.343  0.00  0.00    +0.000 A 
ATOM     23  C   UNL     1       1.005   8.314  21.157  0.00  0.00    +0.000 A 
ATOM     24  C   UNL     1       0.380   9.473  20.676  0.00  0.00    +0.000 A 
ATOM     25  C   UNL     1      -0.508  10.259  21.600  0.00  0.00    +0.000 C 
ENDBRANCH  16  22
ENDBRANCH  13  16
ENDBRANCH   1  13
BRANCH   4  26
ATOM     26  C   UNL     1       6.299   7.139  17.798  0.00  0.00    +0.000 C 
BRANCH  26  27
ATOM     27  N   UNL     1       7.464   7.735  17.129  0.00  0.00    +0.000 NA
ATOM     28  N   UNL     1       8.012   8.695  17.701  0.00  0.00    +0.000 NA
ATOM     29  N   UNL     1       8.539   9.578  18.216  0.00  0.00    +0.000 NA
ENDBRANCH  26  27
ENDBRANCH   4  26
TORSDOF 5
ENDMDL
MODEL 6
REMARK VINA RESULT:      -8.9      3.503      7.552
REMARK  Name = 
REMARK  8 active torsions:
REMARK  status: ('A' for Active; 'I' for Inactive)
REMARK    1  A    between atoms: C_1  and  C_2
REMARK    2  A    between atoms: C_5  and  N_6
REMARK    3  A    between atoms: N_6  and  S_7
REMARK    4  A    between atoms: S_7  and  C_10
REMARK    5  A    between atoms: C_13  and  C_14
REMARK    6  A    between atoms: C_14  and  N_15
REMARK    7  A    between atoms: C_24  and  C_25
REMARK    8  A    between atoms: C_27  and  C_28
REMARK                            x       y       z     vdW  Elec       q    Type
REMARK                         _______ _______ _______ _____ _____    ______ ____
ROOT
ATOM      1  C   UNL     1       4.988   4.271  17.471  0.00  0.00    +0.000 A 
ATOM      2  C   UNL     1       4.867   3.963  16.093  0.00  0.00    +0.000 A 
ATOM      3  C   UNL     1       5.802   4.371  15.139  0.00  0.00    +0.000 A 
ATOM      4  C   UNL     1       5.735   4.099  13.684  0.00  0.00    +0.000 A 
ATOM      5  C   UNL     1       6.723   4.600  12.925  0.00  0.00    +0.000 A 
ATOM      6  C   UNL     1       7.842   5.408  13.428  0.00  0.00    +0.000 A 
ATOM      7  O   UNL     1       8.685   5.854  12.663  0.00  0.00    +0.000 OA
ATOM      8  O   UNL     1       7.889   5.616  14.790  0.00  0.00    +0.000 OA
ATOM      9  C   UNL     1       6.883   5.109  15.632  0.00  0.00    +0.000 A 
ATOM     10  C   UNL     1       7.045   5.407  16.989  0.00  0.00    +0.000 A 
ATOM     11  C   UNL     1       6.113   4.975  17.944  0.00  0.00    +0.000 A 
ATOM     12  C   UNL     1       6.411   5.332  19.374  0.00  0.00    +0.000 C 
ENDROOT
BRANCH   1  13
ATOM     13  S   UNL     1       3.653   3.617  18.481  0.00  0.00    +0.000 S 
ATOM     14  O   UNL     1       4.118   2.428  19.126  0.00  0.00    +0.000 OA
ATOM     15  O   UNL     1       2.472   3.595  17.612  0.00  0.00    +0.000 OA
BRANCH  13  16
ATOM     16  N   UNL     1       3.319   4.791  19.655  0.00  0.00    +0.000 N 
ATOM     17  H   UNL     1       3.189   4.480  20.613  0.00  0.00    +0.000 HD
BRANCH  16  22
ATOM     18  C   UNL     1       1.440  10.044  18.379  0.00  0.00    +0.000 C 
ATOM     19  C   UNL     1       1.874   8.641  18.710  0.00  0.00    +0.000 A 
ATOM     20  C   UNL     1       2.573   7.893  17.750  0.00  0.00    +0.000 A 
ATOM     21  C   UNL     1       3.031   6.604  18.035  0.00  0.00    +0.000 A 
ATOM     22  C   UNL     1       2.803   6.065  19.295  0.00  0.00    +0.000 A 
ATOM     23  C   UNL     1       2.077   6.780  20.243  0.00  0.00    +0.000 A 
ATOM     24  C   UNL     1       1.608   8.071  19.967  0.00  0.00    +0.000 A 
ATOM     25  C   UNL     1       0.853   8.817  21.032  0.00  0.00    +0.000 C 
ENDBRANCH  16  22
ENDBRANCH  13  16
ENDBRANCH   1  13
BRANCH   4  26
ATOM     26  C   UNL     1       4.684   3.241  13.004  0.00  0.00    +0.000 C 
BRANCH  26  27
ATOM     27  N   UNL     1       4.904   3.148  11.554  0.00  0.00    +0.000 NA
ATOM     28  N   UNL     1       3.963   3.498  10.818  0.00  0.00    +0.000 NA
ATOM     29  N   UNL     1       3.109   3.824  10.119  0.00  0.00    +0.000 NA
ENDBRANCH  26  27
ENDBRANCH   4  26
TORSDOF 5
ENDMDL
MODEL 7
REMARK VINA RESULT:      -8.8      3.751      7.384
REMARK  Name = 
REMARK  8 active torsions:
REMARK  status: ('A' for Active; 'I' for Inactive)
REMARK    1  A    between atoms: C_1  and  C_2
REMARK    2  A    between atoms: C_5  and  N_6
REMARK    3  A    between atoms: N_6  and  S_7
REMARK    4  A    between atoms: S_7  and  C_10
REMARK    5  A    between atoms: C_13  and  C_14
REMARK    6  A    between atoms: C_14  and  N_15
REMARK    7  A    between atoms: C_24  and  C_25
REMARK    8  A    between atoms: C_27  and  C_28
REMARK                            x       y       z     vdW  Elec       q    Type
REMARK                         _______ _______ _______ _____ _____    ______ ____
ROOT
ATOM      1  C   UNL     1       2.705   4.383  19.077  0.00  0.00    +0.000 A 
ATOM      2  C   UNL     1       3.721   5.246  18.596  0.00  0.00    +0.000 A 
ATOM      3  C   UNL     1       4.444   4.990  17.429  0.00  0.00    +0.000 A 
ATOM      4  C   UNL     1       5.527   5.835  16.874  0.00  0.00    +0.000 A 
ATOM      5  C   UNL     1       6.120   5.404  15.750  0.00  0.00    +0.000 A 
ATOM      6  C   UNL     1       5.789   4.155  15.050  0.00  0.00    +0.000 A 
ATOM      7  O   UNL     1       6.401   3.818  14.047  0.00  0.00    +0.000 OA
ATOM      8  O   UNL     1       4.758   3.408  15.578  0.00  0.00    +0.000 OA
ATOM      9  C   UNL     1       4.097   3.817  16.751  0.00  0.00    +0.000 A 
ATOM     10  C   UNL     1       3.082   2.959  17.184  0.00  0.00    +0.000 A 
ATOM     11  C   UNL     1       2.345   3.233  18.346  0.00  0.00    +0.000 A 
ATOM     12  C   UNL     1       1.260   2.253  18.694  0.00  0.00    +0.000 C 
ENDROOT
BRANCH   1  13
ATOM     13  S   UNL     1       1.927   4.953  20.594  0.00  0.00    +0.000 S 
ATOM     14  O   UNL     1       2.341   4.094  21.661  0.00  0.00    +0.000 OA
ATOM     15  O   UNL     1       0.508   5.128  20.271  0.00  0.00    +0.000 OA
BRANCH  13  16
ATOM     16  N   UNL     1       2.515   6.515  20.879  0.00  0.00    +0.000 N 
ATOM     17  H   UNL     1       3.300   6.618  21.515  0.00  0.00    +0.000 HD
BRANCH  16  22
ATOM     18  C   UNL     1      -0.861  10.970  19.650  0.00  0.00    +0.000 C 
ATOM     19  C   UNL     1       0.076   9.839  19.984  0.00  0.00    +0.000 A 
ATOM     20  C   UNL     1      -0.065   9.169  21.209  0.00  0.00    +0.000 A 
ATOM     21  C   UNL     1       0.756   8.087  21.535  0.00  0.00    +0.000 A 
ATOM     22  C   UNL     1       1.713   7.660  20.624  0.00  0.00    +0.000 A 
ATOM     23  C   UNL     1       1.889   8.339  19.421  0.00  0.00    +0.000 A 
ATOM     24  C   UNL     1       1.076   9.430  19.086  0.00  0.00    +0.000 A 
ATOM     25  C   UNL     1       1.285  10.115  17.764  0.00  0.00    +0.000 C 
ENDBRANCH  16  22
ENDBRANCH  13  16
ENDBRANCH   1  13
BRANCH   4  26
ATOM     26  C   UNL     1       5.960   7.178  17.433  0.00  0.00    +0.000 C 
BRANCH  26  27
ATOM     27  N   UNL     1       7.357   7.489  17.099  0.00  0.00    +0.000 NA
ATOM     28  N   UNL     1       7.830   8.538  17.573  0.00  0.00    +0.000 NA
ATOM     29  N   UNL     1       8.290   9.499  18.007  0.00  0.00    +0.000 NA
ENDBRANCH  26  27
ENDBRANCH   4  26
TORSDOF 5
ENDMDL
MODEL 8
REMARK VINA RESULT:      -8.8      3.588      7.042
REMARK  Name = 
REMARK  8 active torsions:
REMARK  status: ('A' for Active; 'I' for Inactive)
REMARK    1  A    between atoms: C_1  and  C_2
REMARK    2  A    between atoms: C_5  and  N_6
REMARK    3  A    between atoms: N_6  and  S_7
REMARK    4  A    between atoms: S_7  and  C_10
REMARK    5  A    between atoms: C_13  and  C_14
REMARK    6  A    between atoms: C_14  and  N_15
REMARK    7  A    between atoms: C_24  and  C_25
REMARK    8  A    between atoms: C_27  and  C_28
REMARK                            x       y       z     vdW  Elec       q    Type
REMARK                         _______ _______ _______ _____ _____    ______ ____
ROOT
ATOM      1  C   UNL     1       2.779   4.371  19.030  0.00  0.00    +0.000 A 
ATOM      2  C   UNL     1       3.825   5.221  18.594  0.00  0.00    +0.000 A 
ATOM      3  C   UNL     1       4.545   4.996  17.418  0.00  0.00    +0.000 A 
ATOM      4  C   UNL     1       5.658   5.830  16.908  0.00  0.00    +0.000 A 
ATOM      5  C   UNL     1       6.242   5.432  15.766  0.00  0.00    +0.000 A 
ATOM      6  C   UNL     1       5.873   4.230  15.006  0.00  0.00    +0.000 A 
ATOM      7  O   UNL     1       6.478   3.921  13.991  0.00  0.00    +0.000 OA
ATOM      8  O   UNL     1       4.815   3.494  15.495  0.00  0.00    +0.000 OA
ATOM      9  C   UNL     1       4.163   3.869  16.683  0.00  0.00    +0.000 A 
ATOM     10  C   UNL     1       3.117   3.026  17.073  0.00  0.00    +0.000 A 
ATOM     11  C   UNL     1       2.384   3.270  18.243  0.00  0.00    +0.000 A 
ATOM     12  C   UNL     1       1.265   2.311  18.541  0.00  0.00    +0.000 C 
ENDROOT
BRANCH   1  13
ATOM     13  S   UNL     1       2.013   4.894  20.570  0.00  0.00    +0.000 S 
ATOM     14  O   UNL     1       2.457   4.019  21.612  0.00  0.00    +0.000 OA
ATOM     15  O   UNL     1       0.587   5.051  20.271  0.00  0.00    +0.000 OA
BRANCH  13  16
ATOM     16  N   UNL     1       2.578   6.460  20.880  0.00  0.00    +0.000 N 
ATOM     17  H   UNL     1       3.347   6.565  21.534  0.00  0.00    +0.000 HD
BRANCH  16  22
ATOM     18  C   UNL     1      -0.825  10.886  19.620  0.00  0.00    +0.000 C 
ATOM     19  C   UNL     1       0.119   9.763  19.962  0.00  0.00    +0.000 A 
ATOM     20  C   UNL     1      -0.013   9.105  21.195  0.00  0.00    +0.000 A 
ATOM     21  C   UNL     1       0.814   8.030  21.529  0.00  0.00    +0.000 A 
ATOM     22  C   UNL     1       1.769   7.598  20.617  0.00  0.00    +0.000 A 
ATOM     23  C   UNL     1       1.936   8.265  19.407  0.00  0.00    +0.000 A 
ATOM     24  C   UNL     1       1.117   9.349  19.063  0.00  0.00    +0.000 A 
ATOM     25  C   UNL     1       1.315  10.021  17.734  0.00  0.00    +0.000 C 
ENDBRANCH  16  22
ENDBRANCH  13  16
ENDBRANCH   1  13
BRANCH   4  26
ATOM     26  C   UNL     1       6.134   7.129  17.532  0.00  0.00    +0.000 C 
BRANCH  26  27
ATOM     27  N   UNL     1       7.517   7.032  18.019  0.00  0.00    +0.000 NA
ATOM     28  N   UNL     1       7.759   6.142  18.854  0.00  0.00    +0.000 NA
ATOM     29  N   UNL     1       8.007   5.322  19.621  0.00  0.00    +0.000 NA
ENDBRANCH  26  27
ENDBRANCH   4  26
TORSDOF 5
ENDMDL
MODEL 9
REMARK VINA RESULT:      -8.5      5.594      8.504
REMARK  Name = 
REMARK  8 active torsions:
REMARK  status: ('A' for Active; 'I' for Inactive)
REMARK    1  A    between atoms: C_1  and  C_2
REMARK    2  A    between atoms: C_5  and  N_6
REMARK    3  A    between atoms: N_6  and  S_7
REMARK    4  A    between atoms: S_7  and  C_10
REMARK    5  A    between atoms: C_13  and  C_14
REMARK    6  A    between atoms: C_14  and  N_15
REMARK    7  A    between atoms: C_24  and  C_25
REMARK    8  A    between atoms: C_27  and  C_28
REMARK                            x       y       z     vdW  Elec       q    Type
REMARK                         _______ _______ _______ _____ _____    ______ ____
ROOT
ATOM      1  C   UNL     1       1.917   8.355  18.994  0.00  0.00    +0.000 A 
ATOM      2  C   UNL     1       2.860   7.722  18.147  0.00  0.00    +0.000 A 
ATOM      3  C   UNL     1       3.436   6.484  18.444  0.00  0.00    +0.000 A 
ATOM      4  C   UNL     1       4.437   5.770  17.617  0.00  0.00    +0.000 A 
ATOM      5  C   UNL     1       4.891   4.598  18.089  0.00  0.00    +0.000 A 
ATOM      6  C   UNL     1       4.485   3.990  19.364  0.00  0.00    +0.000 A 
ATOM      7  O   UNL     1       4.972   2.933  19.736  0.00  0.00    +0.000 OA
ATOM      8  O   UNL     1       3.532   4.668  20.093  0.00  0.00    +0.000 OA
ATOM      9  C   UNL     1       3.017   5.897  19.643  0.00  0.00    +0.000 A 
ATOM     10  C   UNL     1       2.069   6.484  20.487  0.00  0.00    +0.000 A 
ATOM     11  C   UNL     1       1.478   7.716  20.171  0.00  0.00    +0.000 A 
ATOM     12  C   UNL     1       0.451   8.231  21.140  0.00  0.00    +0.000 C 
ENDROOT
BRANCH   1  13
ATOM     13  S   UNL     1       1.327   9.934  18.370  0.00  0.00    +0.000 S 
ATOM     14  O   UNL     1      -0.031   9.773  17.949  0.00  0.00    +0.000 OA
ATOM     15  O   UNL     1       2.357  10.403  17.439  0.00  0.00    +0.000 OA
BRANCH  13  16
ATOM     16  N   UNL     1       1.380  11.016  19.672  0.00  0.00    +0.000 N 
ATOM     17  H   UNL     1       1.429  10.628  20.609  0.00  0.00    +0.000 HD
BRANCH  16  22
ATOM     18  C   UNL     1      -0.400  16.387  18.815  0.00  0.00    +0.000 C 
ATOM     19  C   UNL     1       0.099  14.994  19.094  0.00  0.00    +0.000 A 
ATOM     20  C   UNL     1      -0.799  14.025  19.569  0.00  0.00    +0.000 A 
ATOM     21  C   UNL     1      -0.384  12.710  19.797  0.00  0.00    +0.000 A 
ATOM     22  C   UNL     1       0.934  12.357  19.531  0.00  0.00    +0.000 A 
ATOM     23  C   UNL     1       1.843  13.317  19.096  0.00  0.00    +0.000 A 
ATOM     24  C   UNL     1       1.440  14.640  18.870  0.00  0.00    +0.000 A 
ATOM     25  C   UNL     1       2.451  15.636  18.374  0.00  0.00    +0.000 C 
ENDBRANCH  16  22
ENDBRANCH  13  16
ENDBRANCH   1  13
BRANCH   4  26
ATOM     26  C   UNL     1       4.926   6.223  16.254  0.00  0.00    +0.000 C 
BRANCH  26  27
ATOM     27  N   UNL     1       6.369   6.499  16.250  0.00  0.00    +0.000 NA
ATOM     28  N   UNL     1       7.067   5.841  15.456  0.00  0.00    +0.000 NA
ATOM     29  N   UNL     1       7.729   5.251  14.724  0.00  0.00    +0.000 NA
ENDBRANCH  26  27
ENDBRANCH   4  26
TORSDOF 5
ENDMDL
