MODEL 1
REMARK VINA RESULT:      -5.9      0.000      0.000
REMARK  Name = 
REMARK  12 active torsions:
REMARK  status: ('A' for Active; 'I' for Inactive)
REMARK    1  A    between atoms: C_1  and  C_2
REMARK    2  A    between atoms: C_2  and  C_3
REMARK    3  A    between atoms: C_3  and  C_4
REMARK    4  A    between atoms: C_4  and  O_6
REMARK    5  A    between atoms: O_6  and  C_7
REMARK    6  A    between atoms: C_7  and  C_8
REMARK    7  A    between atoms: C_7  and  O_9
REMARK    8  A    between atoms: O_9  and  C_10
REMARK    9  A    between atoms: C_10  and  C_12
REMARK   10  A    between atoms: C_12  and  C_13
REMARK   11  A    between atoms: C_12  and  C_14
REMARK   12  A    between atoms: C_12  and  C_15
REMARK                            x       y       z     vdW  Elec       q    Type
REMARK                         _______ _______ _______ _____ _____    ______ ____
ROOT
ATOM      1  C   UNL     1       5.432   4.167  18.236  0.00  0.00    +0.000 C 
ATOM      2  C   UNL     1       5.452   5.495  18.986  0.00  0.00    +0.000 C 
ENDROOT
BRANCH   1   3
ATOM      3  O   UNL     1       5.645   4.414  16.840  0.00  0.00    +0.000 OA
BRANCH   3   4
ATOM      4  C   UNL     1       6.952   4.470  16.467  0.00  0.00    +0.000 C 
ATOM      5  O   UNL     1       7.910   4.337  17.215  0.00  0.00    +0.000 OA
BRANCH   4   6
ATOM      6  C   UNL     1       7.065   4.735  14.986  0.00  0.00    +0.000 C 
BRANCH   6   8
ATOM      7  C   UNL     1       6.154   3.582  12.921  0.00  0.00    +0.000 C 
ATOM      8  C   UNL     1       5.821   4.282  14.232  0.00  0.00    +0.000 C 
ENDBRANCH   6   8
ENDBRANCH   4   6
ENDBRANCH   3   4
ENDBRANCH   1   3
BRANCH   1   9
ATOM      9  O   UNL     1       4.125   3.598  18.442  0.00  0.00    +0.000 OA
BRANCH   9  10
ATOM     10  C   UNL     1       3.976   2.935  19.621  0.00  0.00    +0.000 C 
ATOM     11  O   UNL     1       4.865   2.296  20.170  0.00  0.00    +0.000 OA
BRANCH  10  12
ATOM     12  C   UNL     1       2.554   3.092  20.174  0.00  0.00    +0.000 C 
ATOM     13  C   UNL     1       2.511   2.599  21.626  0.00  0.00    +0.000 C 
ATOM     14  C   UNL     1       2.156   4.577  20.138  0.00  0.00    +0.000 C 
ATOM     15  C   UNL     1       1.561   2.295  19.316  0.00  0.00    +0.000 C 
ENDBRANCH  10  12
ENDBRANCH   9  10
ENDBRANCH   1   9
TORSDOF 7
ENDMDL
MODEL 2
REMARK VINA RESULT:      -5.9      0.978      1.423
REMARK  Name = 
REMARK  12 active torsions:
REMARK  status: ('A' for Active; 'I' for Inactive)
REMARK    1  A    between atoms: C_1  and  C_2
REMARK    2  A    between atoms: C_2  and  C_3
REMARK    3  A    between atoms: C_3  and  C_4
REMARK    4  A    between atoms: C_4  and  O_6
REMARK    5  A    between atoms: O_6  and  C_7
REMARK    6  A    between atoms: C_7  and  C_8
REMARK    7  A    between atoms: C_7  and  O_9
REMARK    8  A    between atoms: O_9  and  C_10
REMARK    9  A    between atoms: C_10  and  C_12
REMARK   10  A    between atoms: C_12  and  C_13
REMARK   11  A    between atoms: C_12  and  C_14
REMARK   12  A    between atoms: C_12  and  C_15
REMARK                            x       y       z     vdW  Elec       q    Type
REMARK                         _______ _______ _______ _____ _____    ______ ____
ROOT
ATOM      1  C   UNL     1       4.358   4.464  18.134  0.00  0.00    +0.000 C 
ATOM      2  C   UNL     1       3.754   5.796  17.701  0.00  0.00    +0.000 C 
ENDROOT
BRANCH   1   3
ATOM      3  O   UNL     1       5.166   3.947  17.070  0.00  0.00    +0.000 OA
BRANCH   3   4
ATOM      4  C   UNL     1       6.457   4.375  17.078  0.00  0.00    +0.000 C 
ATOM      5  O   UNL     1       7.200   4.370  18.050  0.00  0.00    +0.000 OA
BRANCH   4   6
ATOM      6  C   UNL     1       6.854   4.877  15.712  0.00  0.00    +0.000 C 
BRANCH   6   8
ATOM      7  C   UNL     1       6.294   3.839  13.469  0.00  0.00    +0.000 C 
ATOM      8  C   UNL     1       5.771   4.610  14.673  0.00  0.00    +0.000 C 
ENDBRANCH   6   8
ENDBRANCH   4   6
ENDBRANCH   3   4
ENDBRANCH   1   3
BRANCH   1   9
ATOM      9  O   UNL     1       3.252   3.576  18.390  0.00  0.00    +0.000 OA
BRANCH   9  10
ATOM     10  C   UNL     1       3.191   3.100  19.664  0.00  0.00    +0.000 C 
ATOM     11  O   UNL     1       4.118   2.540  20.236  0.00  0.00    +0.000 OA
BRANCH  10  12
ATOM     12  C   UNL     1       1.816   3.356  20.291  0.00  0.00    +0.000 C 
ATOM     13  C   UNL     1       1.627   4.861  20.518  0.00  0.00    +0.000 C 
ATOM     14  C   UNL     1       0.720   2.854  19.335  0.00  0.00    +0.000 C 
ATOM     15  C   UNL     1       1.691   2.601  21.621  0.00  0.00    +0.000 C 
ENDBRANCH  10  12
ENDBRANCH   9  10
ENDBRANCH   1   9
TORSDOF 7
ENDMDL
MODEL 3
REMARK VINA RESULT:      -5.8      2.237      3.072
REMARK  Name = 
REMARK  12 active torsions:
REMARK  status: ('A' for Active; 'I' for Inactive)
REMARK    1  A    between atoms: C_1  and  C_2
REMARK    2  A    between atoms: C_2  and  C_3
REMARK    3  A    between atoms: C_3  and  C_4
REMARK    4  A    between atoms: C_4  and  O_6
REMARK    5  A    between atoms: O_6  and  C_7
REMARK    6  A    between atoms: C_7  and  C_8
REMARK    7  A    between atoms: C_7  and  O_9
REMARK    8  A    between atoms: O_9  and  C_10
REMARK    9  A    between atoms: C_10  and  C_12
REMARK   10  A    between atoms: C_12  and  C_13
REMARK   11  A    between atoms: C_12  and  C_14
REMARK   12  A    between atoms: C_12  and  C_15
REMARK                            x       y       z     vdW  Elec       q    Type
REMARK                         _______ _______ _______ _____ _____    ______ ____
ROOT
ATOM      1  C   UNL     1       4.380   4.760  18.516  0.00  0.00    +0.000 C 
ATOM      2  C   UNL     1       3.749   5.611  17.420  0.00  0.00    +0.000 C 
ENDROOT
BRANCH   1   3
ATOM      3  O   UNL     1       5.735   4.461  18.157  0.00  0.00    +0.000 OA
BRANCH   3   4
ATOM      4  C   UNL     1       6.667   5.253  18.752  0.00  0.00    +0.000 C 
ATOM      5  O   UNL     1       6.942   5.253  19.944  0.00  0.00    +0.000 OA
BRANCH   4   6
ATOM      6  C   UNL     1       7.321   6.153  17.733  0.00  0.00    +0.000 C 
BRANCH   6   8
ATOM      7  C   UNL     1       7.891   8.622  17.698  0.00  0.00    +0.000 C 
ATOM      8  C   UNL     1       8.101   7.284  18.393  0.00  0.00    +0.000 C 
ENDBRANCH   6   8
ENDBRANCH   4   6
ENDBRANCH   3   4
ENDBRANCH   1   3
BRANCH   1   9
ATOM      9  O   UNL     1       3.609   3.545  18.588  0.00  0.00    +0.000 OA
BRANCH   9  10
ATOM     10  C   UNL     1       3.401   3.079  19.849  0.00  0.00    +0.000 C 
ATOM     11  O   UNL     1       4.227   2.447  20.496  0.00  0.00    +0.000 OA
BRANCH  10  12
ATOM     12  C   UNL     1       2.003   3.448  20.357  0.00  0.00    +0.000 C 
ATOM     13  C   UNL     1       0.965   3.150  19.267  0.00  0.00    +0.000 C 
ATOM     14  C   UNL     1       1.675   2.605  21.602  0.00  0.00    +0.000 C 
ATOM     15  C   UNL     1       1.954   4.933  20.742  0.00  0.00    +0.000 C 
ENDBRANCH  10  12
ENDBRANCH   9  10
ENDBRANCH   1   9
TORSDOF 7
ENDMDL
MODEL 4
REMARK VINA RESULT:      -5.8      1.309      1.414
REMARK  Name = 
REMARK  12 active torsions:
REMARK  status: ('A' for Active; 'I' for Inactive)
REMARK    1  A    between atoms: C_1  and  C_2
REMARK    2  A    between atoms: C_2  and  C_3
REMARK    3  A    between atoms: C_3  and  C_4
REMARK    4  A    between atoms: C_4  and  O_6
REMARK    5  A    between atoms: O_6  and  C_7
REMARK    6  A    between atoms: C_7  and  C_8
REMARK    7  A    between atoms: C_7  and  O_9
REMARK    8  A    between atoms: O_9  and  C_10
REMARK    9  A    between atoms: C_10  and  C_12
REMARK   10  A    between atoms: C_12  and  C_13
REMARK   11  A    between atoms: C_12  and  C_14
REMARK   12  A    between atoms: C_12  and  C_15
REMARK                            x       y       z     vdW  Elec       q    Type
REMARK                         _______ _______ _______ _____ _____    ______ ____
ROOT
ATOM      1  C   UNL     1       5.081   5.432  17.213  0.00  0.00    +0.000 C 
ATOM      2  C   UNL     1       4.323   6.713  17.545  0.00  0.00    +0.000 C 
ENDROOT
BRANCH   1   3
ATOM      3  O   UNL     1       5.526   5.489  15.852  0.00  0.00    +0.000 OA
BRANCH   3   4
ATOM      4  C   UNL     1       6.732   4.904  15.624  0.00  0.00    +0.000 C 
ATOM      5  O   UNL     1       7.573   4.657  16.477  0.00  0.00    +0.000 OA
BRANCH   4   6
ATOM      6  C   UNL     1       6.903   4.604  14.155  0.00  0.00    +0.000 C 
BRANCH   6   8
ATOM      7  C   UNL     1       5.978   3.246  12.227  0.00  0.00    +0.000 C 
ATOM      8  C   UNL     1       5.690   3.885  13.578  0.00  0.00    +0.000 C 
ENDBRANCH   6   8
ENDBRANCH   4   6
ENDBRANCH   3   4
ENDBRANCH   1   3
BRANCH   1   9
ATOM      9  O   UNL     1       4.148   4.347  17.381  0.00  0.00    +0.000 OA
BRANCH   9  10
ATOM     10  C   UNL     1       4.061   3.866  18.651  0.00  0.00    +0.000 C 
ATOM     11  O   UNL     1       5.024   3.520  19.325  0.00  0.00    +0.000 OA
BRANCH  10  12
ATOM     12  C   UNL     1       2.606   3.815  19.131  0.00  0.00    +0.000 C 
ATOM     13  C   UNL     1       2.297   2.419  19.688  0.00  0.00    +0.000 C 
ATOM     14  C   UNL     1       2.402   4.854  20.246  0.00  0.00    +0.000 C 
ATOM     15  C   UNL     1       1.654   4.144  17.972  0.00  0.00    +0.000 C 
ENDBRANCH  10  12
ENDBRANCH   9  10
ENDBRANCH   1   9
TORSDOF 7
ENDMDL
MODEL 5
REMARK VINA RESULT:      -5.8      1.620      2.786
REMARK  Name = 
REMARK  12 active torsions:
REMARK  status: ('A' for Active; 'I' for Inactive)
REMARK    1  A    between atoms: C_1  and  C_2
REMARK    2  A    between atoms: C_2  and  C_3
REMARK    3  A    between atoms: C_3  and  C_4
REMARK    4  A    between atoms: C_4  and  O_6
REMARK    5  A    between atoms: O_6  and  C_7
REMARK    6  A    between atoms: C_7  and  C_8
REMARK    7  A    between atoms: C_7  and  O_9
REMARK    8  A    between atoms: O_9  and  C_10
REMARK    9  A    between atoms: C_10  and  C_12
REMARK   10  A    between atoms: C_12  and  C_13
REMARK   11  A    between atoms: C_12  and  C_14
REMARK   12  A    between atoms: C_12  and  C_15
REMARK                            x       y       z     vdW  Elec       q    Type
REMARK                         _______ _______ _______ _____ _____    ______ ____
ROOT
ATOM      1  C   UNL     1       4.978   4.198  17.999  0.00  0.00    +0.000 C 
ATOM      2  C   UNL     1       4.851   4.381  16.490  0.00  0.00    +0.000 C 
ENDROOT
BRANCH   1   3
ATOM      3  O   UNL     1       6.342   3.901  18.323  0.00  0.00    +0.000 OA
BRANCH   3   4
ATOM      4  C   UNL     1       7.255   4.725  17.744  0.00  0.00    +0.000 C 
ATOM      5  O   UNL     1       8.000   4.424  16.821  0.00  0.00    +0.000 OA
BRANCH   4   6
ATOM      6  C   UNL     1       7.236   6.080  18.407  0.00  0.00    +0.000 C 
BRANCH   6   8
ATOM      7  C   UNL     1       8.128   8.407  17.945  0.00  0.00    +0.000 C 
ATOM      8  C   UNL     1       7.366   7.210  17.392  0.00  0.00    +0.000 C 
ENDBRANCH   6   8
ENDBRANCH   4   6
ENDBRANCH   3   4
ENDBRANCH   1   3
BRANCH   1   9
ATOM      9  O   UNL     1       4.134   3.084  18.349  0.00  0.00    +0.000 OA
BRANCH   9  10
ATOM     10  C   UNL     1       3.974   2.893  19.687  0.00  0.00    +0.000 C 
ATOM     11  O   UNL     1       4.813   2.380  20.416  0.00  0.00    +0.000 OA
BRANCH  10  12
ATOM     12  C   UNL     1       2.610   3.405  20.164  0.00  0.00    +0.000 C 
ATOM     13  C   UNL     1       2.668   4.927  20.350  0.00  0.00    +0.000 C 
ATOM     14  C   UNL     1       1.543   3.072  19.107  0.00  0.00    +0.000 C 
ATOM     15  C   UNL     1       2.222   2.726  21.485  0.00  0.00    +0.000 C 
ENDBRANCH  10  12
ENDBRANCH   9  10
ENDBRANCH   1   9
TORSDOF 7
ENDMDL
MODEL 6
REMARK VINA RESULT:      -5.8      1.881      5.792
REMARK  Name = 
REMARK  12 active torsions:
REMARK  status: ('A' for Active; 'I' for Inactive)
REMARK    1  A    between atoms: C_1  and  C_2
REMARK    2  A    between atoms: C_2  and  C_3
REMARK    3  A    between atoms: C_3  and  C_4
REMARK    4  A    between atoms: C_4  and  O_6
REMARK    5  A    between atoms: O_6  and  C_7
REMARK    6  A    between atoms: C_7  and  C_8
REMARK    7  A    between atoms: C_7  and  O_9
REMARK    8  A    between atoms: O_9  and  C_10
REMARK    9  A    between atoms: C_10  and  C_12
REMARK   10  A    between atoms: C_12  and  C_13
REMARK   11  A    between atoms: C_12  and  C_14
REMARK   12  A    between atoms: C_12  and  C_15
REMARK                            x       y       z     vdW  Elec       q    Type
REMARK                         _______ _______ _______ _____ _____    ______ ____
ROOT
ATOM      1  C   UNL     1       4.044   3.552  18.519  0.00  0.00    +0.000 C 
ATOM      2  C   UNL     1       3.723   2.141  18.037  0.00  0.00    +0.000 C 
ENDROOT
BRANCH   1   3
ATOM      3  O   UNL     1       3.138   4.476  17.902  0.00  0.00    +0.000 OA
BRANCH   3   4
ATOM      4  C   UNL     1       1.832   4.298  18.235  0.00  0.00    +0.000 C 
ATOM      5  O   UNL     1       0.942   3.964  17.465  0.00  0.00    +0.000 OA
BRANCH   4   6
ATOM      6  C   UNL     1       1.619   4.581  19.702  0.00  0.00    +0.000 C 
BRANCH   6   8
ATOM      7  C   UNL     1       1.707   2.829  21.530  0.00  0.00    +0.000 C 
ATOM      8  C   UNL     1       0.890   3.439  20.399  0.00  0.00    +0.000 C 
ENDBRANCH   6   8
ENDBRANCH   4   6
ENDBRANCH   3   4
ENDBRANCH   1   3
BRANCH   1   9
ATOM      9  O   UNL     1       5.394   3.831  18.101  0.00  0.00    +0.000 OA
BRANCH   9  10
ATOM     10  C   UNL     1       5.885   5.025  18.531  0.00  0.00    +0.000 C 
ATOM     11  O   UNL     1       5.801   5.430  19.684  0.00  0.00    +0.000 OA
BRANCH  10  12
ATOM     12  C   UNL     1       6.557   5.796  17.390  0.00  0.00    +0.000 C 
ATOM     13  C   UNL     1       7.638   6.722  17.962  0.00  0.00    +0.000 C 
ATOM     14  C   UNL     1       7.215   4.799  16.421  0.00  0.00    +0.000 C 
ATOM     15  C   UNL     1       5.514   6.616  16.618  0.00  0.00    +0.000 C 
ENDBRANCH  10  12
ENDBRANCH   9  10
ENDBRANCH   1   9
TORSDOF 7
ENDMDL
MODEL 7
REMARK VINA RESULT:      -5.8      0.964      1.541
REMARK  Name = 
REMARK  12 active torsions:
REMARK  status: ('A' for Active; 'I' for Inactive)
REMARK    1  A    between atoms: C_1  and  C_2
REMARK    2  A    between atoms: C_2  and  C_3
REMARK    3  A    between atoms: C_3  and  C_4
REMARK    4  A    between atoms: C_4  and  O_6
REMARK    5  A    between atoms: O_6  and  C_7
REMARK    6  A    between atoms: C_7  and  C_8
REMARK    7  A    between atoms: C_7  and  O_9
REMARK    8  A    between atoms: O_9  and  C_10
REMARK    9  A    between atoms: C_10  and  C_12
REMARK   10  A    between atoms: C_12  and  C_13
REMARK   11  A    between atoms: C_12  and  C_14
REMARK   12  A    between atoms: C_12  and  C_15
REMARK                            x       y       z     vdW  Elec       q    Type
REMARK                         _______ _______ _______ _____ _____    ______ ____
ROOT
ATOM      1  C   UNL     1       5.019   4.547  17.418  0.00  0.00    +0.000 C 
ATOM      2  C   UNL     1       4.309   5.791  16.895  0.00  0.00    +0.000 C 
ENDROOT
BRANCH   1   3
ATOM      3  O   UNL     1       5.754   3.940  16.348  0.00  0.00    +0.000 OA
BRANCH   3   4
ATOM      4  C   UNL     1       6.927   4.557  16.045  0.00  0.00    +0.000 C 
ATOM      5  O   UNL     1       7.755   4.944  16.858  0.00  0.00    +0.000 OA
BRANCH   4   6
ATOM      6  C   UNL     1       7.072   4.711  14.551  0.00  0.00    +0.000 C 
BRANCH   6   8
ATOM      7  C   UNL     1       6.355   3.539  12.422  0.00  0.00    +0.000 C 
ATOM      8  C   UNL     1       5.933   4.033  13.799  0.00  0.00    +0.000 C 
ENDBRANCH   6   8
ENDBRANCH   4   6
ENDBRANCH   3   4
ENDBRANCH   1   3
BRANCH   1   9
ATOM      9  O   UNL     1       3.989   3.651  17.880  0.00  0.00    +0.000 OA
BRANCH   9  10
ATOM     10  C   UNL     1       3.980   3.442  19.224  0.00  0.00    +0.000 C 
ATOM     11  O   UNL     1       4.940   3.033  19.865  0.00  0.00    +0.000 OA
BRANCH  10  12
ATOM     12  C   UNL     1       2.616   3.787  19.834  0.00  0.00    +0.000 C 
ATOM     13  C   UNL     1       1.526   3.652  18.764  0.00  0.00    +0.000 C 
ATOM     14  C   UNL     1       2.312   2.810  20.983  0.00  0.00    +0.000 C 
ATOM     15  C   UNL     1       2.633   5.216  20.395  0.00  0.00    +0.000 C 
ENDBRANCH  10  12
ENDBRANCH   9  10
ENDBRANCH   1   9
TORSDOF 7
ENDMDL
MODEL 8
REMARK VINA RESULT:      -5.7      1.530      1.748
REMARK  Name = 
REMARK  12 active torsions:
REMARK  status: ('A' for Active; 'I' for Inactive)
REMARK    1  A    between atoms: C_1  and  C_2
REMARK    2  A    between atoms: C_2  and  C_3
REMARK    3  A    between atoms: C_3  and  C_4
REMARK    4  A    between atoms: C_4  and  O_6
REMARK    5  A    between atoms: O_6  and  C_7
REMARK    6  A    between atoms: C_7  and  C_8
REMARK    7  A    between atoms: C_7  and  O_9
REMARK    8  A    between atoms: O_9  and  C_10
REMARK    9  A    between atoms: C_10  and  C_12
REMARK   10  A    between atoms: C_12  and  C_13
REMARK   11  A    between atoms: C_12  and  C_14
REMARK   12  A    between atoms: C_12  and  C_15
REMARK                            x       y       z     vdW  Elec       q    Type
REMARK                         _______ _______ _______ _____ _____    ______ ____
ROOT
ATOM      1  C   UNL     1       5.197   4.719  18.361  0.00  0.00    +0.000 C 
ATOM      2  C   UNL     1       6.407   5.407  18.985  0.00  0.00    +0.000 C 
ENDROOT
BRANCH   1   3
ATOM      3  O   UNL     1       4.559   5.625  17.453  0.00  0.00    +0.000 OA
BRANCH   3   4
ATOM      4  C   UNL     1       5.159   5.727  16.237  0.00  0.00    +0.000 C 
ATOM      5  O   UNL     1       5.510   6.771  15.705  0.00  0.00    +0.000 OA
BRANCH   4   6
ATOM      6  C   UNL     1       5.329   4.362  15.617  0.00  0.00    +0.000 C 
BRANCH   6   8
ATOM      7  C   UNL     1       6.100   3.681  13.301  0.00  0.00    +0.000 C 
ATOM      8  C   UNL     1       6.484   4.330  14.624  0.00  0.00    +0.000 C 
ENDBRANCH   6   8
ENDBRANCH   4   6
ENDBRANCH   3   4
ENDBRANCH   1   3
BRANCH   1   9
ATOM      9  O   UNL     1       4.305   4.395  19.445  0.00  0.00    +0.000 OA
BRANCH   9  10
ATOM     10  C   UNL     1       3.439   3.379  19.181  0.00  0.00    +0.000 C 
ATOM     11  O   UNL     1       3.779   2.232  18.920  0.00  0.00    +0.000 OA
BRANCH  10  12
ATOM     12  C   UNL     1       1.983   3.854  19.254  0.00  0.00    +0.000 C 
ATOM     13  C   UNL     1       1.104   2.733  19.823  0.00  0.00    +0.000 C 
ATOM     14  C   UNL     1       1.893   5.079  20.180  0.00  0.00    +0.000 C 
ATOM     15  C   UNL     1       1.487   4.257  17.858  0.00  0.00    +0.000 C 
ENDBRANCH  10  12
ENDBRANCH   9  10
ENDBRANCH   1   9
TORSDOF 7
ENDMDL
MODEL 9
REMARK VINA RESULT:      -5.7      1.914      3.175
REMARK  Name = 
REMARK  12 active torsions:
REMARK  status: ('A' for Active; 'I' for Inactive)
REMARK    1  A    between atoms: C_1  and  C_2
REMARK    2  A    between atoms: C_2  and  C_3
REMARK    3  A    between atoms: C_3  and  C_4
REMARK    4  A    between atoms: C_4  and  O_6
REMARK    5  A    between atoms: O_6  and  C_7
REMARK    6  A    between atoms: C_7  and  C_8
REMARK    7  A    between atoms: C_7  and  O_9
REMARK    8  A    between atoms: O_9  and  C_10
REMARK    9  A    between atoms: C_10  and  C_12
REMARK   10  A    between atoms: C_12  and  C_13
REMARK   11  A    between atoms: C_12  and  C_14
REMARK   12  A    between atoms: C_12  and  C_15
REMARK                            x       y       z     vdW  Elec       q    Type
REMARK                         _______ _______ _______ _____ _____    ______ ____
ROOT
ATOM      1  C   UNL     1       5.009   4.995  17.051  0.00  0.00    +0.000 C 
ATOM      2  C   UNL     1       5.249   4.514  15.624  0.00  0.00    +0.000 C 
ENDROOT
BRANCH   1   3
ATOM      3  O   UNL     1       5.958   4.369  17.924  0.00  0.00    +0.000 OA
BRANCH   3   4
ATOM      4  C   UNL     1       7.232   4.827  17.799  0.00  0.00    +0.000 C 
ATOM      5  O   UNL     1       8.157   4.220  17.278  0.00  0.00    +0.000 OA
BRANCH   4   6
ATOM      6  C   UNL     1       7.359   6.202  18.408  0.00  0.00    +0.000 C 
BRANCH   6   8
ATOM      7  C   UNL     1       8.132   8.572  17.952  0.00  0.00    +0.000 C 
ATOM      8  C   UNL     1       7.624   7.268  17.351  0.00  0.00    +0.000 C 
ENDBRANCH   6   8
ENDBRANCH   4   6
ENDBRANCH   3   4
ENDBRANCH   1   3
BRANCH   1   9
ATOM      9  O   UNL     1       3.672   4.589  17.402  0.00  0.00    +0.000 OA
BRANCH   9  10
ATOM     10  C   UNL     1       3.363   4.734  18.719  0.00  0.00    +0.000 C 
ATOM     11  O   UNL     1       3.615   5.734  19.380  0.00  0.00    +0.000 OA
BRANCH  10  12
ATOM     12  C   UNL     1       2.657   3.489  19.269  0.00  0.00    +0.000 C 
ATOM     13  C   UNL     1       2.174   2.616  18.104  0.00  0.00    +0.000 C 
ATOM     14  C   UNL     1       3.648   2.679  20.122  0.00  0.00    +0.000 C 
ATOM     15  C   UNL     1       1.469   3.899  20.151  0.00  0.00    +0.000 C 
ENDBRANCH  10  12
ENDBRANCH   9  10
ENDBRANCH   1   9
TORSDOF 7
ENDMDL
