MODEL 1
REMARK VINA RESULT:      -8.2      0.000      0.000
REMARK  Name = 
REMARK  13 active torsions:
REMARK  status: ('A' for Active; 'I' for Inactive)
REMARK    1  A    between atoms: C_1  and  C_2
REMARK    2  A    between atoms: C_2  and  N_3
REMARK    3  A    between atoms: N_3  and  C_4
REMARK    4  A    between atoms: N_3  and  C_6
REMARK    5  A    between atoms: C_4  and  C_5
REMARK    6  A    between atoms: C_6  and  C_7
REMARK    7  A    between atoms: C_7  and  C_8
REMARK    8  A    between atoms: C_8  and  N_9
REMARK    9  A    between atoms: C_12  and  S_13
REMARK   10  A    between atoms: S_13  and  C_14
REMARK   11  A    between atoms: C_14  and  C_15
REMARK   12  A    between atoms: N_17  and  C_18
REMARK   13  A    between atoms: C_21  and  C_22
REMARK                            x       y       z     vdW  Elec       q    Type
REMARK                         _______ _______ _______ _____ _____    ______ ____
ROOT
ATOM      1  N   UNL     1       4.844   5.026  16.495  0.00  0.00    +0.000 N 
ATOM      2  C   UNL     1       3.737   4.508  17.139  0.00  0.00    +0.000 A 
ATOM      3  C   UNL     1       2.931   5.266  17.868  0.00  0.00    +0.000 A 
ATOM      4  C   UNL     1       3.304   6.668  17.961  0.00  0.00    +0.000 A 
ATOM      5  N   UNL     1       4.325   7.201  17.382  0.00  0.00    +0.000 NA
ATOM      6  C   UNL     1       5.159   6.400  16.623  0.00  0.00    +0.000 A 
ATOM      7  O   UNL     1       6.142   6.899  16.091  0.00  0.00    +0.000 OA
ATOM      8  C   UNL     1       1.774   4.517  18.424  0.00  0.00    +0.000 C 
ATOM      9  C   UNL     1       2.224   3.068  18.231  0.00  0.00    +0.000 C 
ATOM     10  C   UNL     1       3.262   3.092  17.106  0.00  0.00    +0.000 C 
ENDROOT
BRANCH   1  11
ATOM     11  C   UNL     1       5.736   4.167  15.704  0.00  0.00    +0.000 C 
BRANCH  11  12
ATOM     12  C   UNL     1       5.352   4.001  14.229  0.00  0.00    +0.000 C 
BRANCH  12  13
ATOM     13  C   UNL     1       6.551   3.948  13.283  0.00  0.00    +0.000 C 
BRANCH  13  14
ATOM     14  N   UNL     1       6.230   3.428  11.952  0.00  0.00    +0.000 NA
BRANCH  14  16
ATOM     15  C   UNL     1       6.507   1.117  11.059  0.00  0.00    +0.000 C 
ATOM     16  C   UNL     1       7.175   2.449  11.415  0.00  0.00    +0.000 C 
ENDBRANCH  14  16
BRANCH  14  17
ATOM     17  C   UNL     1       4.852   2.952  11.936  0.00  0.00    +0.000 C 
ATOM     18  C   UNL     1       3.924   3.557  10.888  0.00  0.00    +0.000 C 
ENDBRANCH  14  17
ENDBRANCH  13  14
ENDBRANCH  12  13
ENDBRANCH  11  12
ENDBRANCH   1  11
BRANCH   4  19
ATOM     19  S   UNL     1       2.260   7.626  18.985  0.00  0.00    +0.000 S 
BRANCH  19  20
ATOM     20  C   UNL     1       2.117   9.157  18.034  0.00  0.00    +0.000 C 
BRANCH  20  21
ATOM     21  C   UNL     1       0.902   9.957  18.464  0.00  0.00    +0.000 C 
ATOM     22  O   UNL     1       0.934  10.627  19.493  0.00  0.00    +0.000 OA
ATOM     23  N   UNL     1      -0.177   9.840  17.600  0.00  0.00    +0.000 N 
ATOM     24  H   UNL     1      -0.138   9.073  16.928  0.00  0.00    +0.000 HD
BRANCH  23  25
ATOM     25  C   UNL     1      -1.407  10.526  17.703  0.00  0.00    +0.000 A 
ATOM     26  C   UNL     1      -1.745  11.345  18.781  0.00  0.00    +0.000 A 
ATOM     27  C   UNL     1      -3.054  11.813  18.949  0.00  0.00    +0.000 A 
ATOM     28  C   UNL     1      -4.026  11.540  17.994  0.00  0.00    +0.000 A 
ATOM     29  C   UNL     1      -5.477  11.752  18.301  0.00  0.00    +0.000 C 
ATOM     30  C   UNL     1      -3.618  10.919  16.816  0.00  0.00    +0.000 A 
ATOM     31  F   UNL     1      -4.502  10.756  15.822  0.00  0.00    +0.000 F 
ATOM     32  C   UNL     1      -2.342  10.363  16.683  0.00  0.00    +0.000 A 
ENDBRANCH  23  25
ENDBRANCH  20  21
ENDBRANCH  19  20
ENDBRANCH   4  19
TORSDOF 10
ENDMDL
MODEL 2
REMARK VINA RESULT:      -8.0      4.033      6.667
REMARK  Name = 
REMARK  13 active torsions:
REMARK  status: ('A' for Active; 'I' for Inactive)
REMARK    1  A    between atoms: C_1  and  C_2
REMARK    2  A    between atoms: C_2  and  N_3
REMARK    3  A    between atoms: N_3  and  C_4
REMARK    4  A    between atoms: N_3  and  C_6
REMARK    5  A    between atoms: C_4  and  C_5
REMARK    6  A    between atoms: C_6  and  C_7
REMARK    7  A    between atoms: C_7  and  C_8
REMARK    8  A    between atoms: C_8  and  N_9
REMARK    9  A    between atoms: C_12  and  S_13
REMARK   10  A    between atoms: S_13  and  C_14
REMARK   11  A    between atoms: C_14  and  C_15
REMARK   12  A    between atoms: N_17  and  C_18
REMARK   13  A    between atoms: C_21  and  C_22
REMARK                            x       y       z     vdW  Elec       q    Type
REMARK                         _______ _______ _______ _____ _____    ______ ____
ROOT
ATOM      1  N   UNL     1       6.921   6.022  17.914  0.00  0.00    +0.000 N 
ATOM      2  C   UNL     1       6.013   5.470  17.030  0.00  0.00    +0.000 A 
ATOM      3  C   UNL     1       5.142   4.546  17.406  0.00  0.00    +0.000 A 
ATOM      4  C   UNL     1       5.222   4.139  18.799  0.00  0.00    +0.000 A 
ATOM      5  N   UNL     1       6.048   4.620  19.663  0.00  0.00    +0.000 NA
ATOM      6  C   UNL     1       6.953   5.584  19.260  0.00  0.00    +0.000 A 
ATOM      7  O   UNL     1       7.754   6.027  20.073  0.00  0.00    +0.000 OA
ATOM      8  C   UNL     1       4.226   4.132  16.311  0.00  0.00    +0.000 C 
ATOM      9  C   UNL     1       4.947   4.685  15.080  0.00  0.00    +0.000 C 
ATOM     10  C   UNL     1       5.843   5.819  15.587  0.00  0.00    +0.000 C 
ENDROOT
BRANCH   1  11
ATOM     11  C   UNL     1       7.891   7.034  17.477  0.00  0.00    +0.000 C 
BRANCH  11  12
ATOM     12  C   UNL     1       7.666   8.446  18.032  0.00  0.00    +0.000 C 
BRANCH  12  13
ATOM     13  C   UNL     1       8.895   9.043  18.715  0.00  0.00    +0.000 C 
BRANCH  13  14
ATOM     14  N   UNL     1       8.745  10.455  19.071  0.00  0.00    +0.000 NA
BRANCH  14  16
ATOM     15  C   UNL     1      10.541  11.738  20.232  0.00  0.00    +0.000 C 
ATOM     16  C   UNL     1       9.307  10.840  20.365  0.00  0.00    +0.000 C 
ENDBRANCH  14  16
BRANCH  14  17
ATOM     17  C   UNL     1       9.231  11.286  17.974  0.00  0.00    +0.000 C 
ATOM     18  C   UNL     1       8.299  12.386  17.477  0.00  0.00    +0.000 C 
ENDBRANCH  14  17
ENDBRANCH  13  14
ENDBRANCH  12  13
ENDBRANCH  11  12
ENDBRANCH   1  11
BRANCH   4  19
ATOM     19  S   UNL     1       4.105   2.869  19.245  0.00  0.00    +0.000 S 
BRANCH  19  20
ATOM     20  C   UNL     1       3.057   3.709  20.454  0.00  0.00    +0.000 C 
BRANCH  20  21
ATOM     21  C   UNL     1       2.343   4.894  19.830  0.00  0.00    +0.000 C 
ATOM     22  O   UNL     1       1.573   4.727  18.887  0.00  0.00    +0.000 OA
ATOM     23  N   UNL     1       2.653   6.109  20.424  0.00  0.00    +0.000 N 
ATOM     24  H   UNL     1       3.476   6.121  21.028  0.00  0.00    +0.000 HD
BRANCH  23  25
ATOM     25  C   UNL     1       2.088   7.362  20.107  0.00  0.00    +0.000 A 
ATOM     26  C   UNL     1       1.289   8.093  20.988  0.00  0.00    +0.000 A 
ATOM     27  C   UNL     1       0.566   9.209  20.550  0.00  0.00    +0.000 A 
ATOM     28  C   UNL     1       0.699   9.665  19.244  0.00  0.00    +0.000 A 
ATOM     29  C   UNL     1      -0.284  10.641  18.674  0.00  0.00    +0.000 C 
ATOM     30  C   UNL     1       1.671   9.066  18.446  0.00  0.00    +0.000 A 
ATOM     31  F   UNL     1       1.914   9.563  17.226  0.00  0.00    +0.000 F 
ATOM     32  C   UNL     1       2.323   7.893  18.840  0.00  0.00    +0.000 A 
ENDBRANCH  23  25
ENDBRANCH  20  21
ENDBRANCH  19  20
ENDBRANCH   4  19
TORSDOF 10
ENDMDL
MODEL 3
REMARK VINA RESULT:      -7.9      1.944      2.366
REMARK  Name = 
REMARK  13 active torsions:
REMARK  status: ('A' for Active; 'I' for Inactive)
REMARK    1  A    between atoms: C_1  and  C_2
REMARK    2  A    between atoms: C_2  and  N_3
REMARK    3  A    between atoms: N_3  and  C_4
REMARK    4  A    between atoms: N_3  and  C_6
REMARK    5  A    between atoms: C_4  and  C_5
REMARK    6  A    between atoms: C_6  and  C_7
REMARK    7  A    between atoms: C_7  and  C_8
REMARK    8  A    between atoms: C_8  and  N_9
REMARK    9  A    between atoms: C_12  and  S_13
REMARK   10  A    between atoms: S_13  and  C_14
REMARK   11  A    between atoms: C_14  and  C_15
REMARK   12  A    between atoms: N_17  and  C_18
REMARK   13  A    between atoms: C_21  and  C_22
REMARK                            x       y       z     vdW  Elec       q    Type
REMARK                         _______ _______ _______ _____ _____    ______ ____
ROOT
ATOM      1  N   UNL     1       4.696   5.081  16.549  0.00  0.00    +0.000 N 
ATOM      2  C   UNL     1       3.609   4.528  17.198  0.00  0.00    +0.000 A 
ATOM      3  C   UNL     1       2.816   5.250  17.977  0.00  0.00    +0.000 A 
ATOM      4  C   UNL     1       3.182   6.649  18.118  0.00  0.00    +0.000 A 
ATOM      5  N   UNL     1       4.185   7.213  17.537  0.00  0.00    +0.000 NA
ATOM      6  C   UNL     1       5.005   6.451  16.725  0.00  0.00    +0.000 A 
ATOM      7  O   UNL     1       5.971   6.978  16.190  0.00  0.00    +0.000 OA
ATOM      8  C   UNL     1       1.679   4.470  18.530  0.00  0.00    +0.000 C 
ATOM      9  C   UNL     1       2.133   3.033  18.266  0.00  0.00    +0.000 C 
ATOM     10  C   UNL     1       3.142   3.111  17.118  0.00  0.00    +0.000 C 
ENDROOT
BRANCH   1  11
ATOM     11  C   UNL     1       5.573   4.262  15.701  0.00  0.00    +0.000 C 
BRANCH  11  12
ATOM     12  C   UNL     1       5.272   4.313  14.198  0.00  0.00    +0.000 C 
BRANCH  12  13
ATOM     13  C   UNL     1       6.269   3.533  13.343  0.00  0.00    +0.000 C 
BRANCH  13  14
ATOM     14  N   UNL     1       5.803   3.275  11.980  0.00  0.00    +0.000 NA
BRANCH  14  16
ATOM     15  C   UNL     1       7.282   1.564  10.928  0.00  0.00    +0.000 C 
ATOM     16  C   UNL     1       5.911   1.887  11.531  0.00  0.00    +0.000 C 
ENDBRANCH  14  16
BRANCH  14  17
ATOM     17  C   UNL     1       4.460   3.820  11.815  0.00  0.00    +0.000 C 
ATOM     18  C   UNL     1       3.554   3.128  10.802  0.00  0.00    +0.000 C 
ENDBRANCH  14  17
ENDBRANCH  13  14
ENDBRANCH  12  13
ENDBRANCH  11  12
ENDBRANCH   1  11
BRANCH   4  19
ATOM     19  S   UNL     1       2.158   7.557  19.207  0.00  0.00    +0.000 S 
BRANCH  19  20
ATOM     20  C   UNL     1       1.661   8.950  18.168  0.00  0.00    +0.000 C 
BRANCH  20  21
ATOM     21  C   UNL     1       1.186  10.119  19.011  0.00  0.00    +0.000 C 
ATOM     22  O   UNL     1       1.699  11.228  18.877  0.00  0.00    +0.000 OA
ATOM     23  N   UNL     1       0.166   9.794  19.892  0.00  0.00    +0.000 N 
ATOM     24  H   UNL     1       0.010   8.798  20.058  0.00  0.00    +0.000 HD
BRANCH  23  25
ATOM     25  C   UNL     1      -0.521  10.688  20.741  0.00  0.00    +0.000 A 
ATOM     26  C   UNL     1      -0.395  10.681  22.131  0.00  0.00    +0.000 A 
ATOM     27  C   UNL     1      -1.266  11.424  22.938  0.00  0.00    +0.000 A 
ATOM     28  C   UNL     1      -2.220  12.256  22.363  0.00  0.00    +0.000 A 
ATOM     29  C   UNL     1      -3.348  12.802  23.184  0.00  0.00    +0.000 C 
ATOM     30  C   UNL     1      -2.181  12.426  20.981  0.00  0.00    +0.000 A 
ATOM     31  F   UNL     1      -3.002  13.316  20.408  0.00  0.00    +0.000 F 
ATOM     32  C   UNL     1      -1.385  11.616  20.164  0.00  0.00    +0.000 A 
ENDBRANCH  23  25
ENDBRANCH  20  21
ENDBRANCH  19  20
ENDBRANCH   4  19
TORSDOF 10
ENDMDL
MODEL 4
REMARK VINA RESULT:      -7.7      4.014      6.776
REMARK  Name = 
REMARK  13 active torsions:
REMARK  status: ('A' for Active; 'I' for Inactive)
REMARK    1  A    between atoms: C_1  and  C_2
REMARK    2  A    between atoms: C_2  and  N_3
REMARK    3  A    between atoms: N_3  and  C_4
REMARK    4  A    between atoms: N_3  and  C_6
REMARK    5  A    between atoms: C_4  and  C_5
REMARK    6  A    between atoms: C_6  and  C_7
REMARK    7  A    between atoms: C_7  and  C_8
REMARK    8  A    between atoms: C_8  and  N_9
REMARK    9  A    between atoms: C_12  and  S_13
REMARK   10  A    between atoms: S_13  and  C_14
REMARK   11  A    between atoms: C_14  and  C_15
REMARK   12  A    between atoms: N_17  and  C_18
REMARK   13  A    between atoms: C_21  and  C_22
REMARK                            x       y       z     vdW  Elec       q    Type
REMARK                         _______ _______ _______ _____ _____    ______ ____
ROOT
ATOM      1  N   UNL     1       6.861   5.926  17.940  0.00  0.00    +0.000 N 
ATOM      2  C   UNL     1       5.953   5.349  17.072  0.00  0.00    +0.000 A 
ATOM      3  C   UNL     1       5.085   4.432  17.474  0.00  0.00    +0.000 A 
ATOM      4  C   UNL     1       5.169   4.061  18.876  0.00  0.00    +0.000 A 
ATOM      5  N   UNL     1       5.996   4.567  19.726  0.00  0.00    +0.000 NA
ATOM      6  C   UNL     1       6.897   5.524  19.296  0.00  0.00    +0.000 A 
ATOM      7  O   UNL     1       7.698   5.990  20.096  0.00  0.00    +0.000 OA
ATOM      8  C   UNL     1       4.169   3.987  16.392  0.00  0.00    +0.000 C 
ATOM      9  C   UNL     1       4.885   4.510  15.145  0.00  0.00    +0.000 C 
ATOM     10  C   UNL     1       5.780   5.659  15.621  0.00  0.00    +0.000 C 
ENDROOT
BRANCH   1  11
ATOM     11  C   UNL     1       7.827   6.929  17.474  0.00  0.00    +0.000 C 
BRANCH  11  12
ATOM     12  C   UNL     1       7.557   8.367  17.934  0.00  0.00    +0.000 C 
BRANCH  12  13
ATOM     13  C   UNL     1       8.814   9.230  18.033  0.00  0.00    +0.000 C 
BRANCH  13  14
ATOM     14  N   UNL     1       8.599  10.512  18.704  0.00  0.00    +0.000 NA
BRANCH  14  16
ATOM     15  C   UNL     1       9.200  11.107  21.050  0.00  0.00    +0.000 C 
ATOM     16  C   UNL     1       9.672  10.939  19.602  0.00  0.00    +0.000 C 
ENDBRANCH  14  16
BRANCH  14  17
ATOM     17  C   UNL     1       8.254  11.526  17.714  0.00  0.00    +0.000 C 
ATOM     18  C   UNL     1       9.107  12.790  17.693  0.00  0.00    +0.000 C 
ENDBRANCH  14  17
ENDBRANCH  13  14
ENDBRANCH  12  13
ENDBRANCH  11  12
ENDBRANCH   1  11
BRANCH   4  19
ATOM     19  S   UNL     1       4.057   2.801  19.357  0.00  0.00    +0.000 S 
BRANCH  19  20
ATOM     20  C   UNL     1       3.142   3.607  20.691  0.00  0.00    +0.000 C 
BRANCH  20  21
ATOM     21  C   UNL     1       2.243   4.704  20.153  0.00  0.00    +0.000 C 
ATOM     22  O   UNL     1       1.050   4.486  19.955  0.00  0.00    +0.000 OA
ATOM     23  N   UNL     1       2.900   5.905  19.929  0.00  0.00    +0.000 N 
ATOM     24  H   UNL     1       3.920   5.867  19.912  0.00  0.00    +0.000 HD
BRANCH  23  25
ATOM     25  C   UNL     1       2.309   7.115  19.506  0.00  0.00    +0.000 A 
ATOM     26  C   UNL     1       2.402   7.603  18.202  0.00  0.00    +0.000 A 
ATOM     27  C   UNL     1       2.003   8.908  17.890  0.00  0.00    +0.000 A 
ATOM     28  C   UNL     1       1.420   9.716  18.860  0.00  0.00    +0.000 A 
ATOM     29  C   UNL     1       1.281  11.191  18.640  0.00  0.00    +0.000 C 
ATOM     30  C   UNL     1       1.126   9.137  20.092  0.00  0.00    +0.000 A 
ATOM     31  F   UNL     1       0.450   9.848  21.005  0.00  0.00    +0.000 F 
ATOM     32  C   UNL     1       1.609   7.872  20.443  0.00  0.00    +0.000 A 
ENDBRANCH  23  25
ENDBRANCH  20  21
ENDBRANCH  19  20
ENDBRANCH   4  19
TORSDOF 10
ENDMDL
MODEL 5
REMARK VINA RESULT:      -7.6      1.136      1.445
REMARK  Name = 
REMARK  13 active torsions:
REMARK  status: ('A' for Active; 'I' for Inactive)
REMARK    1  A    between atoms: C_1  and  C_2
REMARK    2  A    between atoms: C_2  and  N_3
REMARK    3  A    between atoms: N_3  and  C_4
REMARK    4  A    between atoms: N_3  and  C_6
REMARK    5  A    between atoms: C_4  and  C_5
REMARK    6  A    between atoms: C_6  and  C_7
REMARK    7  A    between atoms: C_7  and  C_8
REMARK    8  A    between atoms: C_8  and  N_9
REMARK    9  A    between atoms: C_12  and  S_13
REMARK   10  A    between atoms: S_13  and  C_14
REMARK   11  A    between atoms: C_14  and  C_15
REMARK   12  A    between atoms: N_17  and  C_18
REMARK   13  A    between atoms: C_21  and  C_22
REMARK                            x       y       z     vdW  Elec       q    Type
REMARK                         _______ _______ _______ _____ _____    ______ ____
ROOT
ATOM      1  N   UNL     1       4.837   4.774  16.476  0.00  0.00    +0.000 N 
ATOM      2  C   UNL     1       3.897   4.173  17.293  0.00  0.00    +0.000 A 
ATOM      3  C   UNL     1       3.136   4.875  18.119  0.00  0.00    +0.000 A 
ATOM      4  C   UNL     1       3.373   6.309  18.124  0.00  0.00    +0.000 A 
ATOM      5  N   UNL     1       4.235   6.918  17.384  0.00  0.00    +0.000 NA
ATOM      6  C   UNL     1       5.024   6.176  16.525  0.00  0.00    +0.000 A 
ATOM      7  O   UNL     1       5.860   6.748  15.838  0.00  0.00    +0.000 OA
ATOM      8  C   UNL     1       2.159   4.037  18.861  0.00  0.00    +0.000 C 
ATOM      9  C   UNL     1       2.721   2.633  18.634  0.00  0.00    +0.000 C 
ATOM     10  C   UNL     1       3.571   2.717  17.363  0.00  0.00    +0.000 C 
ENDROOT
BRANCH   1  11
ATOM     11  C   UNL     1       5.683   3.978  15.577  0.00  0.00    +0.000 C 
BRANCH  11  12
ATOM     12  C   UNL     1       5.348   4.091  14.085  0.00  0.00    +0.000 C 
BRANCH  12  13
ATOM     13  C   UNL     1       6.536   3.817  13.164  0.00  0.00    +0.000 C 
BRANCH  13  14
ATOM     14  N   UNL     1       6.158   3.278  11.857  0.00  0.00    +0.000 NA
BRANCH  14  16
ATOM     15  C   UNL     1       6.230   0.910  11.078  0.00  0.00    +0.000 C 
ATOM     16  C   UNL     1       7.009   2.201  11.351  0.00  0.00    +0.000 C 
ENDBRANCH  14  16
BRANCH  14  17
ATOM     17  C   UNL     1       4.744   2.923  11.869  0.00  0.00    +0.000 C 
ATOM     18  C   UNL     1       3.868   3.539  10.783  0.00  0.00    +0.000 C 
ENDBRANCH  14  17
ENDBRANCH  13  14
ENDBRANCH  12  13
ENDBRANCH  11  12
ENDBRANCH   1  11
BRANCH   4  19
ATOM     19  S   UNL     1       2.401   7.198  19.274  0.00  0.00    +0.000 S 
BRANCH  19  20
ATOM     20  C   UNL     1       1.943   8.660  18.316  0.00  0.00    +0.000 C 
BRANCH  20  21
ATOM     21  C   UNL     1       0.982   9.543  19.090  0.00  0.00    +0.000 C 
ATOM     22  O   UNL     1       0.938   9.484  20.317  0.00  0.00    +0.000 OA
ATOM     23  N   UNL     1       0.211  10.369  18.285  0.00  0.00    +0.000 N 
ATOM     24  H   UNL     1       0.188  10.139  17.291  0.00  0.00    +0.000 HD
BRANCH  23  25
ATOM     25  C   UNL     1      -0.708  11.344  18.727  0.00  0.00    +0.000 A 
ATOM     26  C   UNL     1      -0.328  12.574  19.267  0.00  0.00    +0.000 A 
ATOM     27  C   UNL     1      -1.260  13.404  19.901  0.00  0.00    +0.000 A 
ATOM     28  C   UNL     1      -2.607  13.057  19.927  0.00  0.00    +0.000 A 
ATOM     29  C   UNL     1      -3.554  13.752  20.855  0.00  0.00    +0.000 C 
ATOM     30  C   UNL     1      -3.002  11.945  19.187  0.00  0.00    +0.000 A 
ATOM     31  F   UNL     1      -4.307  11.656  19.086  0.00  0.00    +0.000 F 
ATOM     32  C   UNL     1      -2.069  11.060  18.637  0.00  0.00    +0.000 A 
ENDBRANCH  23  25
ENDBRANCH  20  21
ENDBRANCH  19  20
ENDBRANCH   4  19
TORSDOF 10
ENDMDL
MODEL 6
REMARK VINA RESULT:      -7.6      4.098      6.712
REMARK  Name = 
REMARK  13 active torsions:
REMARK  status: ('A' for Active; 'I' for Inactive)
REMARK    1  A    between atoms: C_1  and  C_2
REMARK    2  A    between atoms: C_2  and  N_3
REMARK    3  A    between atoms: N_3  and  C_4
REMARK    4  A    between atoms: N_3  and  C_6
REMARK    5  A    between atoms: C_4  and  C_5
REMARK    6  A    between atoms: C_6  and  C_7
REMARK    7  A    between atoms: C_7  and  C_8
REMARK    8  A    between atoms: C_8  and  N_9
REMARK    9  A    between atoms: C_12  and  S_13
REMARK   10  A    between atoms: S_13  and  C_14
REMARK   11  A    between atoms: C_14  and  C_15
REMARK   12  A    between atoms: N_17  and  C_18
REMARK   13  A    between atoms: C_21  and  C_22
REMARK                            x       y       z     vdW  Elec       q    Type
REMARK                         _______ _______ _______ _____ _____    ______ ____
ROOT
ATOM      1  N   UNL     1       6.821   5.992  17.899  0.00  0.00    +0.000 N 
ATOM      2  C   UNL     1       5.942   5.389  17.020  0.00  0.00    +0.000 A 
ATOM      3  C   UNL     1       5.112   4.430  17.406  0.00  0.00    +0.000 A 
ATOM      4  C   UNL     1       5.207   4.045  18.804  0.00  0.00    +0.000 A 
ATOM      5  N   UNL     1       6.009   4.574  19.664  0.00  0.00    +0.000 NA
ATOM      6  C   UNL     1       6.870   5.573  19.251  0.00  0.00    +0.000 A 
ATOM      7  O   UNL     1       7.648   6.062  20.059  0.00  0.00    +0.000 OA
ATOM      8  C   UNL     1       4.219   3.962  16.315  0.00  0.00    +0.000 C 
ATOM      9  C   UNL     1       4.917   4.531  15.078  0.00  0.00    +0.000 C 
ATOM     10  C   UNL     1       5.760   5.711  15.573  0.00  0.00    +0.000 C 
ENDROOT
BRANCH   1  11
ATOM     11  C   UNL     1       7.746   7.042  17.451  0.00  0.00    +0.000 C 
BRANCH  11  12
ATOM     12  C   UNL     1       8.281   7.963  18.553  0.00  0.00    +0.000 C 
BRANCH  12  13
ATOM     13  C   UNL     1       8.286   9.443  18.171  0.00  0.00    +0.000 C 
BRANCH  13  14
ATOM     14  N   UNL     1       9.447  10.178  18.675  0.00  0.00    +0.000 NA
BRANCH  14  16
ATOM     15  C   UNL     1      11.307  11.572  17.771  0.00  0.00    +0.000 C 
ATOM     16  C   UNL     1       9.794  11.390  17.932  0.00  0.00    +0.000 C 
ENDBRANCH  14  16
BRANCH  14  17
ATOM     17  C   UNL     1       9.288  10.418  20.105  0.00  0.00    +0.000 C 
ATOM     18  C   UNL     1       9.208  11.872  20.556  0.00  0.00    +0.000 C 
ENDBRANCH  14  17
ENDBRANCH  13  14
ENDBRANCH  12  13
ENDBRANCH  11  12
ENDBRANCH   1  11
BRANCH   4  19
ATOM     19  S   UNL     1       4.148   2.732  19.264  0.00  0.00    +0.000 S 
BRANCH  19  20
ATOM     20  C   UNL     1       3.066   3.537  20.467  0.00  0.00    +0.000 C 
BRANCH  20  21
ATOM     21  C   UNL     1       2.347   4.722  19.850  0.00  0.00    +0.000 C 
ATOM     22  O   UNL     1       1.503   4.546  18.974  0.00  0.00    +0.000 OA
ATOM     23  N   UNL     1       2.740   5.946  20.370  0.00  0.00    +0.000 N 
ATOM     24  H   UNL     1       3.606   5.951  20.910  0.00  0.00    +0.000 HD
BRANCH  23  25
ATOM     25  C   UNL     1       2.194   7.206  20.045  0.00  0.00    +0.000 A 
ATOM     26  C   UNL     1       1.410   7.956  20.923  0.00  0.00    +0.000 A 
ATOM     27  C   UNL     1       0.703   9.080  20.479  0.00  0.00    +0.000 A 
ATOM     28  C   UNL     1       0.840   9.524  19.168  0.00  0.00    +0.000 A 
ATOM     29  C   UNL     1      -0.129  10.511  18.594  0.00  0.00    +0.000 C 
ATOM     30  C   UNL     1       1.799   8.903  18.373  0.00  0.00    +0.000 A 
ATOM     31  F   UNL     1       2.046   9.387  17.148  0.00  0.00    +0.000 F 
ATOM     32  C   UNL     1       2.434   7.723  18.773  0.00  0.00    +0.000 A 
ENDBRANCH  23  25
ENDBRANCH  20  21
ENDBRANCH  19  20
ENDBRANCH   4  19
TORSDOF 10
ENDMDL
MODEL 7
REMARK VINA RESULT:      -7.6      2.459      2.775
REMARK  Name = 
REMARK  13 active torsions:
REMARK  status: ('A' for Active; 'I' for Inactive)
REMARK    1  A    between atoms: C_1  and  C_2
REMARK    2  A    between atoms: C_2  and  N_3
REMARK    3  A    between atoms: N_3  and  C_4
REMARK    4  A    between atoms: N_3  and  C_6
REMARK    5  A    between atoms: C_4  and  C_5
REMARK    6  A    between atoms: C_6  and  C_7
REMARK    7  A    between atoms: C_7  and  C_8
REMARK    8  A    between atoms: C_8  and  N_9
REMARK    9  A    between atoms: C_12  and  S_13
REMARK   10  A    between atoms: S_13  and  C_14
REMARK   11  A    between atoms: C_14  and  C_15
REMARK   12  A    between atoms: N_17  and  C_18
REMARK   13  A    between atoms: C_21  and  C_22
REMARK                            x       y       z     vdW  Elec       q    Type
REMARK                         _______ _______ _______ _____ _____    ______ ____
ROOT
ATOM      1  N   UNL     1       4.723   5.106  16.574  0.00  0.00    +0.000 N 
ATOM      2  C   UNL     1       3.656   4.545  17.249  0.00  0.00    +0.000 A 
ATOM      3  C   UNL     1       2.840   5.272  17.998  0.00  0.00    +0.000 A 
ATOM      4  C   UNL     1       3.157   6.688  18.078  0.00  0.00    +0.000 A 
ATOM      5  N   UNL     1       4.139   7.261  17.470  0.00  0.00    +0.000 NA
ATOM      6  C   UNL     1       4.984   6.493  16.690  0.00  0.00    +0.000 A 
ATOM      7  O   UNL     1       5.931   7.029  16.130  0.00  0.00    +0.000 OA
ATOM      8  C   UNL     1       1.730   4.478  18.587  0.00  0.00    +0.000 C 
ATOM      9  C   UNL     1       2.233   3.048  18.384  0.00  0.00    +0.000 C 
ATOM     10  C   UNL     1       3.239   3.111  17.231  0.00  0.00    +0.000 C 
ENDROOT
BRANCH   1  11
ATOM     11  C   UNL     1       5.627   4.283  15.760  0.00  0.00    +0.000 C 
BRANCH  11  12
ATOM     12  C   UNL     1       5.463   4.426  14.242  0.00  0.00    +0.000 C 
BRANCH  12  13
ATOM     13  C   UNL     1       6.371   3.501  13.434  0.00  0.00    +0.000 C 
BRANCH  13  14
ATOM     14  N   UNL     1       6.007   3.404  12.020  0.00  0.00    +0.000 NA
BRANCH  14  16
ATOM     15  C   UNL     1       6.397   1.087  11.186  0.00  0.00    +0.000 C 
ATOM     16  C   UNL     1       6.867   2.545  11.206  0.00  0.00    +0.000 C 
ENDBRANCH  14  16
BRANCH  14  17
ATOM     17  C   UNL     1       4.594   3.062  11.904  0.00  0.00    +0.000 C 
ATOM     18  C   UNL     1       3.823   3.691  10.748  0.00  0.00    +0.000 C 
ENDBRANCH  14  17
ENDBRANCH  13  14
ENDBRANCH  12  13
ENDBRANCH  11  12
ENDBRANCH   1  11
BRANCH   4  19
ATOM     19  S   UNL     1       2.103   7.606  19.128  0.00  0.00    +0.000 S 
BRANCH  19  20
ATOM     20  C   UNL     1       2.048   9.205  18.287  0.00  0.00    +0.000 C 
BRANCH  20  21
ATOM     21  C   UNL     1       0.833  10.007  18.715  0.00  0.00    +0.000 C 
ATOM     22  O   UNL     1      -0.158  10.064  17.991  0.00  0.00    +0.000 OA
ATOM     23  N   UNL     1       0.979  10.626  19.948  0.00  0.00    +0.000 N 
ATOM     24  H   UNL     1       1.929  10.684  20.316  0.00  0.00    +0.000 HD
BRANCH  23  25
ATOM     25  C   UNL     1      -0.007  11.370  20.631  0.00  0.00    +0.000 A 
ATOM     26  C   UNL     1      -0.405  12.653  20.251  0.00  0.00    +0.000 A 
ATOM     27  C   UNL     1      -1.209  13.437  21.088  0.00  0.00    +0.000 A 
ATOM     28  C   UNL     1      -1.701  12.916  22.279  0.00  0.00    +0.000 A 
ATOM     29  C   UNL     1      -2.285  13.819  23.321  0.00  0.00    +0.000 C 
ATOM     30  C   UNL     1      -1.485  11.564  22.531  0.00  0.00    +0.000 A 
ATOM     31  F   UNL     1      -2.053  10.999  23.605  0.00  0.00    +0.000 F 
ATOM     32  C   UNL     1      -0.604  10.803  21.755  0.00  0.00    +0.000 A 
ENDBRANCH  23  25
ENDBRANCH  20  21
ENDBRANCH  19  20
ENDBRANCH   4  19
TORSDOF 10
ENDMDL
MODEL 8
REMARK VINA RESULT:      -7.5      2.050      2.739
REMARK  Name = 
REMARK  13 active torsions:
REMARK  status: ('A' for Active; 'I' for Inactive)
REMARK    1  A    between atoms: C_1  and  C_2
REMARK    2  A    between atoms: C_2  and  N_3
REMARK    3  A    between atoms: N_3  and  C_4
REMARK    4  A    between atoms: N_3  and  C_6
REMARK    5  A    between atoms: C_4  and  C_5
REMARK    6  A    between atoms: C_6  and  C_7
REMARK    7  A    between atoms: C_7  and  C_8
REMARK    8  A    between atoms: C_8  and  N_9
REMARK    9  A    between atoms: C_12  and  S_13
REMARK   10  A    between atoms: S_13  and  C_14
REMARK   11  A    between atoms: C_14  and  C_15
REMARK   12  A    between atoms: N_17  and  C_18
REMARK   13  A    between atoms: C_21  and  C_22
REMARK                            x       y       z     vdW  Elec       q    Type
REMARK                         _______ _______ _______ _____ _____    ______ ____
ROOT
ATOM      1  N   UNL     1       4.776   4.993  16.471  0.00  0.00    +0.000 N 
ATOM      2  C   UNL     1       3.639   4.520  17.097  0.00  0.00    +0.000 A 
ATOM      3  C   UNL     1       2.876   5.302  17.847  0.00  0.00    +0.000 A 
ATOM      4  C   UNL     1       3.328   6.676  17.983  0.00  0.00    +0.000 A 
ATOM      5  N   UNL     1       4.381   7.166  17.422  0.00  0.00    +0.000 NA
ATOM      6  C   UNL     1       5.169   6.342  16.641  0.00  0.00    +0.000 A 
ATOM      7  O   UNL     1       6.181   6.798  16.125  0.00  0.00    +0.000 OA
ATOM      8  C   UNL     1       1.676   4.604  18.379  0.00  0.00    +0.000 C 
ATOM      9  C   UNL     1       2.041   3.138  18.143  0.00  0.00    +0.000 C 
ATOM     10  C   UNL     1       3.083   3.135  17.020  0.00  0.00    +0.000 C 
ENDROOT
BRANCH   1  11
ATOM     11  C   UNL     1       5.619   4.108  15.656  0.00  0.00    +0.000 C 
BRANCH  11  12
ATOM     12  C   UNL     1       5.511   4.308  14.139  0.00  0.00    +0.000 C 
BRANCH  12  13
ATOM     13  C   UNL     1       6.237   3.240  13.323  0.00  0.00    +0.000 C 
BRANCH  13  14
ATOM     14  N   UNL     1       5.451   2.714  12.206  0.00  0.00    +0.000 NA
BRANCH  14  16
ATOM     15  C   UNL     1       3.481   3.010  10.706  0.00  0.00    +0.000 C 
ATOM     16  C   UNL     1       4.575   3.680  11.544  0.00  0.00    +0.000 C 
ENDBRANCH  14  16
BRANCH  14  17
ATOM     17  C   UNL     1       6.334   2.020  11.275  0.00  0.00    +0.000 C 
ATOM     18  C   UNL     1       6.195   0.503  11.193  0.00  0.00    +0.000 C 
ENDBRANCH  14  17
ENDBRANCH  13  14
ENDBRANCH  12  13
ENDBRANCH  11  12
ENDBRANCH   1  11
BRANCH   4  19
ATOM     19  S   UNL     1       2.338   7.662  19.034  0.00  0.00    +0.000 S 
BRANCH  19  20
ATOM     20  C   UNL     1       1.710   8.907  17.885  0.00  0.00    +0.000 C 
BRANCH  20  21
ATOM     21  C   UNL     1       1.146  10.103  18.629  0.00  0.00    +0.000 C 
ATOM     22  O   UNL     1       1.731  11.184  18.598  0.00  0.00    +0.000 OA
ATOM     23  N   UNL     1      -0.037   9.836  19.302  0.00  0.00    +0.000 N 
ATOM     24  H   UNL     1      -0.271   8.851  19.432  0.00  0.00    +0.000 HD
BRANCH  23  25
ATOM     25  C   UNL     1      -0.824  10.768  20.011  0.00  0.00    +0.000 A 
ATOM     26  C   UNL     1      -1.791  11.576  19.410  0.00  0.00    +0.000 A 
ATOM     27  C   UNL     1      -2.376  12.641  20.106  0.00  0.00    +0.000 A 
ATOM     28  C   UNL     1      -2.068  12.860  21.444  0.00  0.00    +0.000 A 
ATOM     29  C   UNL     1      -2.428  14.154  22.106  0.00  0.00    +0.000 C 
ATOM     30  C   UNL     1      -1.280  11.910  22.090  0.00  0.00    +0.000 A 
ATOM     31  F   UNL     1      -1.069  12.022  23.408  0.00  0.00    +0.000 F 
ATOM     32  C   UNL     1      -0.614  10.905  21.382  0.00  0.00    +0.000 A 
ENDBRANCH  23  25
ENDBRANCH  20  21
ENDBRANCH  19  20
ENDBRANCH   4  19
TORSDOF 10
ENDMDL
MODEL 9
REMARK VINA RESULT:      -7.3      6.183      8.989
REMARK  Name = 
REMARK  13 active torsions:
REMARK  status: ('A' for Active; 'I' for Inactive)
REMARK    1  A    between atoms: C_1  and  C_2
REMARK    2  A    between atoms: C_2  and  N_3
REMARK    3  A    between atoms: N_3  and  C_4
REMARK    4  A    between atoms: N_3  and  C_6
REMARK    5  A    between atoms: C_4  and  C_5
REMARK    6  A    between atoms: C_6  and  C_7
REMARK    7  A    between atoms: C_7  and  C_8
REMARK    8  A    between atoms: C_8  and  N_9
REMARK    9  A    between atoms: C_12  and  S_13
REMARK   10  A    between atoms: S_13  and  C_14
REMARK   11  A    between atoms: C_14  and  C_15
REMARK   12  A    between atoms: N_17  and  C_18
REMARK   13  A    between atoms: C_21  and  C_22
REMARK                            x       y       z     vdW  Elec       q    Type
REMARK                         _______ _______ _______ _____ _____    ______ ____
ROOT
ATOM      1  N   UNL     1       4.074   4.795  17.522  0.00  0.00    +0.000 N 
ATOM      2  C   UNL     1       5.123   4.753  16.624  0.00  0.00    +0.000 A 
ATOM      3  C   UNL     1       6.299   5.302  16.894  0.00  0.00    +0.000 A 
ATOM      4  C   UNL     1       6.399   5.966  18.183  0.00  0.00    +0.000 A 
ATOM      5  N   UNL     1       5.452   6.034  19.055  0.00  0.00    +0.000 NA
ATOM      6  C   UNL     1       4.229   5.458  18.763  0.00  0.00    +0.000 A 
ATOM      7  O   UNL     1       3.321   5.540  19.579  0.00  0.00    +0.000 OA
ATOM      8  C   UNL     1       7.299   5.093  15.815  0.00  0.00    +0.000 C 
ATOM      9  C   UNL     1       6.409   4.652  14.651  0.00  0.00    +0.000 C 
ATOM     10  C   UNL     1       5.130   4.096  15.282  0.00  0.00    +0.000 C 
ENDROOT
BRANCH   1  11
ATOM     11  C   UNL     1       2.772   4.195  17.199  0.00  0.00    +0.000 C 
BRANCH  11  12
ATOM     12  C   UNL     1       2.676   2.679  17.404  0.00  0.00    +0.000 C 
BRANCH  12  13
ATOM     13  C   UNL     1       1.805   2.271  18.592  0.00  0.00    +0.000 C 
BRANCH  13  14
ATOM     14  N   UNL     1       2.569   1.905  19.786  0.00  0.00    +0.000 NA
BRANCH  14  16
ATOM     15  C   UNL     1       4.754   1.771  20.979  0.00  0.00    +0.000 C 
ATOM     16  C   UNL     1       4.023   1.973  19.648  0.00  0.00    +0.000 C 
ENDBRANCH  14  16
BRANCH  14  17
ATOM     17  C   UNL     1       2.073   2.663  20.930  0.00  0.00    +0.000 C 
ATOM     18  C   UNL     1       0.930   3.637  20.670  0.00  0.00    +0.000 C 
ENDBRANCH  14  17
ENDBRANCH  13  14
ENDBRANCH  12  13
ENDBRANCH  11  12
ENDBRANCH   1  11
BRANCH   4  19
ATOM     19  S   UNL     1       7.939   6.738  18.480  0.00  0.00    +0.000 S 
BRANCH  19  20
ATOM     20  C   UNL     1       7.766   8.275  17.544  0.00  0.00    +0.000 C 
BRANCH  20  21
ATOM     21  C   UNL     1       8.483   9.420  18.235  0.00  0.00    +0.000 C 
ATOM     22  O   UNL     1       9.078   9.230  19.293  0.00  0.00    +0.000 OA
ATOM     23  N   UNL     1       8.384  10.628  17.561  0.00  0.00    +0.000 N 
ATOM     24  H   UNL     1       7.670  10.684  16.834  0.00  0.00    +0.000 HD
BRANCH  23  25
ATOM     25  C   UNL     1       9.009  11.840  17.924  0.00  0.00    +0.000 A 
ATOM     26  C   UNL     1       8.357  13.075  17.921  0.00  0.00    +0.000 A 
ATOM     27  C   UNL     1       9.074  14.270  18.061  0.00  0.00    +0.000 A 
ATOM     28  C   UNL     1      10.444  14.245  18.295  0.00  0.00    +0.000 A 
ATOM     29  C   UNL     1      11.267  15.485  18.132  0.00  0.00    +0.000 C 
ATOM     30  C   UNL     1      11.038  13.006  18.523  0.00  0.00    +0.000 A 
ATOM     31  F   UNL     1      12.330  12.955  18.877  0.00  0.00    +0.000 F 
ATOM     32  C   UNL     1      10.354  11.809  18.288  0.00  0.00    +0.000 A 
ENDBRANCH  23  25
ENDBRANCH  20  21
ENDBRANCH  19  20
ENDBRANCH   4  19
TORSDOF 10
ENDMDL
