MODEL 1
REMARK VINA RESULT:      -7.2      0.000      0.000
REMARK  Name = 
REMARK  7 active torsions:
REMARK  status: ('A' for Active; 'I' for Inactive)
REMARK    1  A    between atoms: C_1  and  O_2
REMARK    2  A    between atoms: O_2  and  C_3
REMARK    3  A    between atoms: C_4  and  O_5
REMARK    4  A    between atoms: O_5  and  C_6
REMARK    5  A    between atoms: C_14  and  O_15
REMARK    6  A    between atoms: O_15  and  C_16
REMARK    7  A    between atoms: C_19  and  O_20
REMARK                            x       y       z     vdW  Elec       q    Type
REMARK                         _______ _______ _______ _____ _____    ______ ____
ROOT
ATOM      1  C   UNL     1       2.533   4.817  20.602  0.00  0.00    +0.000 A 
ATOM      2  C   UNL     1       3.747   4.405  19.883  0.00  0.00    +0.000 A 
ATOM      3  C   UNL     1       4.163   5.247  18.813  0.00  0.00    +0.000 A 
ATOM      4  C   UNL     1       3.397   6.396  18.589  0.00  0.00    +0.000 A 
ATOM      5  C   UNL     1       3.799   7.052  17.447  0.00  0.00    +0.000 A 
ATOM      6  N   UNL     1       3.280   8.269  17.056  0.00  0.00    +0.000 NA
ATOM      7  C   UNL     1       2.340   8.780  17.878  0.00  0.00    +0.000 A 
ATOM      8  C   UNL     1       1.840   8.129  18.995  0.00  0.00    +0.000 A 
ATOM      9  C   UNL     1       2.361   6.868  19.348  0.00  0.00    +0.000 A 
ATOM     10  C   UNL     1       1.890   6.055  20.388  0.00  0.00    +0.000 A 
ATOM     11  C   UNL     1       4.859   6.247  16.786  0.00  0.00    +0.000 A 
ATOM     12  C   UNL     1       5.401   6.469  15.466  0.00  0.00    +0.000 A 
ATOM     13  C   UNL     1       5.655   5.357  14.749  0.00  0.00    +0.000 A 
ATOM     14  C   UNL     1       7.105   5.082  14.983  0.00  0.00    +0.000 A 
ATOM     15  O   UNL     1       7.943   5.148  14.096  0.00  0.00    +0.000 OA
ATOM     16  C   UNL     1       7.414   4.635  16.382  0.00  0.00    +0.000 A 
ATOM     17  C   UNL     1       6.620   4.663  17.480  0.00  0.00    +0.000 A 
ATOM     18  C   UNL     1       5.278   5.268  17.660  0.00  0.00    +0.000 A 
ENDROOT
BRANCH   1  20
ATOM     19  C   UNL     1       1.135   2.990  21.180  0.00  0.00    +0.000 C 
ATOM     20  O   UNL     1       2.028   4.020  21.620  0.00  0.00    +0.000 OA
ENDBRANCH   1  20
BRANCH   2  21
ATOM     21  O   UNL     1       4.277   3.209  20.337  0.00  0.00    +0.000 OA
ATOM     22  C   UNL     1       4.268   2.081  19.492  0.00  0.00    +0.000 C 
ENDBRANCH   2  21
BRANCH  10  23
ATOM     23  O   UNL     1       0.848   6.639  21.055  0.00  0.00    +0.000 OA
ATOM     24  C   UNL     1       0.939   7.905  21.672  0.00  0.00    +0.000 C 
ENDBRANCH  10  23
BRANCH  13  25
ATOM     25  O   UNL     1       4.800   4.251  14.819  0.00  0.00    +0.000 OA
ATOM     26  H   UNL     1       4.935   3.830  15.686  0.00  0.00    +0.000 HD
ENDBRANCH  13  25
TORSDOF 4
ENDMDL
MODEL 2
REMARK VINA RESULT:      -6.7      2.199      4.242
REMARK  Name = 
REMARK  7 active torsions:
REMARK  status: ('A' for Active; 'I' for Inactive)
REMARK    1  A    between atoms: C_1  and  O_2
REMARK    2  A    between atoms: O_2  and  C_3
REMARK    3  A    between atoms: C_4  and  O_5
REMARK    4  A    between atoms: O_5  and  C_6
REMARK    5  A    between atoms: C_14  and  O_15
REMARK    6  A    between atoms: O_15  and  C_16
REMARK    7  A    between atoms: C_19  and  O_20
REMARK                            x       y       z     vdW  Elec       q    Type
REMARK                         _______ _______ _______ _____ _____    ______ ____
ROOT
ATOM      1  C   UNL     1       1.366   9.065  19.331  0.00  0.00    +0.000 A 
ATOM      2  C   UNL     1       2.263   8.803  18.196  0.00  0.00    +0.000 A 
ATOM      3  C   UNL     1       2.946   7.553  18.208  0.00  0.00    +0.000 A 
ATOM      4  C   UNL     1       2.658   6.695  19.274  0.00  0.00    +0.000 A 
ATOM      5  C   UNL     1       3.479   5.589  19.263  0.00  0.00    +0.000 A 
ATOM      6  N   UNL     1       3.334   4.536  20.141  0.00  0.00    +0.000 NA
ATOM      7  C   UNL     1       2.320   4.662  21.023  0.00  0.00    +0.000 A 
ATOM      8  C   UNL     1       1.515   5.785  21.133  0.00  0.00    +0.000 A 
ATOM      9  C   UNL     1       1.712   6.864  20.248  0.00  0.00    +0.000 A 
ATOM     10  C   UNL     1       1.042   8.093  20.302  0.00  0.00    +0.000 A 
ATOM     11  C   UNL     1       4.465   5.742  18.163  0.00  0.00    +0.000 A 
ATOM     12  C   UNL     1       5.628   4.914  17.936  0.00  0.00    +0.000 A 
ATOM     13  C   UNL     1       6.735   5.566  17.531  0.00  0.00    +0.000 A 
ATOM     14  C   UNL     1       6.718   5.446  16.041  0.00  0.00    +0.000 A 
ATOM     15  O   UNL     1       7.560   4.818  15.418  0.00  0.00    +0.000 OA
ATOM     16  C   UNL     1       5.623   6.239  15.386  0.00  0.00    +0.000 A 
ATOM     17  C   UNL     1       4.553   6.845  15.956  0.00  0.00    +0.000 A 
ATOM     18  C   UNL     1       4.068   6.786  17.357  0.00  0.00    +0.000 A 
ENDROOT
BRANCH   1  20
ATOM     19  C   UNL     1      -0.628  10.276  18.904  0.00  0.00    +0.000 C 
ATOM     20  O   UNL     1       0.707  10.283  19.424  0.00  0.00    +0.000 OA
ENDBRANCH   1  20
BRANCH   2  21
ATOM     21  O   UNL     1       2.343   9.857  17.302  0.00  0.00    +0.000 OA
ATOM     22  C   UNL     1       2.735  11.130  17.763  0.00  0.00    +0.000 C 
ENDBRANCH   2  21
BRANCH  10  23
ATOM     23  O   UNL     1       0.137   8.132  21.326  0.00  0.00    +0.000 OA
ATOM     24  C   UNL     1       0.210   9.060  22.387  0.00  0.00    +0.000 C 
ENDBRANCH  10  23
BRANCH  13  25
ATOM     25  O   UNL     1       7.046   6.832  18.042  0.00  0.00    +0.000 OA
ATOM     26  H   UNL     1       7.530   6.701  18.877  0.00  0.00    +0.000 HD
ENDBRANCH  13  25
TORSDOF 4
ENDMDL
MODEL 3
REMARK VINA RESULT:      -6.6      1.927      3.752
REMARK  Name = 
REMARK  7 active torsions:
REMARK  status: ('A' for Active; 'I' for Inactive)
REMARK    1  A    between atoms: C_1  and  O_2
REMARK    2  A    between atoms: O_2  and  C_3
REMARK    3  A    between atoms: C_4  and  O_5
REMARK    4  A    between atoms: O_5  and  C_6
REMARK    5  A    between atoms: C_14  and  O_15
REMARK    6  A    between atoms: O_15  and  C_16
REMARK    7  A    between atoms: C_19  and  O_20
REMARK                            x       y       z     vdW  Elec       q    Type
REMARK                         _______ _______ _______ _____ _____    ______ ____
ROOT
ATOM      1  C   UNL     1       2.161   5.849  20.133  0.00  0.00    +0.000 A 
ATOM      2  C   UNL     1       2.924   6.409  19.008  0.00  0.00    +0.000 A 
ATOM      3  C   UNL     1       3.507   5.469  18.111  0.00  0.00    +0.000 A 
ATOM      4  C   UNL     1       3.255   4.118  18.373  0.00  0.00    +0.000 A 
ATOM      5  C   UNL     1       3.984   3.301  17.537  0.00  0.00    +0.000 A 
ATOM      6  N   UNL     1       3.841   1.929  17.514  0.00  0.00    +0.000 NA
ATOM      7  C   UNL     1       2.928   1.435  18.374  0.00  0.00    +0.000 A 
ATOM      8  C   UNL     1       2.225   2.199  19.293  0.00  0.00    +0.000 A 
ATOM      9  C   UNL     1       2.421   3.594  19.322  0.00  0.00    +0.000 A 
ATOM     10  C   UNL     1       1.855   4.476  20.253  0.00  0.00    +0.000 A 
ATOM     11  C   UNL     1       4.872   4.149  16.701  0.00  0.00    +0.000 A 
ATOM     12  C   UNL     1       5.940   3.686  15.847  0.00  0.00    +0.000 A 
ATOM     13  C   UNL     1       7.051   4.448  15.841  0.00  0.00    +0.000 A 
ATOM     14  C   UNL     1       6.885   5.345  14.658  0.00  0.00    +0.000 A 
ATOM     15  O   UNL     1       7.615   5.291  13.679  0.00  0.00    +0.000 OA
ATOM     16  C   UNL     1       5.799   6.368  14.826  0.00  0.00    +0.000 A 
ATOM     17  C   UNL     1       4.836   6.438  15.777  0.00  0.00    +0.000 A 
ATOM     18  C   UNL     1       4.482   5.464  16.838  0.00  0.00    +0.000 A 
ENDROOT
BRANCH   1  20
ATOM     19  C   UNL     1       0.327   7.229  20.730  0.00  0.00    +0.000 C 
ATOM     20  O   UNL     1       1.609   6.696  21.084  0.00  0.00    +0.000 OA
ENDBRANCH   1  20
BRANCH   2  21
ATOM     21  O   UNL     1       3.001   7.791  19.029  0.00  0.00    +0.000 OA
ATOM     22  C   UNL     1       2.456   8.532  17.961  0.00  0.00    +0.000 C 
ENDBRANCH   2  21
BRANCH  10  23
ATOM     23  O   UNL     1       1.056   3.822  21.149  0.00  0.00    +0.000 OA
ATOM     24  C   UNL     1       1.535   2.831  22.032  0.00  0.00    +0.000 C 
ENDBRANCH  10  23
BRANCH  13  25
ATOM     25  O   UNL     1       7.505   5.057  17.016  0.00  0.00    +0.000 OA
ATOM     26  H   UNL     1       8.474   5.133  16.953  0.00  0.00    +0.000 HD
ENDBRANCH  13  25
TORSDOF 4
ENDMDL
MODEL 4
REMARK VINA RESULT:      -6.3      6.856     11.301
REMARK  Name = 
REMARK  7 active torsions:
REMARK  status: ('A' for Active; 'I' for Inactive)
REMARK    1  A    between atoms: C_1  and  O_2
REMARK    2  A    between atoms: O_2  and  C_3
REMARK    3  A    between atoms: C_4  and  O_5
REMARK    4  A    between atoms: O_5  and  C_6
REMARK    5  A    between atoms: C_14  and  O_15
REMARK    6  A    between atoms: O_15  and  C_16
REMARK    7  A    between atoms: C_19  and  O_20
REMARK                            x       y       z     vdW  Elec       q    Type
REMARK                         _______ _______ _______ _____ _____    ______ ____
ROOT
ATOM      1  C   UNL     1       0.341  11.938  20.460  0.00  0.00    +0.000 A 
ATOM      2  C   UNL     1      -0.776  12.426  21.283  0.00  0.00    +0.000 A 
ATOM      3  C   UNL     1      -2.075  12.319  20.710  0.00  0.00    +0.000 A 
ATOM      4  C   UNL     1      -2.152  11.724  19.446  0.00  0.00    +0.000 A 
ATOM      5  C   UNL     1      -3.427  11.808  18.930  0.00  0.00    +0.000 A 
ATOM      6  N   UNL     1      -3.799  11.207  17.745  0.00  0.00    +0.000 NA
ATOM      7  C   UNL     1      -2.821  10.522  17.119  0.00  0.00    +0.000 A 
ATOM      8  C   UNL     1      -1.503  10.471  17.549  0.00  0.00    +0.000 A 
ATOM      9  C   UNL     1      -1.142  11.128  18.742  0.00  0.00    +0.000 A 
ATOM     10  C   UNL     1       0.160  11.242  19.246  0.00  0.00    +0.000 A 
ATOM     11  C   UNL     1      -4.266  12.599  19.866  0.00  0.00    +0.000 A 
ATOM     12  C   UNL     1      -5.598  13.096  19.608  0.00  0.00    +0.000 A 
ATOM     13  C   UNL     1      -5.858  14.330  20.080  0.00  0.00    +0.000 A 
ATOM     14  C   UNL     1      -6.516  14.096  21.402  0.00  0.00    +0.000 A 
ATOM     15  O   UNL     1      -7.680  14.393  21.624  0.00  0.00    +0.000 OA
ATOM     16  C   UNL     1      -5.587  13.546  22.446  0.00  0.00    +0.000 A 
ATOM     17  C   UNL     1      -4.339  13.041  22.293  0.00  0.00    +0.000 A 
ATOM     18  C   UNL     1      -3.581  12.751  21.052  0.00  0.00    +0.000 A 
ENDROOT
BRANCH   1  20
ATOM     19  C   UNL     1       2.328  13.232  20.466  0.00  0.00    +0.000 C 
ATOM     20  O   UNL     1       1.644  12.059  20.922  0.00  0.00    +0.000 OA
ENDBRANCH   1  20
BRANCH   2  21
ATOM     21  O   UNL     1      -0.373  12.971  22.490  0.00  0.00    +0.000 OA
ATOM     22  C   UNL     1      -0.582  14.343  22.735  0.00  0.00    +0.000 C 
ENDBRANCH   2  21
BRANCH  10  23
ATOM     23  O   UNL     1       1.071  10.614  18.441  0.00  0.00    +0.000 OA
ATOM     24  C   UNL     1       1.581   9.326  18.709  0.00  0.00    +0.000 C 
ENDBRANCH  10  23
BRANCH  13  25
ATOM     25  O   UNL     1      -4.878  15.329  20.049  0.00  0.00    +0.000 OA
ATOM     26  H   UNL     1      -5.069  15.951  20.774  0.00  0.00    +0.000 HD
ENDBRANCH  13  25
TORSDOF 4
ENDMDL
MODEL 5
REMARK VINA RESULT:      -6.2      7.081     10.239
REMARK  Name = 
REMARK  7 active torsions:
REMARK  status: ('A' for Active; 'I' for Inactive)
REMARK    1  A    between atoms: C_1  and  O_2
REMARK    2  A    between atoms: O_2  and  C_3
REMARK    3  A    between atoms: C_4  and  O_5
REMARK    4  A    between atoms: O_5  and  C_6
REMARK    5  A    between atoms: C_14  and  O_15
REMARK    6  A    between atoms: O_15  and  C_16
REMARK    7  A    between atoms: C_19  and  O_20
REMARK                            x       y       z     vdW  Elec       q    Type
REMARK                         _______ _______ _______ _____ _____    ______ ____
ROOT
ATOM      1  C   UNL     1      -4.925  13.412  21.793  0.00  0.00    +0.000 A 
ATOM      2  C   UNL     1      -3.467  13.408  21.602  0.00  0.00    +0.000 A 
ATOM      3  C   UNL     1      -2.986  12.763  20.427  0.00  0.00    +0.000 A 
ATOM      4  C   UNL     1      -3.955  12.241  19.562  0.00  0.00    +0.000 A 
ATOM      5  C   UNL     1      -3.377  11.517  18.543  0.00  0.00    +0.000 A 
ATOM      6  N   UNL     1      -4.099  10.985  17.495  0.00  0.00    +0.000 NA
ATOM      7  C   UNL     1      -5.426  11.226  17.535  0.00  0.00    +0.000 A 
ATOM      8  C   UNL     1      -6.072  11.879  18.574  0.00  0.00    +0.000 A 
ATOM      9  C   UNL     1      -5.313  12.376  19.652  0.00  0.00    +0.000 A 
ATOM     10  C   UNL     1      -5.835  12.968  20.810  0.00  0.00    +0.000 A 
ATOM     11  C   UNL     1      -1.911  11.458  18.775  0.00  0.00    +0.000 A 
ATOM     12  C   UNL     1      -0.966  10.629  18.063  0.00  0.00    +0.000 A 
ATOM     13  C   UNL     1       0.010  10.085  18.815  0.00  0.00    +0.000 A 
ATOM     14  C   UNL     1       1.165  11.023  18.669  0.00  0.00    +0.000 A 
ATOM     15  O   UNL     1       2.208  10.708  18.116  0.00  0.00    +0.000 OA
ATOM     16  C   UNL     1       0.950  12.350  19.338  0.00  0.00    +0.000 A 
ATOM     17  C   UNL     1      -0.193  12.873  19.844  0.00  0.00    +0.000 A 
ATOM     18  C   UNL     1      -1.584  12.363  19.761  0.00  0.00    +0.000 A 
ENDROOT
BRANCH   1  20
ATOM     19  C   UNL     1      -5.937  13.013  23.901  0.00  0.00    +0.000 C 
ATOM     20  O   UNL     1      -5.470  13.970  22.942  0.00  0.00    +0.000 OA
ENDBRANCH   1  20
BRANCH   2  21
ATOM     21  O   UNL     1      -2.773  14.000  22.644  0.00  0.00    +0.000 OA
ATOM     22  C   UNL     1      -1.920  13.214  23.444  0.00  0.00    +0.000 C 
ENDBRANCH   2  21
BRANCH  10  23
ATOM     23  O   UNL     1      -7.201  13.028  20.776  0.00  0.00    +0.000 OA
ATOM     24  C   UNL     1      -7.917  14.231  20.590  0.00  0.00    +0.000 C 
ENDBRANCH  10  23
BRANCH  13  25
ATOM     25  O   UNL     1      -0.255   9.634  20.113  0.00  0.00    +0.000 OA
ATOM     26  H   UNL     1      -1.197   9.803  20.296  0.00  0.00    +0.000 HD
ENDBRANCH  13  25
TORSDOF 4
ENDMDL
MODEL 6
REMARK VINA RESULT:      -6.2      7.975     12.248
REMARK  Name = 
REMARK  7 active torsions:
REMARK  status: ('A' for Active; 'I' for Inactive)
REMARK    1  A    between atoms: C_1  and  O_2
REMARK    2  A    between atoms: O_2  and  C_3
REMARK    3  A    between atoms: C_4  and  O_5
REMARK    4  A    between atoms: O_5  and  C_6
REMARK    5  A    between atoms: C_14  and  O_15
REMARK    6  A    between atoms: O_15  and  C_16
REMARK    7  A    between atoms: C_19  and  O_20
REMARK                            x       y       z     vdW  Elec       q    Type
REMARK                         _______ _______ _______ _____ _____    ______ ____
ROOT
ATOM      1  C   UNL     1      -0.046  13.500  21.006  0.00  0.00    +0.000 A 
ATOM      2  C   UNL     1      -1.028  13.456  22.099  0.00  0.00    +0.000 A 
ATOM      3  C   UNL     1      -2.335  13.007  21.756  0.00  0.00    +0.000 A 
ATOM      4  C   UNL     1      -2.531  12.615  20.427  0.00  0.00    +0.000 A 
ATOM      5  C   UNL     1      -3.858  12.342  20.176  0.00  0.00    +0.000 A 
ATOM      6  N   UNL     1      -4.306  11.835  18.974  0.00  0.00    +0.000 NA
ATOM      7  C   UNL     1      -3.347  11.620  18.050  0.00  0.00    +0.000 A 
ATOM      8  C   UNL     1      -2.011  11.950  18.218  0.00  0.00    +0.000 A 
ATOM      9  C   UNL     1      -1.587  12.505  19.443  0.00  0.00    +0.000 A 
ATOM     10  C   UNL     1      -0.296  12.973  19.720  0.00  0.00    +0.000 A 
ATOM     11  C   UNL     1      -4.645  12.657  21.395  0.00  0.00    +0.000 A 
ATOM     12  C   UNL     1      -6.086  12.710  21.491  0.00  0.00    +0.000 A 
ATOM     13  C   UNL     1      -6.580  13.700  22.259  0.00  0.00    +0.000 A 
ATOM     14  C   UNL     1      -6.804  13.065  23.594  0.00  0.00    +0.000 A 
ATOM     15  O   UNL     1      -7.916  12.917  24.078  0.00  0.00    +0.000 OA
ATOM     16  C   UNL     1      -5.534  12.709  24.311  0.00  0.00    +0.000 A 
ATOM     17  C   UNL     1      -4.266  12.681  23.834  0.00  0.00    +0.000 A 
ATOM     18  C   UNL     1      -3.774  12.851  22.445  0.00  0.00    +0.000 A 
ENDROOT
BRANCH   1  20
ATOM     19  C   UNL     1       1.432  15.350  20.869  0.00  0.00    +0.000 C 
ATOM     20  O   UNL     1       1.234  13.981  21.244  0.00  0.00    +0.000 OA
ENDBRANCH   1  20
BRANCH   2  21
ATOM     21  O   UNL     1      -0.530  13.919  23.305  0.00  0.00    +0.000 OA
ATOM     22  C   UNL     1      -1.205  14.953  23.984  0.00  0.00    +0.000 C 
ENDBRANCH   2  21
BRANCH  10  23
ATOM     23  O   UNL     1       0.540  12.815  18.650  0.00  0.00    +0.000 OA
ATOM     24  C   UNL     1       1.641  11.932  18.653  0.00  0.00    +0.000 C 
ENDBRANCH  10  23
BRANCH  13  25
ATOM     25  O   UNL     1      -5.976  14.963  22.273  0.00  0.00    +0.000 OA
ATOM     26  H   UNL     1      -6.579  15.572  22.735  0.00  0.00    +0.000 HD
ENDBRANCH  13  25
TORSDOF 4
ENDMDL
MODEL 7
REMARK VINA RESULT:      -6.1      6.746      9.967
REMARK  Name = 
REMARK  7 active torsions:
REMARK  status: ('A' for Active; 'I' for Inactive)
REMARK    1  A    between atoms: C_1  and  O_2
REMARK    2  A    between atoms: O_2  and  C_3
REMARK    3  A    between atoms: C_4  and  O_5
REMARK    4  A    between atoms: O_5  and  C_6
REMARK    5  A    between atoms: C_14  and  O_15
REMARK    6  A    between atoms: O_15  and  C_16
REMARK    7  A    between atoms: C_19  and  O_20
REMARK                            x       y       z     vdW  Elec       q    Type
REMARK                         _______ _______ _______ _____ _____    ______ ____
ROOT
ATOM      1  C   UNL     1      -4.170  13.177  22.787  0.00  0.00    +0.000 A 
ATOM      2  C   UNL     1      -2.740  13.089  22.459  0.00  0.00    +0.000 A 
ATOM      3  C   UNL     1      -2.422  12.671  21.135  0.00  0.00    +0.000 A 
ATOM      4  C   UNL     1      -3.503  12.433  20.279  0.00  0.00    +0.000 A 
ATOM      5  C   UNL     1      -3.085  11.896  19.081  0.00  0.00    +0.000 A 
ATOM      6  N   UNL     1      -3.938  11.666  18.022  0.00  0.00    +0.000 NA
ATOM      7  C   UNL     1      -5.225  12.006  18.240  0.00  0.00    +0.000 A 
ATOM      8  C   UNL     1      -5.716  12.474  19.449  0.00  0.00    +0.000 A 
ATOM      9  C   UNL     1      -4.829  12.662  20.527  0.00  0.00    +0.000 A 
ATOM     10  C   UNL     1      -5.195  13.034  21.827  0.00  0.00    +0.000 A 
ATOM     11  C   UNL     1      -1.619  11.663  19.152  0.00  0.00    +0.000 A 
ATOM     12  C   UNL     1      -0.824  10.928  18.197  0.00  0.00    +0.000 A 
ATOM     13  C   UNL     1       0.144  10.152  18.722  0.00  0.00    +0.000 A 
ATOM     14  C   UNL     1       1.376  10.997  18.660  0.00  0.00    +0.000 A 
ATOM     15  O   UNL     1       2.335  10.719  17.956  0.00  0.00    +0.000 OA
ATOM     16  C   UNL     1       1.354  12.163  19.606  0.00  0.00    +0.000 A 
ATOM     17  C   UNL     1       0.314  12.662  20.317  0.00  0.00    +0.000 A 
ATOM     18  C   UNL     1      -1.124  12.303  20.267  0.00  0.00    +0.000 A 
ENDROOT
BRANCH   1  20
ATOM     19  C   UNL     1      -4.740  12.407  24.957  0.00  0.00    +0.000 C 
ATOM     20  O   UNL     1      -4.564  13.521  24.074  0.00  0.00    +0.000 OA
ENDBRANCH   1  20
BRANCH   2  21
ATOM     21  O   UNL     1      -1.910  13.381  23.528  0.00  0.00    +0.000 OA
ATOM     22  C   UNL     1      -1.151  14.568  23.512  0.00  0.00    +0.000 C 
ENDBRANCH   2  21
BRANCH  10  23
ATOM     23  O   UNL     1      -6.546  13.218  21.940  0.00  0.00    +0.000 OA
ATOM     24  C   UNL     1      -7.411  12.258  22.507  0.00  0.00    +0.000 C 
ENDBRANCH  10  23
BRANCH  13  25
ATOM     25  O   UNL     1      -0.066   9.458  19.919  0.00  0.00    +0.000 OA
ATOM     26  H   UNL     1      -0.073   8.507  19.710  0.00  0.00    +0.000 HD
ENDBRANCH  13  25
TORSDOF 4
ENDMDL
MODEL 8
REMARK VINA RESULT:      -6.1      6.955     10.649
REMARK  Name = 
REMARK  7 active torsions:
REMARK  status: ('A' for Active; 'I' for Inactive)
REMARK    1  A    between atoms: C_1  and  O_2
REMARK    2  A    between atoms: O_2  and  C_3
REMARK    3  A    between atoms: C_4  and  O_5
REMARK    4  A    between atoms: O_5  and  C_6
REMARK    5  A    between atoms: C_14  and  O_15
REMARK    6  A    between atoms: O_15  and  C_16
REMARK    7  A    between atoms: C_19  and  O_20
REMARK                            x       y       z     vdW  Elec       q    Type
REMARK                         _______ _______ _______ _____ _____    ______ ____
ROOT
ATOM      1  C   UNL     1       0.524  14.407  19.709  0.00  0.00    +0.000 A 
ATOM      2  C   UNL     1      -0.928  14.254  19.878  0.00  0.00    +0.000 A 
ATOM      3  C   UNL     1      -1.486  13.012  19.461  0.00  0.00    +0.000 A 
ATOM      4  C   UNL     1      -0.585  12.057  18.976  0.00  0.00    +0.000 A 
ATOM      5  C   UNL     1      -1.245  10.959  18.468  0.00  0.00    +0.000 A 
ATOM      6  N   UNL     1      -0.592   9.828  18.024  0.00  0.00    +0.000 NA
ATOM      7  C   UNL     1       0.753   9.868  18.124  0.00  0.00    +0.000 A 
ATOM      8  C   UNL     1       1.473  10.973  18.552  0.00  0.00    +0.000 A 
ATOM      9  C   UNL     1       0.780  12.131  18.961  0.00  0.00    +0.000 A 
ATOM     10  C   UNL     1       1.373  13.347  19.324  0.00  0.00    +0.000 A 
ATOM     11  C   UNL     1      -2.707  11.218  18.522  0.00  0.00    +0.000 A 
ATOM     12  C   UNL     1      -3.739  10.420  17.903  0.00  0.00    +0.000 A 
ATOM     13  C   UNL     1      -4.758  11.111  17.355  0.00  0.00    +0.000 A 
ATOM     14  C   UNL     1      -5.812  11.130  18.414  0.00  0.00    +0.000 A 
ATOM     15  O   UNL     1      -6.888  10.565  18.288  0.00  0.00    +0.000 OA
ATOM     16  C   UNL     1      -5.455  11.977  19.602  0.00  0.00    +0.000 A 
ATOM     17  C   UNL     1      -4.259  12.522  19.930  0.00  0.00    +0.000 A 
ATOM     18  C   UNL     1      -2.929  12.332  19.302  0.00  0.00    +0.000 A 
ENDROOT
BRANCH   1  20
ATOM     19  C   UNL     1       1.622  15.678  21.384  0.00  0.00    +0.000 C 
ATOM     20  O   UNL     1       1.136  15.608  20.038  0.00  0.00    +0.000 OA
ENDBRANCH   1  20
BRANCH   2  21
ATOM     21  O   UNL     1      -1.547  15.388  20.378  0.00  0.00    +0.000 OA
ATOM     22  C   UNL     1      -2.147  15.346  21.652  0.00  0.00    +0.000 C 
ENDBRANCH   2  21
BRANCH  10  23
ATOM     23  O   UNL     1       2.737  13.287  19.253  0.00  0.00    +0.000 OA
ATOM     24  C   UNL     1       3.498  14.056  18.346  0.00  0.00    +0.000 C 
ENDBRANCH  10  23
BRANCH  13  25
ATOM     25  O   UNL     1      -4.525  12.324  16.697  0.00  0.00    +0.000 OA
ATOM     26  H   UNL     1      -4.202  12.115  15.802  0.00  0.00    +0.000 HD
ENDBRANCH  13  25
TORSDOF 4
ENDMDL
MODEL 9
REMARK VINA RESULT:      -6.1      7.161     10.167
REMARK  Name = 
REMARK  7 active torsions:
REMARK  status: ('A' for Active; 'I' for Inactive)
REMARK    1  A    between atoms: C_1  and  O_2
REMARK    2  A    between atoms: O_2  and  C_3
REMARK    3  A    between atoms: C_4  and  O_5
REMARK    4  A    between atoms: O_5  and  C_6
REMARK    5  A    between atoms: C_14  and  O_15
REMARK    6  A    between atoms: O_15  and  C_16
REMARK    7  A    between atoms: C_19  and  O_20
REMARK                            x       y       z     vdW  Elec       q    Type
REMARK                         _______ _______ _______ _____ _____    ______ ____
ROOT
ATOM      1  C   UNL     1      -5.693  12.532  18.634  0.00  0.00    +0.000 A 
ATOM      2  C   UNL     1      -4.573  11.731  18.121  0.00  0.00    +0.000 A 
ATOM      3  C   UNL     1      -3.381  11.739  18.901  0.00  0.00    +0.000 A 
ATOM      4  C   UNL     1      -3.421  12.473  20.091  0.00  0.00    +0.000 A 
ATOM      5  C   UNL     1      -2.179  12.532  20.685  0.00  0.00    +0.000 A 
ATOM      6  N   UNL     1      -1.963  13.104  21.921  0.00  0.00    +0.000 NA
ATOM      7  C   UNL     1      -3.062  13.607  22.518  0.00  0.00    +0.000 A 
ATOM      8  C   UNL     1      -4.320  13.648  21.935  0.00  0.00    +0.000 A 
ATOM      9  C   UNL     1      -4.503  13.092  20.653  0.00  0.00    +0.000 A 
ATOM     10  C   UNL     1      -5.687  13.145  19.905  0.00  0.00    +0.000 A 
ATOM     11  C   UNL     1      -1.195  11.868  19.791  0.00  0.00    +0.000 A 
ATOM     12  C   UNL     1       0.242  11.891  19.936  0.00  0.00    +0.000 A 
ATOM     13  C   UNL     1       0.940  12.002  18.789  0.00  0.00    +0.000 A 
ATOM     14  C   UNL     1       1.290  10.595  18.425  0.00  0.00    +0.000 A 
ATOM     15  O   UNL     1       2.439  10.182  18.409  0.00  0.00    +0.000 OA
ATOM     16  C   UNL     1       0.108   9.772  18.000  0.00  0.00    +0.000 A 
ATOM     17  C   UNL     1      -1.213  10.056  18.115  0.00  0.00    +0.000 A 
ATOM     18  C   UNL     1      -1.880  11.182  18.813  0.00  0.00    +0.000 A 
ENDROOT
BRANCH   1  20
ATOM     19  C   UNL     1      -6.959  13.782  17.065  0.00  0.00    +0.000 C 
ATOM     20  O   UNL     1      -6.870  12.623  17.903  0.00  0.00    +0.000 OA
ENDBRANCH   1  20
BRANCH   2  21
ATOM     21  O   UNL     1      -4.841  11.123  16.906  0.00  0.00    +0.000 OA
ATOM     22  C   UNL     1      -3.867  11.145  15.888  0.00  0.00    +0.000 C 
ENDBRANCH   2  21
BRANCH  10  23
ATOM     23  O   UNL     1      -6.681  13.801  20.577  0.00  0.00    +0.000 OA
ATOM     24  C   UNL     1      -7.813  13.148  21.112  0.00  0.00    +0.000 C 
ENDBRANCH  10  23
BRANCH  13  25
ATOM     25  O   UNL     1       0.474  12.810  17.746  0.00  0.00    +0.000 OA
ATOM     26  H   UNL     1       0.793  13.716  17.910  0.00  0.00    +0.000 HD
ENDBRANCH  13  25
TORSDOF 4
ENDMDL
