MODEL 1
REMARK VINA RESULT:      -7.5      0.000      0.000
REMARK  Name = 
REMARK  14 active torsions:
REMARK  status: ('A' for Active; 'I' for Inactive)
REMARK    1  A    between atoms: C_1  and  O_2
REMARK    2  A    between atoms: O_2  and  C_3
REMARK    3  A    between atoms: C_6  and  O_7
REMARK    4  A    between atoms: O_7  and  C_8
REMARK    5  A    between atoms: C_8  and  C_9
REMARK    6  A    between atoms: N_11  and  C_12
REMARK    7  A    between atoms: C_12  and  C_13
REMARK    8  A    between atoms: C_12  and  C_17
REMARK    9  A    between atoms: C_13  and  C_14
REMARK   10  A    between atoms: C_14  and  O_16
REMARK   11  A    between atoms: C_20  and  O_21
REMARK   12  A    between atoms: O_21  and  C_22
REMARK   13  A    between atoms: C_23  and  O_24
REMARK   14  A    between atoms: O_24  and  C_25
REMARK                            x       y       z     vdW  Elec       q    Type
REMARK                         _______ _______ _______ _____ _____    ______ ____
ROOT
ATOM      1  C   UNL     1       3.044   4.926  18.250  0.00  0.00    +0.000 C 
ENDROOT
BRANCH   1   2
ATOM      2  C   UNL     1       4.228   5.057  17.295  0.00  0.00    +0.000 A 
ATOM      3  C   UNL     1       4.409   4.200  16.208  0.00  0.00    +0.000 A 
ATOM      4  C   UNL     1       5.526   4.329  15.383  0.00  0.00    +0.000 A 
ATOM      5  C   UNL     1       6.501   5.306  15.620  0.00  0.00    +0.000 A 
ATOM      6  C   UNL     1       6.343   6.183  16.705  0.00  0.00    +0.000 A 
ATOM      7  C   UNL     1       5.205   6.050  17.525  0.00  0.00    +0.000 A 
BRANCH   5   8
ATOM      8  O   UNL     1       7.513   5.243  14.699  0.00  0.00    +0.000 OA
ATOM      9  C   UNL     1       7.247   4.720  13.408  0.00  0.00    +0.000 C 
ENDBRANCH   5   8
BRANCH   6  10
ATOM     10  O   UNL     1       7.314   7.123  16.918  0.00  0.00    +0.000 OA
ATOM     11  C   UNL     1       7.867   7.262  18.219  0.00  0.00    +0.000 C 
ENDBRANCH   6  10
ENDBRANCH   1   2
BRANCH   1  14
ATOM     12  C   UNL     1       2.145   6.406  20.052  0.00  0.00    +0.000 C 
ATOM     13  O   UNL     1       2.082   5.501  20.881  0.00  0.00    +0.000 OA
ATOM     14  N   UNL     1       2.577   6.209  18.758  0.00  0.00    +0.000 N 
ATOM     15  H   UNL     1       2.550   6.985  18.103  0.00  0.00    +0.000 HD
BRANCH  12  16
ATOM     16  C   UNL     1       1.725   7.844  20.367  0.00  0.00    +0.000 C 
BRANCH  16  17
ATOM     17  O   UNL     1       0.664   7.814  21.314  0.00  0.00    +0.000 OA
BRANCH  17  21
ATOM     18  C   UNL     1      -1.125  11.516  22.048  0.00  0.00    +0.000 A 
ATOM     19  C   UNL     1      -0.744  11.120  20.767  0.00  0.00    +0.000 A 
ATOM     20  C   UNL     1      -0.144   9.876  20.560  0.00  0.00    +0.000 A 
ATOM     21  C   UNL     1       0.115   9.026  21.637  0.00  0.00    +0.000 A 
ATOM     22  C   UNL     1      -0.246   9.429  22.922  0.00  0.00    +0.000 A 
ATOM     23  C   UNL     1      -0.865  10.671  23.127  0.00  0.00    +0.000 A 
BRANCH  18  25
ATOM     24  C   UNL     1      -1.245  13.583  23.192  0.00  0.00    +0.000 C 
ATOM     25  O   UNL     1      -1.707  12.751  22.133  0.00  0.00    +0.000 OA
ENDBRANCH  18  25
ENDBRANCH  17  21
ENDBRANCH  16  17
ENDBRANCH  12  16
ENDBRANCH   1  14
BRANCH   1  26
ATOM     26  C   UNL     1       1.898   4.093  17.650  0.00  0.00    +0.000 C 
BRANCH  26  27
ATOM     27  C   UNL     1       1.684   2.769  18.344  0.00  0.00    +0.000 C 
ATOM     28  O   UNL     1       1.045   2.618  19.376  0.00  0.00    +0.000 OA
BRANCH  27  29
ATOM     29  O   UNL     1       2.355   1.751  17.759  0.00  0.00    +0.000 OA
ATOM     30  H   UNL     1       2.779   1.973  16.908  0.00  0.00    +0.000 HD
ENDBRANCH  27  29
ENDBRANCH  26  27
ENDBRANCH   1  26
TORSDOF 11
ENDMDL
MODEL 2
REMARK VINA RESULT:      -7.4      4.258      7.858
REMARK  Name = 
REMARK  14 active torsions:
REMARK  status: ('A' for Active; 'I' for Inactive)
REMARK    1  A    between atoms: C_1  and  O_2
REMARK    2  A    between atoms: O_2  and  C_3
REMARK    3  A    between atoms: C_6  and  O_7
REMARK    4  A    between atoms: O_7  and  C_8
REMARK    5  A    between atoms: C_8  and  C_9
REMARK    6  A    between atoms: N_11  and  C_12
REMARK    7  A    between atoms: C_12  and  C_13
REMARK    8  A    between atoms: C_12  and  C_17
REMARK    9  A    between atoms: C_13  and  C_14
REMARK   10  A    between atoms: C_14  and  O_16
REMARK   11  A    between atoms: C_20  and  O_21
REMARK   12  A    between atoms: O_21  and  C_22
REMARK   13  A    between atoms: C_23  and  O_24
REMARK   14  A    between atoms: O_24  and  C_25
REMARK                            x       y       z     vdW  Elec       q    Type
REMARK                         _______ _______ _______ _____ _____    ______ ____
ROOT
ATOM      1  C   UNL     1       5.923   6.029  16.136  0.00  0.00    +0.000 C 
ENDROOT
BRANCH   1   2
ATOM      2  C   UNL     1       4.667   5.601  16.890  0.00  0.00    +0.000 A 
ATOM      3  C   UNL     1       3.881   6.508  17.606  0.00  0.00    +0.000 A 
ATOM      4  C   UNL     1       2.764   6.069  18.315  0.00  0.00    +0.000 A 
ATOM      5  C   UNL     1       2.399   4.717  18.343  0.00  0.00    +0.000 A 
ATOM      6  C   UNL     1       3.170   3.785  17.630  0.00  0.00    +0.000 A 
ATOM      7  C   UNL     1       4.291   4.241  16.909  0.00  0.00    +0.000 A 
BRANCH   5   8
ATOM      8  O   UNL     1       1.283   4.511  19.109  0.00  0.00    +0.000 OA
ATOM      9  C   UNL     1       1.431   4.143  20.470  0.00  0.00    +0.000 C 
ENDBRANCH   5   8
BRANCH   6  10
ATOM     10  O   UNL     1       2.796   2.470  17.681  0.00  0.00    +0.000 OA
ATOM     11  C   UNL     1       3.563   1.564  18.461  0.00  0.00    +0.000 C 
ENDBRANCH   6  10
ENDBRANCH   1   2
BRANCH   1  14
ATOM     12  C   UNL     1       7.542   6.660  17.933  0.00  0.00    +0.000 C 
ATOM     13  O   UNL     1       7.628   5.517  18.374  0.00  0.00    +0.000 OA
ATOM     14  N   UNL     1       6.728   6.995  16.872  0.00  0.00    +0.000 N 
ATOM     15  H   UNL     1       6.655   7.969  16.592  0.00  0.00    +0.000 HD
BRANCH  12  16
ATOM     16  C   UNL     1       8.313   7.838  18.535  0.00  0.00    +0.000 C 
BRANCH  16  17
ATOM     17  O   UNL     1       8.000   9.014  17.800  0.00  0.00    +0.000 OA
BRANCH  17  21
ATOM     18  C   UNL     1       9.889  12.407  19.337  0.00  0.00    +0.000 A 
ATOM     19  C   UNL     1       9.943  11.174  19.984  0.00  0.00    +0.000 A 
ATOM     20  C   UNL     1       9.295  10.061  19.443  0.00  0.00    +0.000 A 
ATOM     21  C   UNL     1       8.554  10.176  18.265  0.00  0.00    +0.000 A 
ATOM     22  C   UNL     1       8.481  11.414  17.627  0.00  0.00    +0.000 A 
ATOM     23  C   UNL     1       9.147  12.527  18.162  0.00  0.00    +0.000 A 
BRANCH  18  25
ATOM     24  C   UNL     1      11.928  13.582  19.580  0.00  0.00    +0.000 C 
ATOM     25  O   UNL     1      10.563  13.424  19.955  0.00  0.00    +0.000 OA
ENDBRANCH  18  25
ENDBRANCH  17  21
ENDBRANCH  16  17
ENDBRANCH  12  16
ENDBRANCH   1  14
BRANCH   1  26
ATOM     26  C   UNL     1       6.758   4.827  15.661  0.00  0.00    +0.000 C 
BRANCH  26  27
ATOM     27  C   UNL     1       6.965   4.787  14.165  0.00  0.00    +0.000 C 
ATOM     28  O   UNL     1       7.686   5.553  13.540  0.00  0.00    +0.000 OA
BRANCH  27  29
ATOM     29  O   UNL     1       6.192   3.864  13.550  0.00  0.00    +0.000 OA
ATOM     30  H   UNL     1       6.529   2.949  13.595  0.00  0.00    +0.000 HD
ENDBRANCH  27  29
ENDBRANCH  26  27
ENDBRANCH   1  26
TORSDOF 11
ENDMDL
MODEL 3
REMARK VINA RESULT:      -7.4      3.630      7.921
REMARK  Name = 
REMARK  14 active torsions:
REMARK  status: ('A' for Active; 'I' for Inactive)
REMARK    1  A    between atoms: C_1  and  O_2
REMARK    2  A    between atoms: O_2  and  C_3
REMARK    3  A    between atoms: C_6  and  O_7
REMARK    4  A    between atoms: O_7  and  C_8
REMARK    5  A    between atoms: C_8  and  C_9
REMARK    6  A    between atoms: N_11  and  C_12
REMARK    7  A    between atoms: C_12  and  C_13
REMARK    8  A    between atoms: C_12  and  C_17
REMARK    9  A    between atoms: C_13  and  C_14
REMARK   10  A    between atoms: C_14  and  O_16
REMARK   11  A    between atoms: C_20  and  O_21
REMARK   12  A    between atoms: O_21  and  C_22
REMARK   13  A    between atoms: C_23  and  O_24
REMARK   14  A    between atoms: O_24  and  C_25
REMARK                            x       y       z     vdW  Elec       q    Type
REMARK                         _______ _______ _______ _____ _____    ______ ____
ROOT
ATOM      1  C   UNL     1       5.641   6.251  16.443  0.00  0.00    +0.000 C 
ENDROOT
BRANCH   1   2
ATOM      2  C   UNL     1       4.583   6.069  17.527  0.00  0.00    +0.000 A 
ATOM      3  C   UNL     1       4.367   4.844  18.162  0.00  0.00    +0.000 A 
ATOM      4  C   UNL     1       3.362   4.712  19.119  0.00  0.00    +0.000 A 
ATOM      5  C   UNL     1       2.535   5.787  19.467  0.00  0.00    +0.000 A 
ATOM      6  C   UNL     1       2.731   7.031  18.845  0.00  0.00    +0.000 A 
ATOM      7  C   UNL     1       3.756   7.156  17.887  0.00  0.00    +0.000 A 
BRANCH   5   8
ATOM      8  O   UNL     1       1.612   5.429  20.413  0.00  0.00    +0.000 OA
ATOM      9  C   UNL     1       1.034   4.135  20.366  0.00  0.00    +0.000 C 
ENDBRANCH   5   8
BRANCH   6  10
ATOM     10  O   UNL     1       1.904   8.062  19.197  0.00  0.00    +0.000 OA
ATOM     11  C   UNL     1       1.614   9.071  18.240  0.00  0.00    +0.000 C 
ENDBRANCH   6  10
ENDBRANCH   1   2
BRANCH   1  14
ATOM     12  C   UNL     1       7.409   7.571  17.619  0.00  0.00    +0.000 C 
ATOM     13  O   UNL     1       7.631   6.693  18.449  0.00  0.00    +0.000 OA
ATOM     14  N   UNL     1       6.453   7.446  16.633  0.00  0.00    +0.000 N 
ATOM     15  H   UNL     1       6.275   8.231  16.013  0.00  0.00    +0.000 HD
BRANCH  12  16
ATOM     16  C   UNL     1       8.155   8.907  17.611  0.00  0.00    +0.000 C 
BRANCH  16  17
ATOM     17  O   UNL     1       8.767   9.098  18.881  0.00  0.00    +0.000 OA
BRANCH  17  21
ATOM     18  C   UNL     1      10.565  12.758  19.783  0.00  0.00    +0.000 A 
ATOM     19  C   UNL     1       9.976  11.962  20.763  0.00  0.00    +0.000 A 
ATOM     20  C   UNL     1       9.379  10.745  20.424  0.00  0.00    +0.000 A 
ATOM     21  C   UNL     1       9.333  10.326  19.094  0.00  0.00    +0.000 A 
ATOM     22  C   UNL     1       9.903  11.130  18.107  0.00  0.00    +0.000 A 
ATOM     23  C   UNL     1      10.518  12.344  18.451  0.00  0.00    +0.000 A 
BRANCH  18  25
ATOM     24  C   UNL     1      10.375  14.633  21.212  0.00  0.00    +0.000 C 
ATOM     25  O   UNL     1      11.122  13.925  20.229  0.00  0.00    +0.000 OA
ENDBRANCH  18  25
ENDBRANCH  17  21
ENDBRANCH  16  17
ENDBRANCH  12  16
ENDBRANCH   1  14
BRANCH   1  26
ATOM     26  C   UNL     1       6.506   4.992  16.252  0.00  0.00    +0.000 C 
BRANCH  26  27
ATOM     27  C   UNL     1       6.884   4.730  14.814  0.00  0.00    +0.000 C 
ATOM     28  O   UNL     1       6.456   3.805  14.137  0.00  0.00    +0.000 OA
BRANCH  27  29
ATOM     29  O   UNL     1       7.834   5.576  14.356  0.00  0.00    +0.000 OA
ATOM     30  H   UNL     1       8.096   6.279  14.981  0.00  0.00    +0.000 HD
ENDBRANCH  27  29
ENDBRANCH  26  27
ENDBRANCH   1  26
TORSDOF 11
ENDMDL
MODEL 4
REMARK VINA RESULT:      -7.4      2.262      7.394
REMARK  Name = 
REMARK  14 active torsions:
REMARK  status: ('A' for Active; 'I' for Inactive)
REMARK    1  A    between atoms: C_1  and  O_2
REMARK    2  A    between atoms: O_2  and  C_3
REMARK    3  A    between atoms: C_6  and  O_7
REMARK    4  A    between atoms: O_7  and  C_8
REMARK    5  A    between atoms: C_8  and  C_9
REMARK    6  A    between atoms: N_11  and  C_12
REMARK    7  A    between atoms: C_12  and  C_13
REMARK    8  A    between atoms: C_12  and  C_17
REMARK    9  A    between atoms: C_13  and  C_14
REMARK   10  A    between atoms: C_14  and  O_16
REMARK   11  A    between atoms: C_20  and  O_21
REMARK   12  A    between atoms: O_21  and  C_22
REMARK   13  A    between atoms: C_23  and  O_24
REMARK   14  A    between atoms: O_24  and  C_25
REMARK                            x       y       z     vdW  Elec       q    Type
REMARK                         _______ _______ _______ _____ _____    ______ ____
ROOT
ATOM      1  C   UNL     1       2.133   4.820  19.641  0.00  0.00    +0.000 C 
ENDROOT
BRANCH   1   2
ATOM      2  C   UNL     1       1.915   6.325  19.508  0.00  0.00    +0.000 A 
ATOM      3  C   UNL     1       2.347   7.046  18.393  0.00  0.00    +0.000 A 
ATOM      4  C   UNL     1       2.165   8.426  18.329  0.00  0.00    +0.000 A 
ATOM      5  C   UNL     1       1.559   9.134  19.374  0.00  0.00    +0.000 A 
ATOM      6  C   UNL     1       1.113   8.434  20.507  0.00  0.00    +0.000 A 
ATOM      7  C   UNL     1       1.294   7.038  20.556  0.00  0.00    +0.000 A 
BRANCH   5   8
ATOM      8  O   UNL     1       1.497  10.476  19.107  0.00  0.00    +0.000 OA
ATOM      9  C   UNL     1       0.289  11.031  18.614  0.00  0.00    +0.000 C 
ENDBRANCH   5   8
BRANCH   6  10
ATOM     10  O   UNL     1       0.532   9.151  21.517  0.00  0.00    +0.000 OA
ATOM     11  C   UNL     1       1.262   9.370  22.716  0.00  0.00    +0.000 C 
ENDBRANCH   6  10
ENDBRANCH   1   2
BRANCH   1  14
ATOM     12  C   UNL     1       3.104   3.558  17.715  0.00  0.00    +0.000 C 
ATOM     13  O   UNL     1       2.011   3.177  17.304  0.00  0.00    +0.000 OA
ATOM     14  N   UNL     1       3.252   4.334  18.845  0.00  0.00    +0.000 N 
ATOM     15  H   UNL     1       4.187   4.567  19.167  0.00  0.00    +0.000 HD
BRANCH  12  16
ATOM     16  C   UNL     1       4.420   3.186  17.026  0.00  0.00    +0.000 C 
BRANCH  16  17
ATOM     17  O   UNL     1       4.872   4.303  16.270  0.00  0.00    +0.000 OA
BRANCH  17  21
ATOM     18  C   UNL     1       7.611   6.884  18.081  0.00  0.00    +0.000 A 
ATOM     19  C   UNL     1       6.635   7.343  17.197  0.00  0.00    +0.000 A 
ATOM     20  C   UNL     1       5.738   6.449  16.606  0.00  0.00    +0.000 A 
ATOM     21  C   UNL     1       5.829   5.080  16.865  0.00  0.00    +0.000 A 
ATOM     22  C   UNL     1       6.817   4.616  17.731  0.00  0.00    +0.000 A 
ATOM     23  C   UNL     1       7.707   5.516  18.339  0.00  0.00    +0.000 A 
BRANCH  18  25
ATOM     24  C   UNL     1       8.277   9.154  18.058  0.00  0.00    +0.000 C 
ATOM     25  O   UNL     1       8.431   7.847  18.601  0.00  0.00    +0.000 OA
ENDBRANCH  18  25
ENDBRANCH  17  21
ENDBRANCH  16  17
ENDBRANCH  12  16
ENDBRANCH   1  14
BRANCH   1  26
ATOM     26  C   UNL     1       2.233   4.371  21.109  0.00  0.00    +0.000 C 
BRANCH  26  27
ATOM     27  C   UNL     1       2.235   2.871  21.284  0.00  0.00    +0.000 C 
ATOM     28  O   UNL     1       2.887   2.267  22.126  0.00  0.00    +0.000 OA
BRANCH  27  29
ATOM     29  O   UNL     1       1.505   2.229  20.345  0.00  0.00    +0.000 OA
ATOM     30  H   UNL     1       0.837   1.608  20.695  0.00  0.00    +0.000 HD
ENDBRANCH  27  29
ENDBRANCH  26  27
ENDBRANCH   1  26
TORSDOF 11
ENDMDL
MODEL 5
REMARK VINA RESULT:      -7.3      3.516      8.054
REMARK  Name = 
REMARK  14 active torsions:
REMARK  status: ('A' for Active; 'I' for Inactive)
REMARK    1  A    between atoms: C_1  and  O_2
REMARK    2  A    between atoms: O_2  and  C_3
REMARK    3  A    between atoms: C_6  and  O_7
REMARK    4  A    between atoms: O_7  and  C_8
REMARK    5  A    between atoms: C_8  and  C_9
REMARK    6  A    between atoms: N_11  and  C_12
REMARK    7  A    between atoms: C_12  and  C_13
REMARK    8  A    between atoms: C_12  and  C_17
REMARK    9  A    between atoms: C_13  and  C_14
REMARK   10  A    between atoms: C_14  and  O_16
REMARK   11  A    between atoms: C_20  and  O_21
REMARK   12  A    between atoms: O_21  and  C_22
REMARK   13  A    between atoms: C_23  and  O_24
REMARK   14  A    between atoms: O_24  and  C_25
REMARK                            x       y       z     vdW  Elec       q    Type
REMARK                         _______ _______ _______ _____ _____    ______ ____
ROOT
ATOM      1  C   UNL     1       5.581   6.230  16.493  0.00  0.00    +0.000 C 
ENDROOT
BRANCH   1   2
ATOM      2  C   UNL     1       4.508   6.120  17.573  0.00  0.00    +0.000 A 
ATOM      3  C   UNL     1       3.611   7.156  17.842  0.00  0.00    +0.000 A 
ATOM      4  C   UNL     1       2.672   7.030  18.864  0.00  0.00    +0.000 A 
ATOM      5  C   UNL     1       2.602   5.878  19.657  0.00  0.00    +0.000 A 
ATOM      6  C   UNL     1       3.490   4.819  19.406  0.00  0.00    +0.000 A 
ATOM      7  C   UNL     1       4.428   4.953  18.363  0.00  0.00    +0.000 A 
BRANCH   5   8
ATOM      8  O   UNL     1       1.619   5.976  20.606  0.00  0.00    +0.000 OA
ATOM      9  C   UNL     1       1.208   7.257  21.051  0.00  0.00    +0.000 C 
ENDBRANCH   5   8
BRANCH   6  10
ATOM     10  O   UNL     1       3.405   3.708  20.199  0.00  0.00    +0.000 OA
ATOM     11  C   UNL     1       2.421   2.726  19.909  0.00  0.00    +0.000 C 
ENDBRANCH   6  10
ENDBRANCH   1   2
BRANCH   1  14
ATOM     12  C   UNL     1       7.434   7.455  17.639  0.00  0.00    +0.000 C 
ATOM     13  O   UNL     1       7.631   6.562  18.459  0.00  0.00    +0.000 OA
ATOM     14  N   UNL     1       6.454   7.383  16.673  0.00  0.00    +0.000 N 
ATOM     15  H   UNL     1       6.301   8.180  16.061  0.00  0.00    +0.000 HD
BRANCH  12  16
ATOM     16  C   UNL     1       8.244   8.754  17.623  0.00  0.00    +0.000 C 
BRANCH  16  17
ATOM     17  O   UNL     1       8.621   9.076  18.956  0.00  0.00    +0.000 OA
BRANCH  17  21
ATOM     18  C   UNL     1      10.571  12.760  19.216  0.00  0.00    +0.000 A 
ATOM     19  C   UNL     1      10.253  12.176  17.991  0.00  0.00    +0.000 A 
ATOM     20  C   UNL     1       9.605  10.940  17.942  0.00  0.00    +0.000 A 
ATOM     21  C   UNL     1       9.297  10.255  19.119  0.00  0.00    +0.000 A 
ATOM     22  C   UNL     1       9.633  10.826  20.346  0.00  0.00    +0.000 A 
ATOM     23  C   UNL     1      10.268  12.077  20.395  0.00  0.00    +0.000 A 
BRANCH  18  25
ATOM     24  C   UNL     1      10.733  14.856  18.131  0.00  0.00    +0.000 C 
ATOM     25  O   UNL     1      11.202  13.971  19.145  0.00  0.00    +0.000 OA
ENDBRANCH  18  25
ENDBRANCH  17  21
ENDBRANCH  16  17
ENDBRANCH  12  16
ENDBRANCH   1  14
BRANCH   1  26
ATOM     26  C   UNL     1       6.379   4.925  16.325  0.00  0.00    +0.000 C 
BRANCH  26  27
ATOM     27  C   UNL     1       6.849   4.681  14.911  0.00  0.00    +0.000 C 
ATOM     28  O   UNL     1       6.443   3.783  14.186  0.00  0.00    +0.000 OA
BRANCH  27  29
ATOM     29  O   UNL     1       7.852   5.508  14.538  0.00  0.00    +0.000 OA
ATOM     30  H   UNL     1       8.652   5.465  15.097  0.00  0.00    +0.000 HD
ENDBRANCH  27  29
ENDBRANCH  26  27
ENDBRANCH   1  26
TORSDOF 11
ENDMDL
MODEL 6
REMARK VINA RESULT:      -7.2      3.544      7.595
REMARK  Name = 
REMARK  14 active torsions:
REMARK  status: ('A' for Active; 'I' for Inactive)
REMARK    1  A    between atoms: C_1  and  O_2
REMARK    2  A    between atoms: O_2  and  C_3
REMARK    3  A    between atoms: C_6  and  O_7
REMARK    4  A    between atoms: O_7  and  C_8
REMARK    5  A    between atoms: C_8  and  C_9
REMARK    6  A    between atoms: N_11  and  C_12
REMARK    7  A    between atoms: C_12  and  C_13
REMARK    8  A    between atoms: C_12  and  C_17
REMARK    9  A    between atoms: C_13  and  C_14
REMARK   10  A    between atoms: C_14  and  O_16
REMARK   11  A    between atoms: C_20  and  O_21
REMARK   12  A    between atoms: O_21  and  C_22
REMARK   13  A    between atoms: C_23  and  O_24
REMARK   14  A    between atoms: O_24  and  C_25
REMARK                            x       y       z     vdW  Elec       q    Type
REMARK                         _______ _______ _______ _____ _____    ______ ____
ROOT
ATOM      1  C   UNL     1       6.135   6.000  16.239  0.00  0.00    +0.000 C 
ENDROOT
BRANCH   1   2
ATOM      2  C   UNL     1       4.875   5.661  17.030  0.00  0.00    +0.000 A 
ATOM      3  C   UNL     1       4.482   4.344  17.280  0.00  0.00    +0.000 A 
ATOM      4  C   UNL     1       3.303   4.077  17.972  0.00  0.00    +0.000 A 
ATOM      5  C   UNL     1       2.472   5.108  18.428  0.00  0.00    +0.000 A 
ATOM      6  C   UNL     1       2.844   6.442  18.193  0.00  0.00    +0.000 A 
ATOM      7  C   UNL     1       4.044   6.700  17.501  0.00  0.00    +0.000 A 
BRANCH   5   8
ATOM      8  O   UNL     1       1.364   4.620  19.067  0.00  0.00    +0.000 OA
ATOM      9  C   UNL     1       1.421   4.363  20.461  0.00  0.00    +0.000 C 
ENDBRANCH   5   8
BRANCH   6  10
ATOM     10  O   UNL     1       2.011   7.430  18.642  0.00  0.00    +0.000 OA
ATOM     11  C   UNL     1       2.061   8.709  18.026  0.00  0.00    +0.000 C 
ENDBRANCH   6  10
ENDBRANCH   1   2
BRANCH   1  14
ATOM     12  C   UNL     1       7.608   6.684  18.140  0.00  0.00    +0.000 C 
ATOM     13  O   UNL     1       7.433   5.639  18.762  0.00  0.00    +0.000 OA
ATOM     14  N   UNL     1       7.004   6.946  16.929  0.00  0.00    +0.000 N 
ATOM     15  H   UNL     1       7.141   7.853  16.492  0.00  0.00    +0.000 HD
BRANCH  12  16
ATOM     16  C   UNL     1       8.497   7.816  18.661  0.00  0.00    +0.000 C 
BRANCH  16  17
ATOM     17  O   UNL     1       8.163   9.015  17.972  0.00  0.00    +0.000 OA
BRANCH  17  21
ATOM     18  C   UNL     1       9.769  12.648  19.264  0.00  0.00    +0.000 A 
ATOM     19  C   UNL     1       9.109  12.523  18.043  0.00  0.00    +0.000 A 
ATOM     20  C   UNL     1       8.588  11.291  17.641  0.00  0.00    +0.000 A 
ATOM     21  C   UNL     1       8.752  10.159  18.440  0.00  0.00    +0.000 A 
ATOM     22  C   UNL     1       9.430  10.275  19.653  0.00  0.00    +0.000 A 
ATOM     23  C   UNL     1       9.937  11.517  20.065  0.00  0.00    +0.000 A 
BRANCH  18  25
ATOM     24  C   UNL     1       9.874  14.926  18.637  0.00  0.00    +0.000 C 
ATOM     25  O   UNL     1      10.233  13.900  19.557  0.00  0.00    +0.000 OA
ENDBRANCH  18  25
ENDBRANCH  17  21
ENDBRANCH  16  17
ENDBRANCH  12  16
ENDBRANCH   1  14
BRANCH   1  26
ATOM     26  C   UNL     1       6.898   4.743  15.786  0.00  0.00    +0.000 C 
BRANCH  26  27
ATOM     27  C   UNL     1       6.986   4.596  14.286  0.00  0.00    +0.000 C 
ATOM     28  O   UNL     1       7.493   5.416  13.532  0.00  0.00    +0.000 OA
BRANCH  27  29
ATOM     29  O   UNL     1       6.356   3.491  13.826  0.00  0.00    +0.000 OA
ATOM     30  H   UNL     1       6.453   3.329  12.868  0.00  0.00    +0.000 HD
ENDBRANCH  27  29
ENDBRANCH  26  27
ENDBRANCH   1  26
TORSDOF 11
ENDMDL
MODEL 7
REMARK VINA RESULT:      -7.1      1.831      2.271
REMARK  Name = 
REMARK  14 active torsions:
REMARK  status: ('A' for Active; 'I' for Inactive)
REMARK    1  A    between atoms: C_1  and  O_2
REMARK    2  A    between atoms: O_2  and  C_3
REMARK    3  A    between atoms: C_6  and  O_7
REMARK    4  A    between atoms: O_7  and  C_8
REMARK    5  A    between atoms: C_8  and  C_9
REMARK    6  A    between atoms: N_11  and  C_12
REMARK    7  A    between atoms: C_12  and  C_13
REMARK    8  A    between atoms: C_12  and  C_17
REMARK    9  A    between atoms: C_13  and  C_14
REMARK   10  A    between atoms: C_14  and  O_16
REMARK   11  A    between atoms: C_20  and  O_21
REMARK   12  A    between atoms: O_21  and  C_22
REMARK   13  A    between atoms: C_23  and  O_24
REMARK   14  A    between atoms: O_24  and  C_25
REMARK                            x       y       z     vdW  Elec       q    Type
REMARK                         _______ _______ _______ _____ _____    ______ ____
ROOT
ATOM      1  C   UNL     1       4.815   4.153  19.482  0.00  0.00    +0.000 C 
ENDROOT
BRANCH   1   2
ATOM      2  C   UNL     1       5.339   4.535  18.101  0.00  0.00    +0.000 A 
ATOM      3  C   UNL     1       4.965   3.848  16.944  0.00  0.00    +0.000 A 
ATOM      4  C   UNL     1       5.498   4.203  15.706  0.00  0.00    +0.000 A 
ATOM      5  C   UNL     1       6.427   5.244  15.581  0.00  0.00    +0.000 A 
ATOM      6  C   UNL     1       6.819   5.954  16.728  0.00  0.00    +0.000 A 
ATOM      7  C   UNL     1       6.266   5.592  17.972  0.00  0.00    +0.000 A 
BRANCH   5   8
ATOM      8  O   UNL     1       6.827   5.411  14.282  0.00  0.00    +0.000 OA
ATOM      9  C   UNL     1       6.677   4.340  13.365  0.00  0.00    +0.000 C 
ENDBRANCH   5   8
BRANCH   6  10
ATOM     10  O   UNL     1       7.734   6.960  16.579  0.00  0.00    +0.000 OA
ATOM     11  C   UNL     1       7.806   7.979  17.566  0.00  0.00    +0.000 C 
ENDBRANCH   6  10
ENDBRANCH   1   2
BRANCH   1  14
ATOM     12  C   UNL     1       2.506   5.091  19.681  0.00  0.00    +0.000 C 
ATOM     13  O   UNL     1       2.021   4.290  18.886  0.00  0.00    +0.000 OA
ATOM     14  N   UNL     1       3.845   5.106  20.007  0.00  0.00    +0.000 N 
ATOM     15  H   UNL     1       4.196   5.831  20.626  0.00  0.00    +0.000 HD
BRANCH  12  16
ATOM     16  C   UNL     1       1.674   6.173  20.374  0.00  0.00    +0.000 C 
BRANCH  16  17
ATOM     17  O   UNL     1       2.075   7.446  19.880  0.00  0.00    +0.000 OA
BRANCH  17  21
ATOM     18  C   UNL     1       0.201  10.711  21.689  0.00  0.00    +0.000 A 
ATOM     19  C   UNL     1       0.702   9.642  22.430  0.00  0.00    +0.000 A 
ATOM     20  C   UNL     1       1.319   8.564  21.791  0.00  0.00    +0.000 A 
ATOM     21  C   UNL     1       1.411   8.525  20.398  0.00  0.00    +0.000 A 
ATOM     22  C   UNL     1       0.892   9.583  19.653  0.00  0.00    +0.000 A 
ATOM     23  C   UNL     1       0.289  10.674  20.297  0.00  0.00    +0.000 A 
BRANCH  18  25
ATOM     24  C   UNL     1      -1.606  11.382  23.059  0.00  0.00    +0.000 C 
ATOM     25  O   UNL     1      -0.378  11.712  22.419  0.00  0.00    +0.000 OA
ENDBRANCH  18  25
ENDBRANCH  17  21
ENDBRANCH  16  17
ENDBRANCH  12  16
ENDBRANCH   1  14
BRANCH   1  26
ATOM     26  C   UNL     1       4.285   2.709  19.529  0.00  0.00    +0.000 C 
BRANCH  26  27
ATOM     27  C   UNL     1       4.390   2.070  20.893  0.00  0.00    +0.000 C 
ATOM     28  O   UNL     1       5.329   1.382  21.270  0.00  0.00    +0.000 OA
BRANCH  27  29
ATOM     29  O   UNL     1       3.284   2.253  21.648  0.00  0.00    +0.000 OA
ATOM     30  H   UNL     1       3.010   3.184  21.758  0.00  0.00    +0.000 HD
ENDBRANCH  27  29
ENDBRANCH  26  27
ENDBRANCH   1  26
TORSDOF 11
ENDMDL
MODEL 8
REMARK VINA RESULT:      -7.1      4.162      7.690
REMARK  Name = 
REMARK  14 active torsions:
REMARK  status: ('A' for Active; 'I' for Inactive)
REMARK    1  A    between atoms: C_1  and  O_2
REMARK    2  A    between atoms: O_2  and  C_3
REMARK    3  A    between atoms: C_6  and  O_7
REMARK    4  A    between atoms: O_7  and  C_8
REMARK    5  A    between atoms: C_8  and  C_9
REMARK    6  A    between atoms: N_11  and  C_12
REMARK    7  A    between atoms: C_12  and  C_13
REMARK    8  A    between atoms: C_12  and  C_17
REMARK    9  A    between atoms: C_13  and  C_14
REMARK   10  A    between atoms: C_14  and  O_16
REMARK   11  A    between atoms: C_20  and  O_21
REMARK   12  A    between atoms: O_21  and  C_22
REMARK   13  A    between atoms: C_23  and  O_24
REMARK   14  A    between atoms: O_24  and  C_25
REMARK                            x       y       z     vdW  Elec       q    Type
REMARK                         _______ _______ _______ _____ _____    ______ ____
ROOT
ATOM      1  C   UNL     1       5.249   6.284  16.425  0.00  0.00    +0.000 C 
ENDROOT
BRANCH   1   2
ATOM      2  C   UNL     1       4.423   5.727  17.582  0.00  0.00    +0.000 A 
ATOM      3  C   UNL     1       3.583   6.531  18.355  0.00  0.00    +0.000 A 
ATOM      4  C   UNL     1       2.876   5.991  19.427  0.00  0.00    +0.000 A 
ATOM      5  C   UNL     1       2.991   4.638  19.772  0.00  0.00    +0.000 A 
ATOM      6  C   UNL     1       3.827   3.805  19.011  0.00  0.00    +0.000 A 
ATOM      7  C   UNL     1       4.528   4.361  17.922  0.00  0.00    +0.000 A 
BRANCH   5   8
ATOM      8  O   UNL     1       2.223   4.328  20.863  0.00  0.00    +0.000 OA
ATOM      9  C   UNL     1       1.060   3.535  20.692  0.00  0.00    +0.000 C 
ENDBRANCH   5   8
BRANCH   6  10
ATOM     10  O   UNL     1       3.927   2.490  19.374  0.00  0.00    +0.000 OA
ATOM     11  C   UNL     1       3.494   1.488  18.465  0.00  0.00    +0.000 C 
ENDBRANCH   6  10
ENDBRANCH   1   2
BRANCH   1  14
ATOM     12  C   UNL     1       7.145   6.814  17.967  0.00  0.00    +0.000 C 
ATOM     13  O   UNL     1       6.939   5.843  18.690  0.00  0.00    +0.000 OA
ATOM     14  N   UNL     1       6.365   7.110  16.869  0.00  0.00    +0.000 N 
ATOM     15  H   UNL     1       6.550   7.960  16.344  0.00  0.00    +0.000 HD
BRANCH  12  16
ATOM     16  C   UNL     1       8.276   7.811  18.226  0.00  0.00    +0.000 C 
BRANCH  16  17
ATOM     17  O   UNL     1       7.893   9.082  17.715  0.00  0.00    +0.000 OA
BRANCH  17  21
ATOM     18  C   UNL     1       9.699  12.535  19.219  0.00  0.00    +0.000 A 
ATOM     19  C   UNL     1       8.889  12.558  18.085  0.00  0.00    +0.000 A 
ATOM     20  C   UNL     1       8.305  11.383  17.607  0.00  0.00    +0.000 A 
ATOM     21  C   UNL     1       8.552  10.162  18.238  0.00  0.00    +0.000 A 
ATOM     22  C   UNL     1       9.379  10.132  19.360  0.00  0.00    +0.000 A 
ATOM     23  C   UNL     1       9.952  11.316  19.850  0.00  0.00    +0.000 A 
BRANCH  18  25
ATOM     24  C   UNL     1      10.200  14.763  18.605  0.00  0.00    +0.000 C 
ATOM     25  O   UNL     1      10.215  13.743  19.598  0.00  0.00    +0.000 OA
ENDBRANCH  18  25
ENDBRANCH  17  21
ENDBRANCH  16  17
ENDBRANCH  12  16
ENDBRANCH   1  14
BRANCH   1  26
ATOM     26  C   UNL     1       5.698   5.187  15.445  0.00  0.00    +0.000 C 
BRANCH  26  27
ATOM     27  C   UNL     1       7.197   5.097  15.284  0.00  0.00    +0.000 C 
ATOM     28  O   UNL     1       7.833   5.608  14.372  0.00  0.00    +0.000 OA
BRANCH  27  29
ATOM     29  O   UNL     1       7.781   4.303  16.210  0.00  0.00    +0.000 OA
ATOM     30  H   UNL     1       7.710   3.345  16.036  0.00  0.00    +0.000 HD
ENDBRANCH  27  29
ENDBRANCH  26  27
ENDBRANCH   1  26
TORSDOF 11
ENDMDL
MODEL 9
REMARK VINA RESULT:      -7.1      1.181      1.382
REMARK  Name = 
REMARK  14 active torsions:
REMARK  status: ('A' for Active; 'I' for Inactive)
REMARK    1  A    between atoms: C_1  and  O_2
REMARK    2  A    between atoms: O_2  and  C_3
REMARK    3  A    between atoms: C_6  and  O_7
REMARK    4  A    between atoms: O_7  and  C_8
REMARK    5  A    between atoms: C_8  and  C_9
REMARK    6  A    between atoms: N_11  and  C_12
REMARK    7  A    between atoms: C_12  and  C_13
REMARK    8  A    between atoms: C_12  and  C_17
REMARK    9  A    between atoms: C_13  and  C_14
REMARK   10  A    between atoms: C_14  and  O_16
REMARK   11  A    between atoms: C_20  and  O_21
REMARK   12  A    between atoms: O_21  and  C_22
REMARK   13  A    between atoms: C_23  and  O_24
REMARK   14  A    between atoms: O_24  and  C_25
REMARK                            x       y       z     vdW  Elec       q    Type
REMARK                         _______ _______ _______ _____ _____    ______ ____
ROOT
ATOM      1  C   UNL     1       3.619   3.898  18.846  0.00  0.00    +0.000 C 
ENDROOT
BRANCH   1   2
ATOM      2  C   UNL     1       4.577   4.389  17.763  0.00  0.00    +0.000 A 
ATOM      3  C   UNL     1       4.985   3.577  16.703  0.00  0.00    +0.000 A 
ATOM      4  C   UNL     1       5.892   4.050  15.757  0.00  0.00    +0.000 A 
ATOM      5  C   UNL     1       6.431   5.340  15.842  0.00  0.00    +0.000 A 
ATOM      6  C   UNL     1       6.038   6.179  16.897  0.00  0.00    +0.000 A 
ATOM      7  C   UNL     1       5.112   5.693  17.841  0.00  0.00    +0.000 A 
BRANCH   5   8
ATOM      8  O   UNL     1       7.309   5.589  14.821  0.00  0.00    +0.000 OA
ATOM      9  C   UNL     1       7.195   4.857  13.612  0.00  0.00    +0.000 C 
ENDBRANCH   5   8
BRANCH   6  10
ATOM     10  O   UNL     1       6.585   7.431  16.961  0.00  0.00    +0.000 OA
ATOM     11  C   UNL     1       7.762   7.632  17.731  0.00  0.00    +0.000 C 
ENDBRANCH   6  10
ENDBRANCH   1   2
BRANCH   1  14
ATOM     12  C   UNL     1       2.267   4.958  20.662  0.00  0.00    +0.000 C 
ATOM     13  O   UNL     1       2.461   4.043  21.457  0.00  0.00    +0.000 OA
ATOM     14  N   UNL     1       2.771   4.957  19.379  0.00  0.00    +0.000 N 
ATOM     15  H   UNL     1       2.526   5.716  18.749  0.00  0.00    +0.000 HD
BRANCH  12  16
ATOM     16  C   UNL     1       1.422   6.187  21.008  0.00  0.00    +0.000 C 
BRANCH  16  17
ATOM     17  O   UNL     1       1.830   7.271  20.182  0.00  0.00    +0.000 OA
BRANCH  17  21
ATOM     18  C   UNL     1       0.187  11.036  20.937  0.00  0.00    +0.000 A 
ATOM     19  C   UNL     1       0.630  10.663  19.669  0.00  0.00    +0.000 A 
ATOM     20  C   UNL     1       1.179   9.397  19.454  0.00  0.00    +0.000 A 
ATOM     21  C   UNL     1       1.324   8.499  20.514  0.00  0.00    +0.000 A 
ATOM     22  C   UNL     1       0.902   8.877  21.788  0.00  0.00    +0.000 A 
ATOM     23  C   UNL     1       0.334  10.143  21.999  0.00  0.00    +0.000 A 
BRANCH  18  25
ATOM     24  C   UNL     1      -0.792  12.685  22.321  0.00  0.00    +0.000 C 
ATOM     25  O   UNL     1      -0.335  12.297  21.030  0.00  0.00    +0.000 OA
ENDBRANCH  18  25
ENDBRANCH  17  21
ENDBRANCH  16  17
ENDBRANCH  12  16
ENDBRANCH   1  14
BRANCH   1  26
ATOM     26  C   UNL     1       2.800   2.678  18.393  0.00  0.00    +0.000 C 
BRANCH  26  27
ATOM     27  C   UNL     1       1.330   2.970  18.208  0.00  0.00    +0.000 C 
ATOM     28  O   UNL     1       0.422   2.345  18.739  0.00  0.00    +0.000 OA
BRANCH  27  29
ATOM     29  O   UNL     1       1.096   3.952  17.309  0.00  0.00    +0.000 OA
ATOM     30  H   UNL     1       1.276   3.712  16.379  0.00  0.00    +0.000 HD
ENDBRANCH  27  29
ENDBRANCH  26  27
ENDBRANCH   1  26
TORSDOF 11
ENDMDL
