MODEL 1
REMARK VINA RESULT:      -6.7      0.000      0.000
REMARK  Name = 
REMARK  3 active torsions:
REMARK  status: ('A' for Active; 'I' for Inactive)
REMARK    1  A    between atoms: C_1  and  C_2
REMARK    2  A    between atoms: C_5  and  N_6
REMARK    3  A    between atoms: C_11  and  C_12
REMARK                            x       y       z     vdW  Elec       q    Type
REMARK                         _______ _______ _______ _____ _____    ______ ____
ROOT
ATOM      1  N   UNL     1       2.761   4.266  18.712  0.00  0.00    +0.000 N 
ATOM      2  C   UNL     1       1.677   3.393  18.945  0.00  0.00    +0.000 C 
ATOM      3  O   UNL     1       0.624   3.675  19.503  0.00  0.00    +0.000 OA
ATOM      4  C   UNL     1       1.933   2.039  18.270  0.00  0.00    +0.000 C 
ATOM      5  S   UNL     1       3.738   1.939  18.164  0.00  0.00    +0.000 S 
ATOM      6  C   UNL     1       3.729   3.684  17.791  0.00  0.00    +0.000 C 
ENDROOT
BRANCH   6   7
ATOM      7  C   UNL     1       5.036   4.394  17.631  0.00  0.00    +0.000 A 
ATOM      8  C   UNL     1       5.728   4.894  18.736  0.00  0.00    +0.000 A 
ATOM      9  F   UNL     1       5.626   4.298  19.933  0.00  0.00    +0.000 F 
ATOM     10  C   UNL     1       6.404   6.106  18.644  0.00  0.00    +0.000 A 
ATOM     11  C   UNL     1       6.429   6.788  17.427  0.00  0.00    +0.000 A 
ATOM     12  C   UNL     1       5.960   6.159  16.275  0.00  0.00    +0.000 A 
ATOM     13  C   UNL     1       5.330   4.928  16.372  0.00  0.00    +0.000 A 
ATOM     14 CL   UNL     1       4.858   4.134  14.909  0.00  0.00    +0.000 Cl
ENDBRANCH   6   7
BRANCH   1  19
ATOM     15  C   UNL     1       1.462   9.858  19.027  0.00  0.00    +0.000 C 
ATOM     16  C   UNL     1       1.872   8.413  18.952  0.00  0.00    +0.000 A 
ATOM     17  C   UNL     1       2.125   7.801  17.717  0.00  0.00    +0.000 A 
ATOM     18  C   UNL     1       2.476   6.438  17.660  0.00  0.00    +0.000 A 
ATOM     19  C   UNL     1       2.564   5.677  18.818  0.00  0.00    +0.000 A 
ATOM     20  C   UNL     1       2.329   6.294  20.052  0.00  0.00    +0.000 A 
ATOM     21  C   UNL     1       2.005   7.658  20.118  0.00  0.00    +0.000 A 
ENDBRANCH   1  19
TORSDOF 2
ENDMDL
MODEL 2
REMARK VINA RESULT:      -6.5      2.288      4.195
REMARK  Name = 
REMARK  3 active torsions:
REMARK  status: ('A' for Active; 'I' for Inactive)
REMARK    1  A    between atoms: C_1  and  C_2
REMARK    2  A    between atoms: C_5  and  N_6
REMARK    3  A    between atoms: C_11  and  C_12
REMARK                            x       y       z     vdW  Elec       q    Type
REMARK                         _______ _______ _______ _____ _____    ______ ____
ROOT
ATOM      1  N   UNL     1       3.610   6.095  18.449  0.00  0.00    +0.000 N 
ATOM      2  C   UNL     1       4.884   6.394  17.921  0.00  0.00    +0.000 C 
ATOM      3  O   UNL     1       5.214   7.435  17.366  0.00  0.00    +0.000 OA
ATOM      4  C   UNL     1       5.874   5.272  18.259  0.00  0.00    +0.000 C 
ATOM      5  S   UNL     1       4.823   3.815  18.483  0.00  0.00    +0.000 S 
ATOM      6  C   UNL     1       3.641   4.893  19.273  0.00  0.00    +0.000 C 
ENDROOT
BRANCH   6   7
ATOM      7  C   UNL     1       2.327   4.326  19.708  0.00  0.00    +0.000 A 
ATOM      8  C   UNL     1       2.081   4.009  21.045  0.00  0.00    +0.000 A 
ATOM      9  F   UNL     1       2.680   4.695  22.030  0.00  0.00    +0.000 F 
ATOM     10  C   UNL     1       1.337   2.880  21.368  0.00  0.00    +0.000 A 
ATOM     11  C   UNL     1       0.795   2.099  20.347  0.00  0.00    +0.000 A 
ATOM     12  C   UNL     1       0.826   2.564  19.034  0.00  0.00    +0.000 A 
ATOM     13  C   UNL     1       1.531   3.719  18.730  0.00  0.00    +0.000 A 
ATOM     14 CL   UNL     1       1.457   4.319  17.109  0.00  0.00    +0.000 Cl
ENDBRANCH   6   7
BRANCH   1  19
ATOM     15  C   UNL     1       0.261  10.639  19.538  0.00  0.00    +0.000 C 
ATOM     16  C   UNL     1       1.076   9.411  19.240  0.00  0.00    +0.000 A 
ATOM     17  C   UNL     1       1.450   8.531  20.263  0.00  0.00    +0.000 A 
ATOM     18  C   UNL     1       2.242   7.403  19.974  0.00  0.00    +0.000 A 
ATOM     19  C   UNL     1       2.676   7.152  18.679  0.00  0.00    +0.000 A 
ATOM     20  C   UNL     1       2.287   8.022  17.655  0.00  0.00    +0.000 A 
ATOM     21  C   UNL     1       1.476   9.134  17.932  0.00  0.00    +0.000 A 
ENDBRANCH   1  19
TORSDOF 2
ENDMDL
MODEL 3
REMARK VINA RESULT:      -6.4      2.282      4.040
REMARK  Name = 
REMARK  3 active torsions:
REMARK  status: ('A' for Active; 'I' for Inactive)
REMARK    1  A    between atoms: C_1  and  C_2
REMARK    2  A    between atoms: C_5  and  N_6
REMARK    3  A    between atoms: C_11  and  C_12
REMARK                            x       y       z     vdW  Elec       q    Type
REMARK                         _______ _______ _______ _____ _____    ______ ____
ROOT
ATOM      1  N   UNL     1       3.752   6.054  18.394  0.00  0.00    +0.000 N 
ATOM      2  C   UNL     1       5.036   6.267  17.849  0.00  0.00    +0.000 C 
ATOM      3  O   UNL     1       5.437   7.293  17.315  0.00  0.00    +0.000 OA
ATOM      4  C   UNL     1       5.941   5.062  18.139  0.00  0.00    +0.000 C 
ATOM      5  S   UNL     1       4.782   3.686  18.346  0.00  0.00    +0.000 S 
ATOM      6  C   UNL     1       3.702   4.832  19.186  0.00  0.00    +0.000 C 
ENDROOT
BRANCH   6   7
ATOM      7  C   UNL     1       2.356   4.358  19.632  0.00  0.00    +0.000 A 
ATOM      8  C   UNL     1       2.096   4.069  20.973  0.00  0.00    +0.000 A 
ATOM      9  F   UNL     1       2.745   4.720  21.950  0.00  0.00    +0.000 F 
ATOM     10  C   UNL     1       1.280   2.995  21.309  0.00  0.00    +0.000 A 
ATOM     11  C   UNL     1       0.681   2.244  20.297  0.00  0.00    +0.000 A 
ATOM     12  C   UNL     1       0.736   2.696  18.979  0.00  0.00    +0.000 A 
ATOM     13  C   UNL     1       1.516   3.798  18.663  0.00  0.00    +0.000 A 
ATOM     14 CL   UNL     1       1.473   4.390  17.038  0.00  0.00    +0.000 Cl
ENDBRANCH   6   7
BRANCH   1  19
ATOM     15  C   UNL     1      -0.041  10.276  19.312  0.00  0.00    +0.000 C 
ATOM     16  C   UNL     1       1.005   9.218  19.091  0.00  0.00    +0.000 A 
ATOM     17  C   UNL     1       1.576   9.027  17.826  0.00  0.00    +0.000 A 
ATOM     18  C   UNL     1       2.529   8.010  17.626  0.00  0.00    +0.000 A 
ATOM     19  C   UNL     1       2.909   7.174  18.669  0.00  0.00    +0.000 A 
ATOM     20  C   UNL     1       2.351   7.379  19.936  0.00  0.00    +0.000 A 
ATOM     21  C   UNL     1       1.419   8.407  20.148  0.00  0.00    +0.000 A 
ENDBRANCH   1  19
TORSDOF 2
ENDMDL
MODEL 4
REMARK VINA RESULT:      -6.3      2.556      4.253
REMARK  Name = 
REMARK  3 active torsions:
REMARK  status: ('A' for Active; 'I' for Inactive)
REMARK    1  A    between atoms: C_1  and  C_2
REMARK    2  A    between atoms: C_5  and  N_6
REMARK    3  A    between atoms: C_11  and  C_12
REMARK                            x       y       z     vdW  Elec       q    Type
REMARK                         _______ _______ _______ _____ _____    ______ ____
ROOT
ATOM      1  N   UNL     1       4.179   5.523  17.824  0.00  0.00    +0.000 N 
ATOM      2  C   UNL     1       5.334   6.133  17.289  0.00  0.00    +0.000 C 
ATOM      3  O   UNL     1       5.513   7.333  17.129  0.00  0.00    +0.000 OA
ATOM      4  C   UNL     1       6.426   5.081  17.051  0.00  0.00    +0.000 C 
ATOM      5  S   UNL     1       5.505   3.536  16.844  0.00  0.00    +0.000 S 
ATOM      6  C   UNL     1       4.407   4.116  18.126  0.00  0.00    +0.000 C 
ENDROOT
BRANCH   6   7
ATOM      7  C   UNL     1       3.212   3.288  18.480  0.00  0.00    +0.000 A 
ATOM      8  C   UNL     1       1.990   3.464  17.829  0.00  0.00    +0.000 A 
ATOM      9  F   UNL     1       1.949   3.879  16.554  0.00  0.00    +0.000 F 
ATOM     10  C   UNL     1       0.800   3.362  18.540  0.00  0.00    +0.000 A 
ATOM     11  C   UNL     1       0.836   3.031  19.895  0.00  0.00    +0.000 A 
ATOM     12  C   UNL     1       2.033   2.607  20.469  0.00  0.00    +0.000 A 
ATOM     13  C   UNL     1       3.207   2.667  19.734  0.00  0.00    +0.000 A 
ATOM     14 CL   UNL     1       4.651   2.034  20.446  0.00  0.00    +0.000 Cl
ENDBRANCH   6   7
BRANCH   1  19
ATOM     15  C   UNL     1       0.802   8.974  20.945  0.00  0.00    +0.000 C 
ATOM     16  C   UNL     1       1.626   8.032  20.112  0.00  0.00    +0.000 A 
ATOM     17  C   UNL     1       2.238   6.912  20.688  0.00  0.00    +0.000 A 
ATOM     18  C   UNL     1       3.035   6.057  19.901  0.00  0.00    +0.000 A 
ATOM     19  C   UNL     1       3.237   6.315  18.552  0.00  0.00    +0.000 A 
ATOM     20  C   UNL     1       2.610   7.424  17.974  0.00  0.00    +0.000 A 
ATOM     21  C   UNL     1       1.794   8.266  18.746  0.00  0.00    +0.000 A 
ENDBRANCH   1  19
TORSDOF 2
ENDMDL
MODEL 5
REMARK VINA RESULT:      -6.2      2.607      4.116
REMARK  Name = 
REMARK  3 active torsions:
REMARK  status: ('A' for Active; 'I' for Inactive)
REMARK    1  A    between atoms: C_1  and  C_2
REMARK    2  A    between atoms: C_5  and  N_6
REMARK    3  A    between atoms: C_11  and  C_12
REMARK                            x       y       z     vdW  Elec       q    Type
REMARK                         _______ _______ _______ _____ _____    ______ ____
ROOT
ATOM      1  N   UNL     1       4.501   5.396  17.524  0.00  0.00    +0.000 N 
ATOM      2  C   UNL     1       5.660   5.912  16.905  0.00  0.00    +0.000 C 
ATOM      3  O   UNL     1       5.934   7.095  16.749  0.00  0.00    +0.000 OA
ATOM      4  C   UNL     1       6.629   4.773  16.562  0.00  0.00    +0.000 C 
ATOM      5  S   UNL     1       5.559   3.321  16.408  0.00  0.00    +0.000 S 
ATOM      6  C   UNL     1       4.624   3.967  17.784  0.00  0.00    +0.000 C 
ENDROOT
BRANCH   6   7
ATOM      7  C   UNL     1       3.392   3.242  18.222  0.00  0.00    +0.000 A 
ATOM      8  C   UNL     1       2.165   3.450  17.590  0.00  0.00    +0.000 A 
ATOM      9  F   UNL     1       2.113   3.782  16.292  0.00  0.00    +0.000 F 
ATOM     10  C   UNL     1       0.992   3.471  18.336  0.00  0.00    +0.000 A 
ATOM     11  C   UNL     1       1.046   3.229  19.709  0.00  0.00    +0.000 A 
ATOM     12  C   UNL     1       2.230   2.769  20.281  0.00  0.00    +0.000 A 
ATOM     13  C   UNL     1       3.385   2.707  19.516  0.00  0.00    +0.000 A 
ATOM     14 CL   UNL     1       4.806   2.032  20.234  0.00  0.00    +0.000 Cl
ENDBRANCH   6   7
BRANCH   1  19
ATOM     15  C   UNL     1       0.848   8.570  20.627  0.00  0.00    +0.000 C 
ATOM     16  C   UNL     1       1.857   7.785  19.835  0.00  0.00    +0.000 A 
ATOM     17  C   UNL     1       2.085   8.067  18.482  0.00  0.00    +0.000 A 
ATOM     18  C   UNL     1       3.010   7.302  17.745  0.00  0.00    +0.000 A 
ATOM     19  C   UNL     1       3.697   6.251  18.338  0.00  0.00    +0.000 A 
ATOM     20  C   UNL     1       3.482   5.983  19.694  0.00  0.00    +0.000 A 
ATOM     21  C   UNL     1       2.582   6.758  20.442  0.00  0.00    +0.000 A 
ENDBRANCH   1  19
TORSDOF 2
ENDMDL
MODEL 6
REMARK VINA RESULT:      -6.2      9.822     11.812
REMARK  Name = 
REMARK  3 active torsions:
REMARK  status: ('A' for Active; 'I' for Inactive)
REMARK    1  A    between atoms: C_1  and  C_2
REMARK    2  A    between atoms: C_5  and  N_6
REMARK    3  A    between atoms: C_11  and  C_12
REMARK                            x       y       z     vdW  Elec       q    Type
REMARK                         _______ _______ _______ _____ _____    ______ ____
ROOT
ATOM      1  N   UNL     1      10.596  14.534  18.441  0.00  0.00    +0.000 N 
ATOM      2  C   UNL     1      11.521  14.818  17.413  0.00  0.00    +0.000 C 
ATOM      3  O   UNL     1      12.098  14.000  16.709  0.00  0.00    +0.000 OA
ATOM      4  C   UNL     1      11.613  16.333  17.188  0.00  0.00    +0.000 C 
ATOM      5  S   UNL     1      11.114  17.041  18.778  0.00  0.00    +0.000 S 
ATOM      6  C   UNL     1       9.902  15.736  18.884  0.00  0.00    +0.000 C 
ENDROOT
BRANCH   6   7
ATOM      7  C   UNL     1       9.065  15.628  20.119  0.00  0.00    +0.000 A 
ATOM      8  C   UNL     1       9.574  15.071  21.294  0.00  0.00    +0.000 A 
ATOM      9  F   UNL     1      10.881  15.164  21.582  0.00  0.00    +0.000 F 
ATOM     10  C   UNL     1       8.763  14.278  22.098  0.00  0.00    +0.000 A 
ATOM     11  C   UNL     1       7.425  14.090  21.751  0.00  0.00    +0.000 A 
ATOM     12  C   UNL     1       6.864  14.853  20.728  0.00  0.00    +0.000 A 
ATOM     13  C   UNL     1       7.675  15.677  19.963  0.00  0.00    +0.000 A 
ATOM     14 CL   UNL     1       6.924  16.687  18.775  0.00  0.00    +0.000 Cl
ENDBRANCH   6   7
BRANCH   1  19
ATOM     15  C   UNL     1       8.443   9.205  18.278  0.00  0.00    +0.000 C 
ATOM     16  C   UNL     1       8.962  10.614  18.376  0.00  0.00    +0.000 A 
ATOM     17  C   UNL     1       8.391  11.644  17.619  0.00  0.00    +0.000 A 
ATOM     18  C   UNL     1       8.908  12.951  17.697  0.00  0.00    +0.000 A 
ATOM     19  C   UNL     1       9.996  13.239  18.510  0.00  0.00    +0.000 A 
ATOM     20  C   UNL     1      10.554  12.213  19.281  0.00  0.00    +0.000 A 
ATOM     21  C   UNL     1      10.027  10.912  19.228  0.00  0.00    +0.000 A 
ENDBRANCH   1  19
TORSDOF 2
ENDMDL
MODEL 7
REMARK VINA RESULT:      -6.2      0.298      1.089
REMARK  Name = 
REMARK  3 active torsions:
REMARK  status: ('A' for Active; 'I' for Inactive)
REMARK    1  A    between atoms: C_1  and  C_2
REMARK    2  A    between atoms: C_5  and  N_6
REMARK    3  A    between atoms: C_11  and  C_12
REMARK                            x       y       z     vdW  Elec       q    Type
REMARK                         _______ _______ _______ _____ _____    ______ ____
ROOT
ATOM      1  N   UNL     1       2.728   4.129  18.827  0.00  0.00    +0.000 N 
ATOM      2  C   UNL     1       1.745   3.176  19.172  0.00  0.00    +0.000 C 
ATOM      3  O   UNL     1       0.676   3.403  19.724  0.00  0.00    +0.000 OA
ATOM      4  C   UNL     1       2.133   1.795  18.629  0.00  0.00    +0.000 C 
ATOM      5  S   UNL     1       3.937   1.872  18.490  0.00  0.00    +0.000 S 
ATOM      6  C   UNL     1       3.739   3.560  17.945  0.00  0.00    +0.000 C 
ENDROOT
BRANCH   6   7
ATOM      7  C   UNL     1       4.962   4.381  17.685  0.00  0.00    +0.000 A 
ATOM      8  C   UNL     1       5.617   5.053  18.718  0.00  0.00    +0.000 A 
ATOM      9  F   UNL     1       5.599   4.567  19.968  0.00  0.00    +0.000 F 
ATOM     10  C   UNL     1       6.161   6.313  18.495  0.00  0.00    +0.000 A 
ATOM     11  C   UNL     1       6.094   6.874  17.219  0.00  0.00    +0.000 A 
ATOM     12  C   UNL     1       5.673   6.094  16.144  0.00  0.00    +0.000 A 
ATOM     13  C   UNL     1       5.176   4.819  16.373  0.00  0.00    +0.000 A 
ATOM     14 CL   UNL     1       4.764   3.845  15.005  0.00  0.00    +0.000 Cl
ENDBRANCH   6   7
BRANCH   1  19
ATOM     15  C   UNL     1       1.859   9.812  18.776  0.00  0.00    +0.000 C 
ATOM     16  C   UNL     1       2.014   8.316  18.788  0.00  0.00    +0.000 A 
ATOM     17  C   UNL     1       2.114   7.614  19.996  0.00  0.00    +0.000 A 
ATOM     18  C   UNL     1       2.292   6.217  19.991  0.00  0.00    +0.000 A 
ATOM     19  C   UNL     1       2.385   5.516  18.797  0.00  0.00    +0.000 A 
ATOM     20  C   UNL     1       2.267   6.216  17.591  0.00  0.00    +0.000 A 
ATOM     21  C   UNL     1       2.063   7.605  17.588  0.00  0.00    +0.000 A 
ENDBRANCH   1  19
TORSDOF 2
ENDMDL
MODEL 8
REMARK VINA RESULT:      -6.0     10.203     12.164
REMARK  Name = 
REMARK  3 active torsions:
REMARK  status: ('A' for Active; 'I' for Inactive)
REMARK    1  A    between atoms: C_1  and  C_2
REMARK    2  A    between atoms: C_5  and  N_6
REMARK    3  A    between atoms: C_11  and  C_12
REMARK                            x       y       z     vdW  Elec       q    Type
REMARK                         _______ _______ _______ _____ _____    ______ ____
ROOT
ATOM      1  N   UNL     1      10.438  15.255  18.604  0.00  0.00    +0.000 N 
ATOM      2  C   UNL     1      11.130  15.915  17.565  0.00  0.00    +0.000 C 
ATOM      3  O   UNL     1      11.724  15.383  16.636  0.00  0.00    +0.000 OA
ATOM      4  C   UNL     1      10.924  17.432  17.672  0.00  0.00    +0.000 C 
ATOM      5  S   UNL     1      10.563  17.700  19.425  0.00  0.00    +0.000 S 
ATOM      6  C   UNL     1       9.624  16.183  19.378  0.00  0.00    +0.000 C 
ENDROOT
BRANCH   6   7
ATOM      7  C   UNL     1       9.020  15.670  20.647  0.00  0.00    +0.000 A 
ATOM      8  C   UNL     1       9.813  15.127  21.660  0.00  0.00    +0.000 A 
ATOM      9  F   UNL     1      11.071  15.552  21.843  0.00  0.00    +0.000 F 
ATOM     10  C   UNL     1       9.360  14.032  22.387  0.00  0.00    +0.000 A 
ATOM     11  C   UNL     1       8.089  13.516  22.133  0.00  0.00    +0.000 A 
ATOM     12  C   UNL     1       7.212  14.219  21.309  0.00  0.00    +0.000 A 
ATOM     13  C   UNL     1       7.660  15.339  20.625  0.00  0.00    +0.000 A 
ATOM     14 CL   UNL     1       6.514  16.243  19.697  0.00  0.00    +0.000 Cl
ENDBRANCH   6   7
BRANCH   1  19
ATOM     15  C   UNL     1       8.799   9.746  18.470  0.00  0.00    +0.000 C 
ATOM     16  C   UNL     1       9.266  11.176  18.444  0.00  0.00    +0.000 A 
ATOM     17  C   UNL     1      10.428  11.564  19.121  0.00  0.00    +0.000 A 
ATOM     18  C   UNL     1      10.835  12.913  19.115  0.00  0.00    +0.000 A 
ATOM     19  C   UNL     1      10.088  13.878  18.453  0.00  0.00    +0.000 A 
ATOM     20  C   UNL     1       8.937  13.486  17.761  0.00  0.00    +0.000 A 
ATOM     21  C   UNL     1       8.540  12.139  17.741  0.00  0.00    +0.000 A 
ENDBRANCH   1  19
TORSDOF 2
ENDMDL
MODEL 9
REMARK VINA RESULT:      -6.0      2.015      2.529
REMARK  Name = 
REMARK  3 active torsions:
REMARK  status: ('A' for Active; 'I' for Inactive)
REMARK    1  A    between atoms: C_1  and  C_2
REMARK    2  A    between atoms: C_5  and  N_6
REMARK    3  A    between atoms: C_11  and  C_12
REMARK                            x       y       z     vdW  Elec       q    Type
REMARK                         _______ _______ _______ _____ _____    ______ ____
ROOT
ATOM      1  N   UNL     1       3.281   4.594  19.621  0.00  0.00    +0.000 N 
ATOM      2  C   UNL     1       2.649   3.856  20.645  0.00  0.00    +0.000 C 
ATOM      3  O   UNL     1       1.832   4.285  21.450  0.00  0.00    +0.000 OA
ATOM      4  C   UNL     1       3.021   2.371  20.535  0.00  0.00    +0.000 C 
ATOM      5  S   UNL     1       4.616   2.384  19.679  0.00  0.00    +0.000 S 
ATOM      6  C   UNL     1       3.978   3.721  18.685  0.00  0.00    +0.000 C 
ENDROOT
BRANCH   6   7
ATOM      7  C   UNL     1       4.882   4.371  17.685  0.00  0.00    +0.000 A 
ATOM      8  C   UNL     1       4.716   4.162  16.315  0.00  0.00    +0.000 A 
ATOM      9  F   UNL     1       3.500   3.917  15.804  0.00  0.00    +0.000 F 
ATOM     10  C   UNL     1       5.827   4.049  15.488  0.00  0.00    +0.000 A 
ATOM     11  C   UNL     1       7.104   4.200  16.028  0.00  0.00    +0.000 A 
ATOM     12  C   UNL     1       7.249   4.662  17.335  0.00  0.00    +0.000 A 
ATOM     13  C   UNL     1       6.129   4.817  18.138  0.00  0.00    +0.000 A 
ATOM     14 CL   UNL     1       6.341   5.492  19.716  0.00  0.00    +0.000 Cl
ENDBRANCH   6   7
BRANCH   1  19
ATOM     15  C   UNL     1       1.581   9.887  18.159  0.00  0.00    +0.000 C 
ATOM     16  C   UNL     1       1.957   8.480  18.532  0.00  0.00    +0.000 A 
ATOM     17  C   UNL     1       1.934   8.060  19.868  0.00  0.00    +0.000 A 
ATOM     18  C   UNL     1       2.321   6.749  20.205  0.00  0.00    +0.000 A 
ATOM     19  C   UNL     1       2.743   5.857  19.228  0.00  0.00    +0.000 A 
ATOM     20  C   UNL     1       2.747   6.272  17.891  0.00  0.00    +0.000 A 
ATOM     21  C   UNL     1       2.338   7.570  17.545  0.00  0.00    +0.000 A 
ENDBRANCH   1  19
TORSDOF 2
ENDMDL
