MODEL 1
REMARK VINA RESULT:      -7.8      0.000      0.000
REMARK  Name = 
REMARK  4 active torsions:
REMARK  status: ('A' for Active; 'I' for Inactive)
REMARK    1  A    between atoms: C_1  and  C_2
REMARK    2  A    between atoms: C_6  and  C_7
REMARK    3  A    between atoms: N_9  and  C_10
REMARK    4  A    between atoms: C_10  and  C_11
REMARK                            x       y       z     vdW  Elec       q    Type
REMARK                         _______ _______ _______ _____ _____    ______ ____
ROOT
ATOM      1  C   UNL     1       6.979   6.185  17.524  0.00  0.00    +0.000 C 
ATOM      2  C   UNL     1       5.869   5.452  18.178  0.00  0.00    +0.000 A 
ATOM      3  O   UNL     1       6.233   4.272  18.751  0.00  0.00    +0.000 OA
ATOM      4  C   UNL     1       5.123   3.713  19.296  0.00  0.00    +0.000 A 
ATOM      5  C   UNL     1       4.037   4.552  19.060  0.00  0.00    +0.000 A 
ATOM      6  C   UNL     1       4.507   5.697  18.342  0.00  0.00    +0.000 A 
ATOM      7  C   UNL     1       2.766   4.111  19.550  0.00  0.00    +0.000 C 
ATOM      8  N   UNL     1       1.631   4.732  19.426  0.00  0.00    +0.000 NA
ATOM      9  C   UNL     1       0.686   3.791  20.122  0.00  0.00    +0.000 C 
ATOM     10  C   UNL     1       1.500   2.578  20.636  0.00  0.00    +0.000 C 
ATOM     11  N   UNL     1       2.826   2.912  20.195  0.00  0.00    +0.000 N 
ATOM     12  C   UNL     1       3.963   2.171  20.373  0.00  0.00    +0.000 C 
ATOM     13  N   UNL     1       5.145   2.511  19.949  0.00  0.00    +0.000 NA
ENDROOT
BRANCH   6  14
ATOM     14  C   UNL     1       3.812   6.883  17.840  0.00  0.00    +0.000 C 
ATOM     15  O   UNL     1       4.053   7.355  16.732  0.00  0.00    +0.000 OA
ATOM     16  N   UNL     1       2.867   7.426  18.674  0.00  0.00    +0.000 N 
ATOM     17  H   UNL     1       2.698   7.011  19.587  0.00  0.00    +0.000 HD
BRANCH  16  18
ATOM     18  C   UNL     1       2.023   8.542  18.316  0.00  0.00    +0.000 C 
BRANCH  18  19
ATOM     19  C   UNL     1       1.193   9.033  19.469  0.00  0.00    +0.000 A 
ATOM     20  C   UNL     1       1.349   8.479  20.748  0.00  0.00    +0.000 A 
ATOM     21  C   UNL     1       0.600   8.959  21.826  0.00  0.00    +0.000 A 
ATOM     22  C   UNL     1      -0.322   9.989  21.640  0.00  0.00    +0.000 A 
ATOM     23  C   UNL     1      -0.496  10.538  20.369  0.00  0.00    +0.000 A 
ATOM     24  C   UNL     1       0.258  10.056  19.300  0.00  0.00    +0.000 A 
ATOM     25  F   UNL     1       0.079  10.608  18.091  0.00  0.00    +0.000 F 
ENDBRANCH  18  19
ENDBRANCH  16  18
ENDBRANCH   6  14
TORSDOF 3
ENDMDL
MODEL 2
REMARK VINA RESULT:      -7.8      1.345      1.354
REMARK  Name = 
REMARK  4 active torsions:
REMARK  status: ('A' for Active; 'I' for Inactive)
REMARK    1  A    between atoms: C_1  and  C_2
REMARK    2  A    between atoms: C_6  and  C_7
REMARK    3  A    between atoms: N_9  and  C_10
REMARK    4  A    between atoms: C_10  and  C_11
REMARK                            x       y       z     vdW  Elec       q    Type
REMARK                         _______ _______ _______ _____ _____    ______ ____
ROOT
ATOM      1  C   UNL     1       5.645   5.571  15.370  0.00  0.00    +0.000 C 
ATOM      2  C   UNL     1       4.800   4.974  16.430  0.00  0.00    +0.000 A 
ATOM      3  O   UNL     1       4.802   3.613  16.453  0.00  0.00    +0.000 OA
ATOM      4  C   UNL     1       3.983   3.211  17.458  0.00  0.00    +0.000 A 
ATOM      5  C   UNL     1       3.452   4.337  18.080  0.00  0.00    +0.000 A 
ATOM      6  C   UNL     1       3.983   5.497  17.431  0.00  0.00    +0.000 A 
ATOM      7  C   UNL     1       2.542   4.105  19.161  0.00  0.00    +0.000 C 
ATOM      8  N   UNL     1       1.928   5.010  19.864  0.00  0.00    +0.000 NA
ATOM      9  C   UNL     1       1.129   4.168  20.821  0.00  0.00    +0.000 C 
ATOM     10  C   UNL     1       1.420   2.678  20.517  0.00  0.00    +0.000 C 
ATOM     11  N   UNL     1       2.344   2.782  19.421  0.00  0.00    +0.000 N 
ATOM     12  C   UNL     1       2.931   1.750  18.739  0.00  0.00    +0.000 C 
ATOM     13  N   UNL     1       3.760   1.893  17.747  0.00  0.00    +0.000 NA
ENDROOT
BRANCH   6  14
ATOM     14  C   UNL     1       3.773   6.925  17.667  0.00  0.00    +0.000 C 
ATOM     15  O   UNL     1       4.711   7.712  17.764  0.00  0.00    +0.000 OA
ATOM     16  N   UNL     1       2.466   7.335  17.760  0.00  0.00    +0.000 N 
ATOM     17  H   UNL     1       1.715   6.654  17.681  0.00  0.00    +0.000 HD
BRANCH  16  18
ATOM     18  C   UNL     1       2.062   8.714  17.906  0.00  0.00    +0.000 C 
BRANCH  18  19
ATOM     19  C   UNL     1       1.337   8.971  19.198  0.00  0.00    +0.000 A 
ATOM     20  C   UNL     1       1.672   8.258  20.358  0.00  0.00    +0.000 A 
ATOM     21  C   UNL     1       1.018   8.522  21.566  0.00  0.00    +0.000 A 
ATOM     22  C   UNL     1       0.016   9.489  21.628  0.00  0.00    +0.000 A 
ATOM     23  C   UNL     1      -0.336  10.193  20.476  0.00  0.00    +0.000 A 
ATOM     24  C   UNL     1       0.323   9.928  19.276  0.00  0.00    +0.000 A 
ATOM     25  F   UNL     1      -0.027  10.626  18.186  0.00  0.00    +0.000 F 
ENDBRANCH  18  19
ENDBRANCH  16  18
ENDBRANCH   6  14
TORSDOF 3
ENDMDL
MODEL 3
REMARK VINA RESULT:      -7.5      4.485      6.613
REMARK  Name = 
REMARK  4 active torsions:
REMARK  status: ('A' for Active; 'I' for Inactive)
REMARK    1  A    between atoms: C_1  and  C_2
REMARK    2  A    between atoms: C_6  and  C_7
REMARK    3  A    between atoms: N_9  and  C_10
REMARK    4  A    between atoms: C_10  and  C_11
REMARK                            x       y       z     vdW  Elec       q    Type
REMARK                         _______ _______ _______ _____ _____    ______ ____
ROOT
ATOM      1  C   UNL     1       6.383   5.646  18.592  0.00  0.00    +0.000 C 
ATOM      2  C   UNL     1       6.405   5.238  17.168  0.00  0.00    +0.000 A 
ATOM      3  O   UNL     1       7.458   5.725  16.458  0.00  0.00    +0.000 OA
ATOM      4  C   UNL     1       7.341   5.282  15.181  0.00  0.00    +0.000 A 
ATOM      5  C   UNL     1       6.192   4.503  15.081  0.00  0.00    +0.000 A 
ATOM      6  C   UNL     1       5.574   4.453  16.371  0.00  0.00    +0.000 A 
ATOM      7  C   UNL     1       5.893   3.961  13.789  0.00  0.00    +0.000 C 
ATOM      8  N   UNL     1       4.869   3.224  13.477  0.00  0.00    +0.000 NA
ATOM      9  C   UNL     1       5.100   2.979  12.011  0.00  0.00    +0.000 C 
ATOM     10  C   UNL     1       6.406   3.700  11.598  0.00  0.00    +0.000 C 
ATOM     11  N   UNL     1       6.811   4.296  12.841  0.00  0.00    +0.000 N 
ATOM     12  C   UNL     1       7.919   5.073  13.058  0.00  0.00    +0.000 C 
ATOM     13  N   UNL     1       8.243   5.599  14.202  0.00  0.00    +0.000 NA
ENDROOT
BRANCH   6  14
ATOM     14  C   UNL     1       4.359   3.787  16.842  0.00  0.00    +0.000 C 
ATOM     15  O   UNL     1       3.246   4.281  16.684  0.00  0.00    +0.000 OA
ATOM     16  N   UNL     1       4.537   2.574  17.459  0.00  0.00    +0.000 N 
ATOM     17  H   UNL     1       5.475   2.199  17.578  0.00  0.00    +0.000 HD
BRANCH  16  18
ATOM     18  C   UNL     1       3.453   1.734  17.912  0.00  0.00    +0.000 C 
BRANCH  18  19
ATOM     19  C   UNL     1       2.734   2.308  19.101  0.00  0.00    +0.000 A 
ATOM     20  C   UNL     1       1.384   2.674  19.010  0.00  0.00    +0.000 A 
ATOM     21  C   UNL     1       0.709   3.178  20.126  0.00  0.00    +0.000 A 
ATOM     22  C   UNL     1       1.375   3.333  21.342  0.00  0.00    +0.000 A 
ATOM     23  C   UNL     1       2.723   2.985  21.439  0.00  0.00    +0.000 A 
ATOM     24  C   UNL     1       3.388   2.480  20.323  0.00  0.00    +0.000 A 
ATOM     25  F   UNL     1       4.680   2.144  20.446  0.00  0.00    +0.000 F 
ENDBRANCH  18  19
ENDBRANCH  16  18
ENDBRANCH   6  14
TORSDOF 3
ENDMDL
MODEL 4
REMARK VINA RESULT:      -7.5      1.062      1.134
REMARK  Name = 
REMARK  4 active torsions:
REMARK  status: ('A' for Active; 'I' for Inactive)
REMARK    1  A    between atoms: C_1  and  C_2
REMARK    2  A    between atoms: C_6  and  C_7
REMARK    3  A    between atoms: N_9  and  C_10
REMARK    4  A    between atoms: C_10  and  C_11
REMARK                            x       y       z     vdW  Elec       q    Type
REMARK                         _______ _______ _______ _____ _____    ______ ____
ROOT
ATOM      1  C   UNL     1       7.270   6.429  18.221  0.00  0.00    +0.000 C 
ATOM      2  C   UNL     1       6.086   5.573  18.472  0.00  0.00    +0.000 A 
ATOM      3  O   UNL     1       6.359   4.411  19.127  0.00  0.00    +0.000 OA
ATOM      4  C   UNL     1       5.194   3.732  19.275  0.00  0.00    +0.000 A 
ATOM      5  C   UNL     1       4.166   4.476  18.701  0.00  0.00    +0.000 A 
ATOM      6  C   UNL     1       4.728   5.686  18.183  0.00  0.00    +0.000 A 
ATOM      7  C   UNL     1       2.855   3.902  18.746  0.00  0.00    +0.000 C 
ATOM      8  N   UNL     1       1.766   4.420  18.261  0.00  0.00    +0.000 NA
ATOM      9  C   UNL     1       0.745   3.371  18.605  0.00  0.00    +0.000 C 
ATOM     10  C   UNL     1       1.463   2.220  19.351  0.00  0.00    +0.000 C 
ATOM     11  N   UNL     1       2.820   2.691  19.369  0.00  0.00    +0.000 N 
ATOM     12  C   UNL     1       3.905   2.051  19.906  0.00  0.00    +0.000 C 
ATOM     13  N   UNL     1       5.121   2.515  19.893  0.00  0.00    +0.000 NA
ENDROOT
BRANCH   6  14
ATOM     14  C   UNL     1       4.120   6.820  17.486  0.00  0.00    +0.000 C 
ATOM     15  O   UNL     1       4.473   7.154  16.358  0.00  0.00    +0.000 OA
ATOM     16  N   UNL     1       3.123   7.480  18.162  0.00  0.00    +0.000 N 
ATOM     17  H   UNL     1       2.861   7.178  19.098  0.00  0.00    +0.000 HD
BRANCH  16  18
ATOM     18  C   UNL     1       2.352   8.565  17.604  0.00  0.00    +0.000 C 
BRANCH  18  19
ATOM     19  C   UNL     1       1.722   9.430  18.659  0.00  0.00    +0.000 A 
ATOM     20  C   UNL     1       1.110   8.854  19.781  0.00  0.00    +0.000 A 
ATOM     21  C   UNL     1       0.552   9.661  20.778  0.00  0.00    +0.000 A 
ATOM     22  C   UNL     1       0.588  11.050  20.661  0.00  0.00    +0.000 A 
ATOM     23  C   UNL     1       1.180  11.634  19.540  0.00  0.00    +0.000 A 
ATOM     24  C   UNL     1       1.738  10.822  18.553  0.00  0.00    +0.000 A 
ATOM     25  F   UNL     1       2.311  11.408  17.492  0.00  0.00    +0.000 F 
ENDBRANCH  18  19
ENDBRANCH  16  18
ENDBRANCH   6  14
TORSDOF 3
ENDMDL
MODEL 5
REMARK VINA RESULT:      -7.4      1.030      1.430
REMARK  Name = 
REMARK  4 active torsions:
REMARK  status: ('A' for Active; 'I' for Inactive)
REMARK    1  A    between atoms: C_1  and  C_2
REMARK    2  A    between atoms: C_6  and  C_7
REMARK    3  A    between atoms: N_9  and  C_10
REMARK    4  A    between atoms: C_10  and  C_11
REMARK                            x       y       z     vdW  Elec       q    Type
REMARK                         _______ _______ _______ _____ _____    ______ ____
ROOT
ATOM      1  C   UNL     1       7.230   6.270  17.790  0.00  0.00    +0.000 C 
ATOM      2  C   UNL     1       6.052   5.502  18.258  0.00  0.00    +0.000 A 
ATOM      3  O   UNL     1       6.355   4.351  18.918  0.00  0.00    +0.000 OA
ATOM      4  C   UNL     1       5.189   3.754  19.273  0.00  0.00    +0.000 A 
ATOM      5  C   UNL     1       4.130   4.540  18.827  0.00  0.00    +0.000 A 
ATOM      6  C   UNL     1       4.674   5.691  18.173  0.00  0.00    +0.000 A 
ATOM      7  C   UNL     1       2.810   4.053  19.097  0.00  0.00    +0.000 C 
ATOM      8  N   UNL     1       1.691   4.621  18.758  0.00  0.00    +0.000 NA
ATOM      9  C   UNL     1       0.676   3.654  19.302  0.00  0.00    +0.000 C 
ATOM     10  C   UNL     1       1.433   2.488  19.984  0.00  0.00    +0.000 C 
ATOM     11  N   UNL     1       2.802   2.871  19.774  0.00  0.00    +0.000 N 
ATOM     12  C   UNL     1       3.918   2.184  20.171  0.00  0.00    +0.000 C 
ATOM     13  N   UNL     1       5.142   2.568  19.952  0.00  0.00    +0.000 NA
ENDROOT
BRANCH   6  14
ATOM     14  C   UNL     1       4.032   6.834  17.523  0.00  0.00    +0.000 C 
ATOM     15  O   UNL     1       4.334   7.189  16.387  0.00  0.00    +0.000 OA
ATOM     16  N   UNL     1       3.065   7.479  18.254  0.00  0.00    +0.000 N 
ATOM     17  H   UNL     1       2.846   7.161  19.196  0.00  0.00    +0.000 HD
BRANCH  16  18
ATOM     18  C   UNL     1       2.267   8.571  17.749  0.00  0.00    +0.000 C 
BRANCH  18  19
ATOM     19  C   UNL     1       1.359   9.156  18.795  0.00  0.00    +0.000 A 
ATOM     20  C   UNL     1       0.505  10.223  18.483  0.00  0.00    +0.000 A 
ATOM     21  C   UNL     1      -0.361  10.745  19.448  0.00  0.00    +0.000 A 
ATOM     22  C   UNL     1      -0.377  10.217  20.739  0.00  0.00    +0.000 A 
ATOM     23  C   UNL     1       0.480   9.166  21.065  0.00  0.00    +0.000 A 
ATOM     24  C   UNL     1       1.338   8.648  20.095  0.00  0.00    +0.000 A 
ATOM     25  F   UNL     1       2.144   7.631  20.432  0.00  0.00    +0.000 F 
ENDBRANCH  18  19
ENDBRANCH  16  18
ENDBRANCH   6  14
TORSDOF 3
ENDMDL
MODEL 6
REMARK VINA RESULT:      -7.4      1.707      2.016
REMARK  Name = 
REMARK  4 active torsions:
REMARK  status: ('A' for Active; 'I' for Inactive)
REMARK    1  A    between atoms: C_1  and  C_2
REMARK    2  A    between atoms: C_6  and  C_7
REMARK    3  A    between atoms: N_9  and  C_10
REMARK    4  A    between atoms: C_10  and  C_11
REMARK                            x       y       z     vdW  Elec       q    Type
REMARK                         _______ _______ _______ _____ _____    ______ ____
ROOT
ATOM      1  C   UNL     1       5.821   5.093  15.324  0.00  0.00    +0.000 C 
ATOM      2  C   UNL     1       4.898   4.670  16.403  0.00  0.00    +0.000 A 
ATOM      3  O   UNL     1       4.710   3.324  16.490  0.00  0.00    +0.000 OA
ATOM      4  C   UNL     1       3.842   3.088  17.505  0.00  0.00    +0.000 A 
ATOM      5  C   UNL     1       3.471   4.307  18.069  0.00  0.00    +0.000 A 
ATOM      6  C   UNL     1       4.159   5.349  17.371  0.00  0.00    +0.000 A 
ATOM      7  C   UNL     1       2.534   4.255  19.151  0.00  0.00    +0.000 C 
ATOM      8  N   UNL     1       2.050   5.269  19.804  0.00  0.00    +0.000 NA
ATOM      9  C   UNL     1       1.139   4.593  20.793  0.00  0.00    +0.000 C 
ATOM     10  C   UNL     1       1.221   3.064  20.562  0.00  0.00    +0.000 C 
ATOM     11  N   UNL     1       2.153   2.987  19.472  0.00  0.00    +0.000 N 
ATOM     12  C   UNL     1       2.593   1.851  18.845  0.00  0.00    +0.000 C 
ATOM     13  N   UNL     1       3.436   1.830  17.854  0.00  0.00    +0.000 NA
ENDROOT
BRANCH   6  14
ATOM     14  C   UNL     1       4.149   6.802  17.537  0.00  0.00    +0.000 C 
ATOM     15  O   UNL     1       5.185   7.461  17.552  0.00  0.00    +0.000 OA
ATOM     16  N   UNL     1       2.913   7.386  17.663  0.00  0.00    +0.000 N 
ATOM     17  H   UNL     1       2.076   6.807  17.652  0.00  0.00    +0.000 HD
BRANCH  16  18
ATOM     18  C   UNL     1       2.700   8.812  17.750  0.00  0.00    +0.000 C 
BRANCH  18  19
ATOM     19  C   UNL     1       1.502   9.168  18.584  0.00  0.00    +0.000 A 
ATOM     20  C   UNL     1       0.438   9.895  18.032  0.00  0.00    +0.000 A 
ATOM     21  C   UNL     1      -0.690  10.197  18.801  0.00  0.00    +0.000 A 
ATOM     22  C   UNL     1      -0.766   9.788  20.132  0.00  0.00    +0.000 A 
ATOM     23  C   UNL     1       0.294   9.077  20.697  0.00  0.00    +0.000 A 
ATOM     24  C   UNL     1       1.414   8.776  19.922  0.00  0.00    +0.000 A 
ATOM     25  F   UNL     1       2.413   8.083  20.485  0.00  0.00    +0.000 F 
ENDBRANCH  18  19
ENDBRANCH  16  18
ENDBRANCH   6  14
TORSDOF 3
ENDMDL
MODEL 7
REMARK VINA RESULT:      -7.3      4.128      6.151
REMARK  Name = 
REMARK  4 active torsions:
REMARK  status: ('A' for Active; 'I' for Inactive)
REMARK    1  A    between atoms: C_1  and  C_2
REMARK    2  A    between atoms: C_6  and  C_7
REMARK    3  A    between atoms: N_9  and  C_10
REMARK    4  A    between atoms: C_10  and  C_11
REMARK                            x       y       z     vdW  Elec       q    Type
REMARK                         _______ _______ _______ _____ _____    ______ ____
ROOT
ATOM      1  C   UNL     1       6.271   5.542  18.772  0.00  0.00    +0.000 C 
ATOM      2  C   UNL     1       6.309   5.182  17.336  0.00  0.00    +0.000 A 
ATOM      3  O   UNL     1       7.396   5.652  16.665  0.00  0.00    +0.000 OA
ATOM      4  C   UNL     1       7.291   5.258  15.371  0.00  0.00    +0.000 A 
ATOM      5  C   UNL     1       6.114   4.529  15.219  0.00  0.00    +0.000 A 
ATOM      6  C   UNL     1       5.466   4.459  16.493  0.00  0.00    +0.000 A 
ATOM      7  C   UNL     1       5.823   4.044  13.903  0.00  0.00    +0.000 C 
ATOM      8  N   UNL     1       4.779   3.359  13.544  0.00  0.00    +0.000 NA
ATOM      9  C   UNL     1       5.033   3.157  12.075  0.00  0.00    +0.000 C 
ATOM     10  C   UNL     1       6.376   3.838  11.715  0.00  0.00    +0.000 C 
ATOM     11  N   UNL     1       6.776   4.375  12.987  0.00  0.00    +0.000 N 
ATOM     12  C   UNL     1       7.907   5.099  13.254  0.00  0.00    +0.000 C 
ATOM     13  N   UNL     1       8.226   5.572  14.424  0.00  0.00    +0.000 NA
ENDROOT
BRANCH   6  14
ATOM     14  C   UNL     1       4.216   3.826  16.915  0.00  0.00    +0.000 C 
ATOM     15  O   UNL     1       4.139   2.619  17.128  0.00  0.00    +0.000 OA
ATOM     16  N   UNL     1       3.139   4.663  17.070  0.00  0.00    +0.000 N 
ATOM     17  H   UNL     1       3.238   5.657  16.879  0.00  0.00    +0.000 HD
BRANCH  16  18
ATOM     18  C   UNL     1       1.850   4.235  17.560  0.00  0.00    +0.000 C 
BRANCH  18  19
ATOM     19  C   UNL     1       1.867   3.911  19.028  0.00  0.00    +0.000 A 
ATOM     20  C   UNL     1       2.423   4.809  19.950  0.00  0.00    +0.000 A 
ATOM     21  C   UNL     1       2.409   4.521  21.318  0.00  0.00    +0.000 A 
ATOM     22  C   UNL     1       1.851   3.330  21.782  0.00  0.00    +0.000 A 
ATOM     23  C   UNL     1       1.309   2.422  20.871  0.00  0.00    +0.000 A 
ATOM     24  C   UNL     1       1.323   2.718  19.509  0.00  0.00    +0.000 A 
ATOM     25  F   UNL     1       0.786   1.834  18.656  0.00  0.00    +0.000 F 
ENDBRANCH  18  19
ENDBRANCH  16  18
ENDBRANCH   6  14
TORSDOF 3
ENDMDL
MODEL 8
REMARK VINA RESULT:      -7.2      3.647      6.652
REMARK  Name = 
REMARK  4 active torsions:
REMARK  status: ('A' for Active; 'I' for Inactive)
REMARK    1  A    between atoms: C_1  and  C_2
REMARK    2  A    between atoms: C_6  and  C_7
REMARK    3  A    between atoms: N_9  and  C_10
REMARK    4  A    between atoms: C_10  and  C_11
REMARK                            x       y       z     vdW  Elec       q    Type
REMARK                         _______ _______ _______ _____ _____    ______ ____
ROOT
ATOM      1  C   UNL     1       3.072   8.566  17.465  0.00  0.00    +0.000 C 
ATOM      2  C   UNL     1       3.144   7.256  18.154  0.00  0.00    +0.000 A 
ATOM      3  O   UNL     1       2.078   6.981  18.955  0.00  0.00    +0.000 OA
ATOM      4  C   UNL     1       2.285   5.766  19.523  0.00  0.00    +0.000 A 
ATOM      5  C   UNL     1       3.506   5.266  19.077  0.00  0.00    +0.000 A 
ATOM      6  C   UNL     1       4.074   6.219  18.173  0.00  0.00    +0.000 A 
ATOM      7  C   UNL     1       3.904   3.990  19.592  0.00  0.00    +0.000 C 
ATOM      8  N   UNL     1       5.004   3.353  19.317  0.00  0.00    +0.000 NA
ATOM      9  C   UNL     1       4.854   2.107  20.145  0.00  0.00    +0.000 C 
ATOM     10  C   UNL     1       3.503   2.182  20.897  0.00  0.00    +0.000 C 
ATOM     11  N   UNL     1       2.996   3.451  20.452  0.00  0.00    +0.000 N 
ATOM     12  C   UNL     1       1.814   4.038  20.817  0.00  0.00    +0.000 C 
ATOM     13  N   UNL     1       1.397   5.194  20.392  0.00  0.00    +0.000 NA
ENDROOT
BRANCH   6  14
ATOM     14  C   UNL     1       5.327   6.214  17.417  0.00  0.00    +0.000 C 
ATOM     15  O   UNL     1       6.112   7.158  17.456  0.00  0.00    +0.000 OA
ATOM     16  N   UNL     1       5.577   5.089  16.671  0.00  0.00    +0.000 N 
ATOM     17  H   UNL     1       4.900   4.330  16.657  0.00  0.00    +0.000 HD
BRANCH  16  18
ATOM     18  C   UNL     1       6.796   4.869  15.928  0.00  0.00    +0.000 C 
BRANCH  18  19
ATOM     19  C   UNL     1       6.540   4.450  14.508  0.00  0.00    +0.000 A 
ATOM     20  C   UNL     1       5.416   3.678  14.182  0.00  0.00    +0.000 A 
ATOM     21  C   UNL     1       5.162   3.317  12.855  0.00  0.00    +0.000 A 
ATOM     22  C   UNL     1       6.033   3.711  11.840  0.00  0.00    +0.000 A 
ATOM     23  C   UNL     1       7.164   4.466  12.154  0.00  0.00    +0.000 A 
ATOM     24  C   UNL     1       7.407   4.826  13.479  0.00  0.00    +0.000 A 
ATOM     25  F   UNL     1       8.494   5.561  13.753  0.00  0.00    +0.000 F 
ENDBRANCH  18  19
ENDBRANCH  16  18
ENDBRANCH   6  14
TORSDOF 3
ENDMDL
MODEL 9
REMARK VINA RESULT:      -7.2      4.319      6.456
REMARK  Name = 
REMARK  4 active torsions:
REMARK  status: ('A' for Active; 'I' for Inactive)
REMARK    1  A    between atoms: C_1  and  C_2
REMARK    2  A    between atoms: C_6  and  C_7
REMARK    3  A    between atoms: N_9  and  C_10
REMARK    4  A    between atoms: C_10  and  C_11
REMARK                            x       y       z     vdW  Elec       q    Type
REMARK                         _______ _______ _______ _____ _____    ______ ____
ROOT
ATOM      1  C   UNL     1       6.382   5.890  18.470  0.00  0.00    +0.000 C 
ATOM      2  C   UNL     1       6.392   5.413  17.068  0.00  0.00    +0.000 A 
ATOM      3  O   UNL     1       7.454   5.844  16.333  0.00  0.00    +0.000 OA
ATOM      4  C   UNL     1       7.325   5.343  15.079  0.00  0.00    +0.000 A 
ATOM      5  C   UNL     1       6.160   4.584  15.018  0.00  0.00    +0.000 A 
ATOM      6  C   UNL     1       5.544   4.608  16.309  0.00  0.00    +0.000 A 
ATOM      7  C   UNL     1       5.847   3.987  13.754  0.00  0.00    +0.000 C 
ATOM      8  N   UNL     1       4.807   3.257  13.479  0.00  0.00    +0.000 NA
ATOM      9  C   UNL     1       5.029   2.938  12.026  0.00  0.00    +0.000 C 
ATOM     10  C   UNL     1       6.350   3.610  11.577  0.00  0.00    +0.000 C 
ATOM     11  N   UNL     1       6.770   4.257  12.789  0.00  0.00    +0.000 N 
ATOM     12  C   UNL     1       7.893   5.020  12.967  0.00  0.00    +0.000 C 
ATOM     13  N   UNL     1       8.231   5.593  14.085  0.00  0.00    +0.000 NA
ENDROOT
BRANCH   6  14
ATOM     14  C   UNL     1       4.317   3.991  16.814  0.00  0.00    +0.000 C 
ATOM     15  O   UNL     1       3.246   4.593  16.828  0.00  0.00    +0.000 OA
ATOM     16  N   UNL     1       4.430   2.697  17.258  0.00  0.00    +0.000 N 
ATOM     17  H   UNL     1       5.335   2.232  17.237  0.00  0.00    +0.000 HD
BRANCH  16  18
ATOM     18  C   UNL     1       3.315   1.899  17.710  0.00  0.00    +0.000 C 
BRANCH  18  19
ATOM     19  C   UNL     1       2.791   2.343  19.047  0.00  0.00    +0.000 A 
ATOM     20  C   UNL     1       3.623   2.344  20.175  0.00  0.00    +0.000 A 
ATOM     21  C   UNL     1       3.143   2.787  21.411  0.00  0.00    +0.000 A 
ATOM     22  C   UNL     1       1.824   3.223  21.539  0.00  0.00    +0.000 A 
ATOM     23  C   UNL     1       0.983   3.211  20.426  0.00  0.00    +0.000 A 
ATOM     24  C   UNL     1       1.470   2.772  19.196  0.00  0.00    +0.000 A 
ATOM     25  F   UNL     1       0.644   2.781  18.141  0.00  0.00    +0.000 F 
ENDBRANCH  18  19
ENDBRANCH  16  18
ENDBRANCH   6  14
TORSDOF 3
ENDMDL
