MODEL 1
REMARK VINA RESULT:      -8.3      0.000      0.000
REMARK  Name = 
REMARK  9 active torsions:
REMARK  status: ('A' for Active; 'I' for Inactive)
REMARK    1  A    between atoms: C_1  and  C_2
REMARK    2  A    between atoms: C_2  and  C_3
REMARK    3  A    between atoms: C_4  and  C_5
REMARK    4  A    between atoms: C_5  and  C_7
REMARK    5  A    between atoms: C_15  and  C_16
REMARK    6  A    between atoms: C_16  and  C_17
REMARK    7  A    between atoms: N_19  and  C_20
REMARK    8  A    between atoms: C_20  and  C_21
REMARK    9  A    between atoms: C_21  and  C_22
REMARK                            x       y       z     vdW  Elec       q    Type
REMARK                         _______ _______ _______ _____ _____    ______ ____
ROOT
ATOM      1  C   UNL     1       3.114   4.294  17.534  0.00  0.00    +0.000 A 
ATOM      2  N   UNL     1       3.962   3.666  16.655  0.00  0.00    +0.000 N 
ATOM      3  C   UNL     1       5.130   4.366  16.496  0.00  0.00    +0.000 A 
ATOM      4  C   UNL     1       6.241   4.067  15.697  0.00  0.00    +0.000 A 
ATOM      5  C   UNL     1       7.313   4.961  15.711  0.00  0.00    +0.000 A 
ATOM      6  C   UNL     1       7.270   6.104  16.499  0.00  0.00    +0.000 A 
ATOM      7  C   UNL     1       6.144   6.387  17.285  0.00  0.00    +0.000 A 
ATOM      8  C   UNL     1       5.038   5.508  17.286  0.00  0.00    +0.000 A 
ATOM      9  C   UNL     1       3.744   5.491  17.913  0.00  0.00    +0.000 A 
ATOM     10  H   UNL     1       3.770   2.805  16.166  0.00  0.00    +0.000 HD
ENDROOT
BRANCH   1  11
ATOM     11  C   UNL     1       1.796   3.812  17.948  0.00  0.00    +0.000 C 
ATOM     12  O   UNL     1       0.776   4.087  17.321  0.00  0.00    +0.000 OA
BRANCH  11  16
ATOM     13  C   UNL     1       1.425   2.547  21.613  0.00  0.00    +0.000 C 
ATOM     14  C   UNL     1       1.484   3.486  20.438  0.00  0.00    +0.000 C 
ATOM     15  C   UNL     1       1.276   4.948  20.733  0.00  0.00    +0.000 C 
ATOM     16  C   UNL     1       1.699   2.990  19.202  0.00  0.00    +0.000 C 
ENDBRANCH  11  16
ENDBRANCH   1  11
BRANCH   9  17
ATOM     17  C   UNL     1       3.092   6.521  18.804  0.00  0.00    +0.000 C 
BRANCH  17  18
ATOM     18  C   UNL     1       2.596   7.775  18.120  0.00  0.00    +0.000 C 
ATOM     19  O   UNL     1       2.953   8.093  16.987  0.00  0.00    +0.000 OA
ATOM     20  N   UNL     1       1.718   8.546  18.865  0.00  0.00    +0.000 N 
ATOM     21  H   UNL     1       1.283   8.129  19.679  0.00  0.00    +0.000 HD
BRANCH  20  22
ATOM     22  C   UNL     1       1.100   9.700  18.240  0.00  0.00    +0.000 C 
BRANCH  22  23
ATOM     23  C   UNL     1      -0.001  10.351  19.074  0.00  0.00    +0.000 C 
BRANCH  23  24
ATOM     24  C   UNL     1      -1.144  10.746  18.205  0.00  0.00    +0.000 A 
ATOM     25  C   UNL     1      -1.857  11.927  18.187  0.00  0.00    +0.000 A 
ATOM     26  N   UNL     1      -2.733  11.802  17.145  0.00  0.00    +0.000 N 
ATOM     27  C   UNL     1      -2.531  10.575  16.582  0.00  0.00    +0.000 A 
ATOM     28  N   UNL     1      -1.586   9.911  17.207  0.00  0.00    +0.000 NA
ATOM     29  H   UNL     1      -3.397  12.496  16.829  0.00  0.00    +0.000 HD
ENDBRANCH  23  24
ENDBRANCH  22  23
ENDBRANCH  20  22
ENDBRANCH  17  18
ENDBRANCH   9  17
TORSDOF 7
ENDMDL
MODEL 2
REMARK VINA RESULT:      -8.2      2.646      6.939
REMARK  Name = 
REMARK  9 active torsions:
REMARK  status: ('A' for Active; 'I' for Inactive)
REMARK    1  A    between atoms: C_1  and  C_2
REMARK    2  A    between atoms: C_2  and  C_3
REMARK    3  A    between atoms: C_4  and  C_5
REMARK    4  A    between atoms: C_5  and  C_7
REMARK    5  A    between atoms: C_15  and  C_16
REMARK    6  A    between atoms: C_16  and  C_17
REMARK    7  A    between atoms: N_19  and  C_20
REMARK    8  A    between atoms: C_20  and  C_21
REMARK    9  A    between atoms: C_21  and  C_22
REMARK                            x       y       z     vdW  Elec       q    Type
REMARK                         _______ _______ _______ _____ _____    ______ ____
ROOT
ATOM      1  C   UNL     1       2.337   6.405  19.813  0.00  0.00    +0.000 A 
ATOM      2  N   UNL     1       1.738   7.251  20.715  0.00  0.00    +0.000 N 
ATOM      3  C   UNL     1       1.487   8.480  20.161  0.00  0.00    +0.000 A 
ATOM      4  C   UNL     1       0.895   9.610  20.741  0.00  0.00    +0.000 A 
ATOM      5  C   UNL     1       0.759  10.752  19.951  0.00  0.00    +0.000 A 
ATOM      6  C   UNL     1       1.197  10.755  18.632  0.00  0.00    +0.000 A 
ATOM      7  C   UNL     1       1.794   9.616  18.075  0.00  0.00    +0.000 A 
ATOM      8  C   UNL     1       1.956   8.447  18.851  0.00  0.00    +0.000 A 
ATOM      9  C   UNL     1       2.536   7.147  18.638  0.00  0.00    +0.000 A 
ATOM     10  H   UNL     1       1.513   7.027  21.672  0.00  0.00    +0.000 HD
ENDROOT
BRANCH   1  11
ATOM     11  C   UNL     1       2.723   5.017  20.065  0.00  0.00    +0.000 C 
ATOM     12  O   UNL     1       3.867   4.707  20.386  0.00  0.00    +0.000 OA
BRANCH  11  16
ATOM     13  C   UNL     1       0.492   2.106  18.753  0.00  0.00    +0.000 C 
ATOM     14  C   UNL     1       1.593   3.129  18.813  0.00  0.00    +0.000 C 
ATOM     15  C   UNL     1       2.549   3.159  17.650  0.00  0.00    +0.000 C 
ATOM     16  C   UNL     1       1.685   3.945  19.884  0.00  0.00    +0.000 C 
ENDBRANCH  11  16
ENDBRANCH   1  11
BRANCH   9  17
ATOM     17  C   UNL     1       3.258   6.602  17.429  0.00  0.00    +0.000 C 
BRANCH  17  18
ATOM     18  C   UNL     1       4.768   6.671  17.468  0.00  0.00    +0.000 C 
ATOM     19  O   UNL     1       5.400   7.587  16.945  0.00  0.00    +0.000 OA
ATOM     20  N   UNL     1       5.389   5.622  18.127  0.00  0.00    +0.000 N 
ATOM     21  H   UNL     1       4.828   5.032  18.729  0.00  0.00    +0.000 HD
BRANCH  20  22
ATOM     22  C   UNL     1       6.827   5.672  18.317  0.00  0.00    +0.000 C 
BRANCH  22  23
ATOM     23  C   UNL     1       7.596   4.576  17.583  0.00  0.00    +0.000 C 
BRANCH  23  24
ATOM     24  C   UNL     1       7.107   4.450  16.182  0.00  0.00    +0.000 A 
ATOM     25  C   UNL     1       6.119   3.633  15.675  0.00  0.00    +0.000 A 
ATOM     26  N   UNL     1       6.011   3.977  14.356  0.00  0.00    +0.000 N 
ATOM     27  C   UNL     1       6.921   4.964  14.112  0.00  0.00    +0.000 A 
ATOM     28  N   UNL     1       7.605   5.263  15.192  0.00  0.00    +0.000 NA
ATOM     29  H   UNL     1       5.362   3.590  13.683  0.00  0.00    +0.000 HD
ENDBRANCH  23  24
ENDBRANCH  22  23
ENDBRANCH  20  22
ENDBRANCH  17  18
ENDBRANCH   9  17
TORSDOF 7
ENDMDL
MODEL 3
REMARK VINA RESULT:      -8.1      1.226      1.420
REMARK  Name = 
REMARK  9 active torsions:
REMARK  status: ('A' for Active; 'I' for Inactive)
REMARK    1  A    between atoms: C_1  and  C_2
REMARK    2  A    between atoms: C_2  and  C_3
REMARK    3  A    between atoms: C_4  and  C_5
REMARK    4  A    between atoms: C_5  and  C_7
REMARK    5  A    between atoms: C_15  and  C_16
REMARK    6  A    between atoms: C_16  and  C_17
REMARK    7  A    between atoms: N_19  and  C_20
REMARK    8  A    between atoms: C_20  and  C_21
REMARK    9  A    between atoms: C_21  and  C_22
REMARK                            x       y       z     vdW  Elec       q    Type
REMARK                         _______ _______ _______ _____ _____    ______ ____
ROOT
ATOM      1  C   UNL     1       3.189   5.033  18.051  0.00  0.00    +0.000 A 
ATOM      2  N   UNL     1       4.352   4.306  18.135  0.00  0.00    +0.000 N 
ATOM      3  C   UNL     1       5.453   5.090  17.906  0.00  0.00    +0.000 A 
ATOM      4  C   UNL     1       6.808   4.736  17.901  0.00  0.00    +0.000 A 
ATOM      5  C   UNL     1       7.742   5.737  17.629  0.00  0.00    +0.000 A 
ATOM      6  C   UNL     1       7.329   7.039  17.379  0.00  0.00    +0.000 A 
ATOM      7  C   UNL     1       5.967   7.370  17.381  0.00  0.00    +0.000 A 
ATOM      8  C   UNL     1       4.995   6.378  17.642  0.00  0.00    +0.000 A 
ATOM      9  C   UNL     1       3.558   6.339  17.689  0.00  0.00    +0.000 A 
ATOM     10  H   UNL     1       4.415   3.317  18.327  0.00  0.00    +0.000 HD
ENDROOT
BRANCH   1  11
ATOM     11  C   UNL     1       1.837   4.515  18.259  0.00  0.00    +0.000 C 
ATOM     12  O   UNL     1       1.031   4.411  17.339  0.00  0.00    +0.000 OA
BRANCH  11  16
ATOM     13  C   UNL     1       1.127   2.685  21.624  0.00  0.00    +0.000 C 
ATOM     14  C   UNL     1       1.603   2.928  20.217  0.00  0.00    +0.000 C 
ATOM     15  C   UNL     1       2.278   1.773  19.526  0.00  0.00    +0.000 C 
ATOM     16  C   UNL     1       1.424   4.142  19.655  0.00  0.00    +0.000 C 
ENDBRANCH  11  16
ENDBRANCH   1  11
BRANCH   9  17
ATOM     17  C   UNL     1       2.555   7.430  17.401  0.00  0.00    +0.000 C 
BRANCH  17  18
ATOM     18  C   UNL     1       2.042   8.196  18.599  0.00  0.00    +0.000 C 
ATOM     19  O   UNL     1       2.151   7.773  19.749  0.00  0.00    +0.000 OA
ATOM     20  N   UNL     1       1.429   9.404  18.309  0.00  0.00    +0.000 N 
ATOM     21  H   UNL     1       1.571   9.808  17.391  0.00  0.00    +0.000 HD
BRANCH  20  22
ATOM     22  C   UNL     1       1.017  10.260  19.406  0.00  0.00    +0.000 C 
BRANCH  22  23
ATOM     23  C   UNL     1      -0.486  10.253  19.678  0.00  0.00    +0.000 C 
BRANCH  23  24
ATOM     24  C   UNL     1      -1.231  10.733  18.481  0.00  0.00    +0.000 A 
ATOM     25  C   UNL     1      -1.537  12.024  18.106  0.00  0.00    +0.000 A 
ATOM     26  N   UNL     1      -2.150  11.909  16.889  0.00  0.00    +0.000 N 
ATOM     27  C   UNL     1      -2.199  10.581  16.577  0.00  0.00    +0.000 A 
ATOM     28  N   UNL     1      -1.662   9.846  17.523  0.00  0.00    +0.000 NA
ATOM     29  H   UNL     1      -2.488  12.666  16.310  0.00  0.00    +0.000 HD
ENDBRANCH  23  24
ENDBRANCH  22  23
ENDBRANCH  20  22
ENDBRANCH  17  18
ENDBRANCH   9  17
TORSDOF 7
ENDMDL
MODEL 4
REMARK VINA RESULT:      -8.1      1.623      4.544
REMARK  Name = 
REMARK  9 active torsions:
REMARK  status: ('A' for Active; 'I' for Inactive)
REMARK    1  A    between atoms: C_1  and  C_2
REMARK    2  A    between atoms: C_2  and  C_3
REMARK    3  A    between atoms: C_4  and  C_5
REMARK    4  A    between atoms: C_5  and  C_7
REMARK    5  A    between atoms: C_15  and  C_16
REMARK    6  A    between atoms: C_16  and  C_17
REMARK    7  A    between atoms: N_19  and  C_20
REMARK    8  A    between atoms: C_20  and  C_21
REMARK    9  A    between atoms: C_21  and  C_22
REMARK                            x       y       z     vdW  Elec       q    Type
REMARK                         _______ _______ _______ _____ _____    ______ ____
ROOT
ATOM      1  C   UNL     1       4.794   4.634  18.684  0.00  0.00    +0.000 A 
ATOM      2  N   UNL     1       4.818   3.628  19.619  0.00  0.00    +0.000 N 
ATOM      3  C   UNL     1       3.569   3.390  20.134  0.00  0.00    +0.000 A 
ATOM      4  C   UNL     1       3.172   2.456  21.100  0.00  0.00    +0.000 A 
ATOM      5  C   UNL     1       1.823   2.422  21.457  0.00  0.00    +0.000 A 
ATOM      6  C   UNL     1       0.913   3.287  20.862  0.00  0.00    +0.000 A 
ATOM      7  C   UNL     1       1.334   4.219  19.903  0.00  0.00    +0.000 A 
ATOM      8  C   UNL     1       2.694   4.287  19.528  0.00  0.00    +0.000 A 
ATOM      9  C   UNL     1       3.472   5.108  18.639  0.00  0.00    +0.000 A 
ATOM     10  H   UNL     1       5.638   3.121  19.917  0.00  0.00    +0.000 HD
ENDROOT
BRANCH   1  11
ATOM     11  C   UNL     1       5.943   5.127  17.925  0.00  0.00    +0.000 C 
ATOM     12  O   UNL     1       6.580   6.115  18.279  0.00  0.00    +0.000 OA
BRANCH  11  16
ATOM     13  C   UNL     1       6.447   4.025  14.223  0.00  0.00    +0.000 C 
ATOM     14  C   UNL     1       6.024   4.847  15.411  0.00  0.00    +0.000 C 
ATOM     15  C   UNL     1       5.300   6.134  15.116  0.00  0.00    +0.000 C 
ATOM     16  C   UNL     1       6.317   4.416  16.655  0.00  0.00    +0.000 C 
ENDBRANCH  11  16
ENDBRANCH   1  11
BRANCH   9  17
ATOM     17  C   UNL     1       3.046   6.286  17.796  0.00  0.00    +0.000 C 
BRANCH  17  18
ATOM     18  C   UNL     1       2.498   7.478  18.547  0.00  0.00    +0.000 C 
ATOM     19  O   UNL     1       2.460   7.523  19.776  0.00  0.00    +0.000 OA
ATOM     20  N   UNL     1       2.030   8.512  17.752  0.00  0.00    +0.000 N 
ATOM     21  H   UNL     1       2.294   8.525  16.774  0.00  0.00    +0.000 HD
BRANCH  20  22
ATOM     22  C   UNL     1       1.600   9.742  18.389  0.00  0.00    +0.000 C 
BRANCH  22  23
ATOM     23  C   UNL     1       0.215   9.668  19.028  0.00  0.00    +0.000 C 
BRANCH  23  24
ATOM     24  C   UNL     1      -0.745  10.532  18.288  0.00  0.00    +0.000 A 
ATOM     25  C   UNL     1      -0.837  11.908  18.261  0.00  0.00    +0.000 A 
ATOM     26  N   UNL     1      -1.827  12.184  17.359  0.00  0.00    +0.000 N 
ATOM     27  C   UNL     1      -2.295  10.994  16.884  0.00  0.00    +0.000 A 
ATOM     28  N   UNL     1      -1.670   9.979  17.434  0.00  0.00    +0.000 NA
ATOM     29  H   UNL     1      -2.144  13.101  17.074  0.00  0.00    +0.000 HD
ENDBRANCH  23  24
ENDBRANCH  22  23
ENDBRANCH  20  22
ENDBRANCH  17  18
ENDBRANCH   9  17
TORSDOF 7
ENDMDL
MODEL 5
REMARK VINA RESULT:      -8.0      2.277      4.750
REMARK  Name = 
REMARK  9 active torsions:
REMARK  status: ('A' for Active; 'I' for Inactive)
REMARK    1  A    between atoms: C_1  and  C_2
REMARK    2  A    between atoms: C_2  and  C_3
REMARK    3  A    between atoms: C_4  and  C_5
REMARK    4  A    between atoms: C_5  and  C_7
REMARK    5  A    between atoms: C_15  and  C_16
REMARK    6  A    between atoms: C_16  and  C_17
REMARK    7  A    between atoms: N_19  and  C_20
REMARK    8  A    between atoms: C_20  and  C_21
REMARK    9  A    between atoms: C_21  and  C_22
REMARK                            x       y       z     vdW  Elec       q    Type
REMARK                         _______ _______ _______ _____ _____    ______ ____
ROOT
ATOM      1  C   UNL     1       4.150   5.224  17.091  0.00  0.00    +0.000 A 
ATOM      2  N   UNL     1       3.799   3.910  16.903  0.00  0.00    +0.000 N 
ATOM      3  C   UNL     1       2.811   3.523  17.772  0.00  0.00    +0.000 A 
ATOM      4  C   UNL     1       2.182   2.279  17.904  0.00  0.00    +0.000 A 
ATOM      5  C   UNL     1       1.199   2.147  18.885  0.00  0.00    +0.000 A 
ATOM      6  C   UNL     1       0.861   3.222  19.696  0.00  0.00    +0.000 A 
ATOM      7  C   UNL     1       1.509   4.457  19.553  0.00  0.00    +0.000 A 
ATOM      8  C   UNL     1       2.516   4.621  18.576  0.00  0.00    +0.000 A 
ATOM      9  C   UNL     1       3.392   5.690  18.177  0.00  0.00    +0.000 A 
ATOM     10  H   UNL     1       4.208   3.282  16.227  0.00  0.00    +0.000 HD
ENDROOT
BRANCH   1  11
ATOM     11  C   UNL     1       5.154   5.962  16.323  0.00  0.00    +0.000 C 
ATOM     12  O   UNL     1       5.222   5.886  15.099  0.00  0.00    +0.000 OA
BRANCH  11  16
ATOM     13  C   UNL     1       8.129   7.280  18.465  0.00  0.00    +0.000 C 
ATOM     14  C   UNL     1       7.219   6.325  17.741  0.00  0.00    +0.000 C 
ATOM     15  C   UNL     1       7.589   4.866  17.802  0.00  0.00    +0.000 C 
ATOM     16  C   UNL     1       6.148   6.803  17.073  0.00  0.00    +0.000 C 
ENDBRANCH  11  16
ENDBRANCH   1  11
BRANCH   9  17
ATOM     17  C   UNL     1       3.555   7.072  18.765  0.00  0.00    +0.000 C 
BRANCH  17  18
ATOM     18  C   UNL     1       2.539   8.104  18.331  0.00  0.00    +0.000 C 
ATOM     19  O   UNL     1       2.465   8.510  17.173  0.00  0.00    +0.000 OA
ATOM     20  N   UNL     1       1.704   8.568  19.335  0.00  0.00    +0.000 N 
ATOM     21  H   UNL     1       1.650   8.042  20.199  0.00  0.00    +0.000 HD
BRANCH  20  22
ATOM     22  C   UNL     1       0.622   9.468  18.982  0.00  0.00    +0.000 C 
BRANCH  22  23
ATOM     23  C   UNL     1       0.612  10.777  19.767  0.00  0.00    +0.000 C 
BRANCH  23  24
ATOM     24  C   UNL     1       0.091  10.552  21.144  0.00  0.00    +0.000 A 
ATOM     25  C   UNL     1      -0.499  11.449  22.009  0.00  0.00    +0.000 A 
ATOM     26  N   UNL     1      -0.871  10.708  23.096  0.00  0.00    +0.000 N 
ATOM     27  C   UNL     1      -0.497   9.417  22.862  0.00  0.00    +0.000 A 
ATOM     28  N   UNL     1       0.096   9.294  21.697  0.00  0.00    +0.000 NA
ATOM     29  H   UNL     1      -1.355  11.045  23.918  0.00  0.00    +0.000 HD
ENDBRANCH  23  24
ENDBRANCH  22  23
ENDBRANCH  20  22
ENDBRANCH  17  18
ENDBRANCH   9  17
TORSDOF 7
ENDMDL
MODEL 6
REMARK VINA RESULT:      -8.0      1.696      2.308
REMARK  Name = 
REMARK  9 active torsions:
REMARK  status: ('A' for Active; 'I' for Inactive)
REMARK    1  A    between atoms: C_1  and  C_2
REMARK    2  A    between atoms: C_2  and  C_3
REMARK    3  A    between atoms: C_4  and  C_5
REMARK    4  A    between atoms: C_5  and  C_7
REMARK    5  A    between atoms: C_15  and  C_16
REMARK    6  A    between atoms: C_16  and  C_17
REMARK    7  A    between atoms: N_19  and  C_20
REMARK    8  A    between atoms: C_20  and  C_21
REMARK    9  A    between atoms: C_21  and  C_22
REMARK                            x       y       z     vdW  Elec       q    Type
REMARK                         _______ _______ _______ _____ _____    ______ ____
ROOT
ATOM      1  C   UNL     1       2.912   4.541  17.760  0.00  0.00    +0.000 A 
ATOM      2  N   UNL     1       3.757   3.919  16.874  0.00  0.00    +0.000 N 
ATOM      3  C   UNL     1       4.953   4.581  16.769  0.00  0.00    +0.000 A 
ATOM      4  C   UNL     1       6.070   4.275  15.982  0.00  0.00    +0.000 A 
ATOM      5  C   UNL     1       7.173   5.126  16.057  0.00  0.00    +0.000 A 
ATOM      6  C   UNL     1       7.153   6.236  16.892  0.00  0.00    +0.000 A 
ATOM      7  C   UNL     1       6.021   6.529  17.665  0.00  0.00    +0.000 A 
ATOM      8  C   UNL     1       4.884   5.692  17.605  0.00  0.00    +0.000 A 
ATOM      9  C   UNL     1       3.576   5.697  18.203  0.00  0.00    +0.000 A 
ATOM     10  H   UNL     1       3.544   3.087  16.344  0.00  0.00    +0.000 HD
ENDROOT
BRANCH   1  11
ATOM     11  C   UNL     1       1.568   4.092  18.125  0.00  0.00    +0.000 C 
ATOM     12  O   UNL     1       0.662   4.012  17.299  0.00  0.00    +0.000 OA
BRANCH  11  16
ATOM     13  C   UNL     1       1.642   2.674  21.752  0.00  0.00    +0.000 C 
ATOM     14  C   UNL     1       2.040   2.931  20.324  0.00  0.00    +0.000 C 
ATOM     15  C   UNL     1       3.286   2.239  19.837  0.00  0.00    +0.000 C 
ATOM     16  C   UNL     1       1.294   3.759  19.564  0.00  0.00    +0.000 C 
ENDBRANCH  11  16
ENDBRANCH   1  11
BRANCH   9  17
ATOM     17  C   UNL     1       2.941   6.713  19.123  0.00  0.00    +0.000 C 
BRANCH  17  18
ATOM     18  C   UNL     1       2.407   7.965  18.464  0.00  0.00    +0.000 C 
ATOM     19  O   UNL     1       2.643   8.244  17.290  0.00  0.00    +0.000 OA
ATOM     20  N   UNL     1       1.642   8.780  19.282  0.00  0.00    +0.000 N 
ATOM     21  H   UNL     1       1.290   8.397  20.151  0.00  0.00    +0.000 HD
BRANCH  20  22
ATOM     22  C   UNL     1       0.990   9.939  18.700  0.00  0.00    +0.000 C 
BRANCH  22  23
ATOM     23  C   UNL     1      -0.419  10.197  19.225  0.00  0.00    +0.000 C 
BRANCH  23  24
ATOM     24  C   UNL     1      -0.418  10.238  20.714  0.00  0.00    +0.000 A 
ATOM     25  C   UNL     1      -0.592  11.316  21.556  0.00  0.00    +0.000 A 
ATOM     26  N   UNL     1      -0.592  10.790  22.818  0.00  0.00    +0.000 N 
ATOM     27  C   UNL     1      -0.416   9.442  22.702  0.00  0.00    +0.000 A 
ATOM     28  N   UNL     1      -0.297   9.080  21.446  0.00  0.00    +0.000 NA
ATOM     29  H   UNL     1      -0.720  11.298  23.683  0.00  0.00    +0.000 HD
ENDBRANCH  23  24
ENDBRANCH  22  23
ENDBRANCH  20  22
ENDBRANCH  17  18
ENDBRANCH   9  17
TORSDOF 7
ENDMDL
MODEL 7
REMARK VINA RESULT:      -8.0      1.541      4.210
REMARK  Name = 
REMARK  9 active torsions:
REMARK  status: ('A' for Active; 'I' for Inactive)
REMARK    1  A    between atoms: C_1  and  C_2
REMARK    2  A    between atoms: C_2  and  C_3
REMARK    3  A    between atoms: C_4  and  C_5
REMARK    4  A    between atoms: C_5  and  C_7
REMARK    5  A    between atoms: C_15  and  C_16
REMARK    6  A    between atoms: C_16  and  C_17
REMARK    7  A    between atoms: N_19  and  C_20
REMARK    8  A    between atoms: C_20  and  C_21
REMARK    9  A    between atoms: C_21  and  C_22
REMARK                            x       y       z     vdW  Elec       q    Type
REMARK                         _______ _______ _______ _____ _____    ______ ____
ROOT
ATOM      1  C   UNL     1       4.071   5.582  17.216  0.00  0.00    +0.000 A 
ATOM      2  N   UNL     1       3.891   4.250  16.936  0.00  0.00    +0.000 N 
ATOM      3  C   UNL     1       2.894   3.705  17.703  0.00  0.00    +0.000 A 
ATOM      4  C   UNL     1       2.406   2.392  17.722  0.00  0.00    +0.000 A 
ATOM      5  C   UNL     1       1.375   2.092  18.613  0.00  0.00    +0.000 A 
ATOM      6  C   UNL     1       0.855   3.074  19.447  0.00  0.00    +0.000 A 
ATOM      7  C   UNL     1       1.363   4.380  19.417  0.00  0.00    +0.000 A 
ATOM      8  C   UNL     1       2.413   4.713  18.533  0.00  0.00    +0.000 A 
ATOM      9  C   UNL     1       3.186   5.896  18.260  0.00  0.00    +0.000 A 
ATOM     10  H   UNL     1       4.419   3.713  16.265  0.00  0.00    +0.000 HD
ENDROOT
BRANCH   1  11
ATOM     11  C   UNL     1       5.035   6.472  16.569  0.00  0.00    +0.000 C 
ATOM     12  O   UNL     1       4.969   6.744  15.373  0.00  0.00    +0.000 OA
BRANCH  11  16
ATOM     13  C   UNL     1       8.261   7.004  18.687  0.00  0.00    +0.000 C 
ATOM     14  C   UNL     1       7.212   6.321  17.852  0.00  0.00    +0.000 C 
ATOM     15  C   UNL     1       7.430   4.860  17.561  0.00  0.00    +0.000 C 
ATOM     16  C   UNL     1       6.158   7.030  17.398  0.00  0.00    +0.000 C 
ENDBRANCH  11  16
ENDBRANCH   1  11
BRANCH   9  17
ATOM     17  C   UNL     1       3.142   7.250  18.927  0.00  0.00    +0.000 C 
BRANCH  17  18
ATOM     18  C   UNL     1       2.309   8.306  18.236  0.00  0.00    +0.000 C 
ATOM     19  O   UNL     1       2.351   8.488  17.020  0.00  0.00    +0.000 OA
ATOM     20  N   UNL     1       1.503   9.061  19.072  0.00  0.00    +0.000 N 
ATOM     21  H   UNL     1       1.331   8.723  20.011  0.00  0.00    +0.000 HD
BRANCH  20  22
ATOM     22  C   UNL     1       0.581  10.013  18.480  0.00  0.00    +0.000 C 
BRANCH  22  23
ATOM     23  C   UNL     1      -0.779  10.084  19.169  0.00  0.00    +0.000 C 
BRANCH  23  24
ATOM     24  C   UNL     1      -1.839  10.447  18.189  0.00  0.00    +0.000 A 
ATOM     25  C   UNL     1      -2.062   9.949  16.923  0.00  0.00    +0.000 A 
ATOM     26  N   UNL     1      -3.210  10.556  16.495  0.00  0.00    +0.000 N 
ATOM     27  C   UNL     1      -3.632  11.387  17.491  0.00  0.00    +0.000 A 
ATOM     28  N   UNL     1      -2.819  11.352  18.522  0.00  0.00    +0.000 NA
ATOM     29  H   UNL     1      -3.679  10.404  15.612  0.00  0.00    +0.000 HD
ENDBRANCH  23  24
ENDBRANCH  22  23
ENDBRANCH  20  22
ENDBRANCH  17  18
ENDBRANCH   9  17
TORSDOF 7
ENDMDL
MODEL 8
REMARK VINA RESULT:      -8.0      1.598      4.252
REMARK  Name = 
REMARK  9 active torsions:
REMARK  status: ('A' for Active; 'I' for Inactive)
REMARK    1  A    between atoms: C_1  and  C_2
REMARK    2  A    between atoms: C_2  and  C_3
REMARK    3  A    between atoms: C_4  and  C_5
REMARK    4  A    between atoms: C_5  and  C_7
REMARK    5  A    between atoms: C_15  and  C_16
REMARK    6  A    between atoms: C_16  and  C_17
REMARK    7  A    between atoms: N_19  and  C_20
REMARK    8  A    between atoms: C_20  and  C_21
REMARK    9  A    between atoms: C_21  and  C_22
REMARK                            x       y       z     vdW  Elec       q    Type
REMARK                         _______ _______ _______ _____ _____    ______ ____
ROOT
ATOM      1  C   UNL     1       4.164   5.401  17.110  0.00  0.00    +0.000 A 
ATOM      2  N   UNL     1       3.878   4.078  16.875  0.00  0.00    +0.000 N 
ATOM      3  C   UNL     1       2.892   3.620  17.711  0.00  0.00    +0.000 A 
ATOM      4  C   UNL     1       2.319   2.344  17.791  0.00  0.00    +0.000 A 
ATOM      5  C   UNL     1       1.323   2.137  18.747  0.00  0.00    +0.000 A 
ATOM      6  C   UNL     1       0.919   3.170  19.582  0.00  0.00    +0.000 A 
ATOM      7  C   UNL     1       1.512   4.438  19.489  0.00  0.00    +0.000 A 
ATOM      8  C   UNL     1       2.529   4.678  18.540  0.00  0.00    +0.000 A 
ATOM      9  C   UNL     1       3.363   5.798  18.193  0.00  0.00    +0.000 A 
ATOM     10  H   UNL     1       4.329   3.491  16.190  0.00  0.00    +0.000 HD
ENDROOT
BRANCH   1  11
ATOM     11  C   UNL     1       5.147   6.207  16.386  0.00  0.00    +0.000 C 
ATOM     12  O   UNL     1       5.160   6.271  15.160  0.00  0.00    +0.000 OA
BRANCH  11  16
ATOM     13  C   UNL     1       8.204   7.220  18.578  0.00  0.00    +0.000 C 
ATOM     14  C   UNL     1       7.240   6.365  17.801  0.00  0.00    +0.000 C 
ATOM     15  C   UNL     1       7.536   4.889  17.754  0.00  0.00    +0.000 C 
ATOM     16  C   UNL     1       6.190   6.942  17.182  0.00  0.00    +0.000 C 
ENDBRANCH  11  16
ENDBRANCH   1  11
BRANCH   9  17
ATOM     17  C   UNL     1       3.449   7.167  18.825  0.00  0.00    +0.000 C 
BRANCH  17  18
ATOM     18  C   UNL     1       2.201   8.017  18.744  0.00  0.00    +0.000 C 
ATOM     19  O   UNL     1       1.666   8.303  17.674  0.00  0.00    +0.000 OA
ATOM     20  N   UNL     1       1.710   8.460  19.961  0.00  0.00    +0.000 N 
ATOM     21  H   UNL     1       2.042   8.012  20.807  0.00  0.00    +0.000 HD
BRANCH  20  22
ATOM     22  C   UNL     1       0.449   9.179  19.985  0.00  0.00    +0.000 C 
BRANCH  22  23
ATOM     23  C   UNL     1       0.591  10.690  20.149  0.00  0.00    +0.000 C 
BRANCH  23  24
ATOM     24  C   UNL     1      -0.249  11.401  19.145  0.00  0.00    +0.000 A 
ATOM     25  C   UNL     1      -0.045  12.630  18.554  0.00  0.00    +0.000 A 
ATOM     26  N   UNL     1      -1.060  12.765  17.647  0.00  0.00    +0.000 N 
ATOM     27  C   UNL     1      -1.831  11.641  17.722  0.00  0.00    +0.000 A 
ATOM     28  N   UNL     1      -1.373  10.805  18.624  0.00  0.00    +0.000 NA
ATOM     29  H   UNL     1      -1.206  13.543  17.018  0.00  0.00    +0.000 HD
ENDBRANCH  23  24
ENDBRANCH  22  23
ENDBRANCH  20  22
ENDBRANCH  17  18
ENDBRANCH   9  17
TORSDOF 7
ENDMDL
MODEL 9
REMARK VINA RESULT:      -8.0      3.861      6.180
REMARK  Name = 
REMARK  9 active torsions:
REMARK  status: ('A' for Active; 'I' for Inactive)
REMARK    1  A    between atoms: C_1  and  C_2
REMARK    2  A    between atoms: C_2  and  C_3
REMARK    3  A    between atoms: C_4  and  C_5
REMARK    4  A    between atoms: C_5  and  C_7
REMARK    5  A    between atoms: C_15  and  C_16
REMARK    6  A    between atoms: C_16  and  C_17
REMARK    7  A    between atoms: N_19  and  C_20
REMARK    8  A    between atoms: C_20  and  C_21
REMARK    9  A    between atoms: C_21  and  C_22
REMARK                            x       y       z     vdW  Elec       q    Type
REMARK                         _______ _______ _______ _____ _____    ______ ____
ROOT
ATOM      1  C   UNL     1       6.862   4.809  16.454  0.00  0.00    +0.000 A 
ATOM      2  N   UNL     1       7.613   5.203  15.373  0.00  0.00    +0.000 N 
ATOM      3  C   UNL     1       7.104   4.709  14.199  0.00  0.00    +0.000 A 
ATOM      4  C   UNL     1       7.571   4.878  12.890  0.00  0.00    +0.000 A 
ATOM      5  C   UNL     1       6.862   4.257  11.861  0.00  0.00    +0.000 A 
ATOM      6  C   UNL     1       5.730   3.502  12.138  0.00  0.00    +0.000 A 
ATOM      7  C   UNL     1       5.285   3.339  13.457  0.00  0.00    +0.000 A 
ATOM      8  C   UNL     1       5.986   3.946  14.523  0.00  0.00    +0.000 A 
ATOM      9  C   UNL     1       5.852   3.970  15.955  0.00  0.00    +0.000 A 
ATOM     10  H   UNL     1       8.446   5.771  15.411  0.00  0.00    +0.000 HD
ENDROOT
BRANCH   1  11
ATOM     11  C   UNL     1       7.110   5.171  17.849  0.00  0.00    +0.000 C 
ATOM     12  O   UNL     1       6.698   4.487  18.782  0.00  0.00    +0.000 OA
BRANCH  11  16
ATOM     13  C   UNL     1       8.291   8.872  18.140  0.00  0.00    +0.000 C 
ATOM     14  C   UNL     1       7.431   7.682  17.811  0.00  0.00    +0.000 C 
ATOM     15  C   UNL     1       6.112   7.968  17.143  0.00  0.00    +0.000 C 
ATOM     16  C   UNL     1       7.859   6.443  18.132  0.00  0.00    +0.000 C 
ENDBRANCH  11  16
ENDBRANCH   1  11
BRANCH   9  17
ATOM     17  C   UNL     1       4.865   3.249  16.842  0.00  0.00    +0.000 C 
BRANCH  17  18
ATOM     18  C   UNL     1       3.568   3.974  17.123  0.00  0.00    +0.000 C 
ATOM     19  O   UNL     1       2.473   3.514  16.804  0.00  0.00    +0.000 OA
ATOM     20  N   UNL     1       3.703   5.199  17.755  0.00  0.00    +0.000 N 
ATOM     21  H   UNL     1       4.587   5.419  18.197  0.00  0.00    +0.000 HD
BRANCH  20  22
ATOM     22  C   UNL     1       2.505   5.905  18.171  0.00  0.00    +0.000 C 
BRANCH  22  23
ATOM     23  C   UNL     1       2.333   6.013  19.684  0.00  0.00    +0.000 C 
BRANCH  23  24
ATOM     24  C   UNL     1       2.151   4.662  20.283  0.00  0.00    +0.000 A 
ATOM     25  C   UNL     1       3.083   3.846  20.887  0.00  0.00    +0.000 A 
ATOM     26  N   UNL     1       2.376   2.766  21.340  0.00  0.00    +0.000 N 
ATOM     27  C   UNL     1       1.069   2.958  20.997  0.00  0.00    +0.000 A 
ATOM     28  N   UNL     1       0.904   4.088  20.349  0.00  0.00    +0.000 NA
ATOM     29  H   UNL     1       2.743   1.977  21.854  0.00  0.00    +0.000 HD
ENDBRANCH  23  24
ENDBRANCH  22  23
ENDBRANCH  20  22
ENDBRANCH  17  18
ENDBRANCH   9  17
TORSDOF 7
ENDMDL
