MODEL 1
REMARK VINA RESULT:      -6.3      0.000      0.000
REMARK  Name = 
REMARK  5 active torsions:
REMARK  status: ('A' for Active; 'I' for Inactive)
REMARK    1  A    between atoms: C_1  and  C_2
REMARK    2  A    between atoms: C_2  and  N_3
REMARK    3  A    between atoms: C_14  and  O_15
REMARK    4  A    between atoms: O_15  and  C_16
REMARK    5  A    between atoms: C_18  and  C_19
REMARK                            x       y       z     vdW  Elec       q    Type
REMARK                         _______ _______ _______ _____ _____    ______ ____
ROOT
ATOM      1  N   UNL     1       2.236  14.607  19.685  0.00  0.00    +0.000 N 
ATOM      2  C   UNL     1       1.600  13.554  19.066  0.00  0.00    +0.000 C 
ATOM      3  O   UNL     1       1.950  13.160  17.951  0.00  0.00    +0.000 OA
ATOM      4  N   UNL     1       0.545  13.008  19.770  0.00  0.00    +0.000 N 
ATOM      5  C   UNL     1       0.065  13.492  21.056  0.00  0.00    +0.000 C 
ATOM      6  C   UNL     1      -1.392  13.922  20.994  0.00  0.00    +0.000 C 
ATOM      7  C   UNL     1      -2.295  13.025  20.182  0.00  0.00    +0.000 A 
ATOM      8  C   UNL     1      -3.692  13.135  20.298  0.00  0.00    +0.000 A 
ATOM      9 BR   UNL     1      -4.526  14.372  21.474  0.00  0.00    +0.000 Br
ATOM     10  C   UNL     1      -4.488  12.298  19.539  0.00  0.00    +0.000 A 
ATOM     11  C   UNL     1      -3.956  11.404  18.635  0.00  0.00    +0.000 A 
ATOM     12  C   UNL     1      -2.588  11.293  18.442  0.00  0.00    +0.000 A 
ATOM     13  C   UNL     1      -1.737  12.104  19.246  0.00  0.00    +0.000 A 
ATOM     14  C   UNL     1      -0.212  11.879  19.183  0.00  0.00    +0.000 C 
ATOM     15  O   UNL     1      -4.938  10.680  18.023  0.00  0.00    +0.000 OA
ATOM     16  C   UNL     1      -6.100  11.092  18.756  0.00  0.00    +0.000 C 
ATOM     17  O   UNL     1      -5.851  12.231  19.591  0.00  0.00    +0.000 OA
ATOM     18  H   UNL     1       2.345  14.492  20.679  0.00  0.00    +0.000 HD
ENDROOT
BRANCH  14  19
ATOM     19  C   UNL     1       0.201  10.541  19.826  0.00  0.00    +0.000 A 
ATOM     20  C   UNL     1      -0.376  10.147  21.046  0.00  0.00    +0.000 A 
ATOM     21  C   UNL     1      -0.000   8.946  21.656  0.00  0.00    +0.000 A 
ATOM     22  C   UNL     1       0.946   8.114  21.055  0.00  0.00    +0.000 A 
ATOM     23  C   UNL     1       1.532   8.490  19.853  0.00  0.00    +0.000 A 
ATOM     24  C   UNL     1       1.165   9.692  19.248  0.00  0.00    +0.000 A 
ENDBRANCH  14  19
BRANCH   1  26
ATOM     25  C   UNL     1       2.861  16.434  18.176  0.00  0.00    +0.000 C 
ATOM     26  C   UNL     1       3.344  15.282  19.039  0.00  0.00    +0.000 C 
ENDBRANCH   1  26
BRANCH  12  27
ATOM     27  O   UNL     1      -1.960  10.445  17.571  0.00  0.00    +0.000 OA
ATOM     28  C   UNL     1      -2.381  10.440  16.212  0.00  0.00    +0.000 C 
ENDBRANCH  12  27
TORSDOF 3
ENDMDL
MODEL 2
REMARK VINA RESULT:      -6.3      2.675      4.900
REMARK  Name = 
REMARK  5 active torsions:
REMARK  status: ('A' for Active; 'I' for Inactive)
REMARK    1  A    between atoms: C_1  and  C_2
REMARK    2  A    between atoms: C_2  and  N_3
REMARK    3  A    between atoms: C_14  and  O_15
REMARK    4  A    between atoms: O_15  and  C_16
REMARK    5  A    between atoms: C_18  and  C_19
REMARK                            x       y       z     vdW  Elec       q    Type
REMARK                         _______ _______ _______ _____ _____    ______ ____
ROOT
ATOM      1  N   UNL     1       1.183   8.509  20.097  0.00  0.00    +0.000 N 
ATOM      2  C   UNL     1       0.315   9.464  20.576  0.00  0.00    +0.000 C 
ATOM      3  O   UNL     1       0.009   9.511  21.770  0.00  0.00    +0.000 OA
ATOM      4  N   UNL     1      -0.195  10.326  19.624  0.00  0.00    +0.000 N 
ATOM      5  C   UNL     1       0.094  10.255  18.200  0.00  0.00    +0.000 C 
ATOM      6  C   UNL     1      -1.167  10.059  17.373  0.00  0.00    +0.000 C 
ATOM      7  C   UNL     1      -2.364  10.860  17.824  0.00  0.00    +0.000 A 
ATOM      8  C   UNL     1      -3.479  11.003  16.978  0.00  0.00    +0.000 A 
ATOM      9 BR   UNL     1      -3.548  10.241  15.240  0.00  0.00    +0.000 Br
ATOM     10  C   UNL     1      -4.557  11.742  17.425  0.00  0.00    +0.000 A 
ATOM     11  C   UNL     1      -4.597  12.291  18.689  0.00  0.00    +0.000 A 
ATOM     12  C   UNL     1      -3.548  12.133  19.582  0.00  0.00    +0.000 A 
ATOM     13  C   UNL     1      -2.399  11.422  19.136  0.00  0.00    +0.000 A 
ATOM     14  C   UNL     1      -1.148  11.381  20.038  0.00  0.00    +0.000 C 
ATOM     15  O   UNL     1      -5.754  12.987  18.887  0.00  0.00    +0.000 OA
ATOM     16  C   UNL     1      -6.338  12.957  17.577  0.00  0.00    +0.000 C 
ATOM     17  O   UNL     1      -5.678  12.034  16.700  0.00  0.00    +0.000 OA
ATOM     18  H   UNL     1       1.811   8.846  19.387  0.00  0.00    +0.000 HD
ENDROOT
BRANCH  14  19
ATOM     19  C   UNL     1      -0.453  12.753  20.124  0.00  0.00    +0.000 A 
ATOM     20  C   UNL     1       0.114  13.171  21.341  0.00  0.00    +0.000 A 
ATOM     21  C   UNL     1       0.732  14.420  21.447  0.00  0.00    +0.000 A 
ATOM     22  C   UNL     1       0.806  15.268  20.339  0.00  0.00    +0.000 A 
ATOM     23  C   UNL     1       0.244  14.876  19.131  0.00  0.00    +0.000 A 
ATOM     24  C   UNL     1      -0.380  13.632  19.027  0.00  0.00    +0.000 A 
ENDBRANCH  14  19
BRANCH   1  26
ATOM     25  C   UNL     1       2.141   6.258  20.251  0.00  0.00    +0.000 C 
ATOM     26  C   UNL     1       1.768   7.529  20.992  0.00  0.00    +0.000 C 
ENDBRANCH   1  26
BRANCH  12  27
ATOM     27  O   UNL     1      -3.489  12.631  20.855  0.00  0.00    +0.000 OA
ATOM     28  C   UNL     1      -3.610  14.036  21.037  0.00  0.00    +0.000 C 
ENDBRANCH  12  27
TORSDOF 3
ENDMDL
MODEL 3
REMARK VINA RESULT:      -6.2      0.737      1.189
REMARK  Name = 
REMARK  5 active torsions:
REMARK  status: ('A' for Active; 'I' for Inactive)
REMARK    1  A    between atoms: C_1  and  C_2
REMARK    2  A    between atoms: C_2  and  N_3
REMARK    3  A    between atoms: C_14  and  O_15
REMARK    4  A    between atoms: O_15  and  C_16
REMARK    5  A    between atoms: C_18  and  C_19
REMARK                            x       y       z     vdW  Elec       q    Type
REMARK                         _______ _______ _______ _____ _____    ______ ____
ROOT
ATOM      1  N   UNL     1       3.058  13.987  19.223  0.00  0.00    +0.000 N 
ATOM      2  C   UNL     1       2.238  12.993  18.738  0.00  0.00    +0.000 C 
ATOM      3  O   UNL     1       2.438  12.479  17.635  0.00  0.00    +0.000 OA
ATOM      4  N   UNL     1       1.182  12.649  19.559  0.00  0.00    +0.000 N 
ATOM      5  C   UNL     1       0.880  13.282  20.834  0.00  0.00    +0.000 C 
ATOM      6  C   UNL     1      -0.507  13.905  20.846  0.00  0.00    +0.000 C 
ATOM      7  C   UNL     1      -1.586  13.088  20.176  0.00  0.00    +0.000 A 
ATOM      8  C   UNL     1      -2.941  13.400  20.386  0.00  0.00    +0.000 A 
ATOM      9 BR   UNL     1      -3.501  14.819  21.518  0.00  0.00    +0.000 Br
ATOM     10  C   UNL     1      -3.902  12.631  19.756  0.00  0.00    +0.000 A 
ATOM     11  C   UNL     1      -3.572  11.612  18.889  0.00  0.00    +0.000 A 
ATOM     12  C   UNL     1      -2.251  11.299  18.605  0.00  0.00    +0.000 A 
ATOM     13  C   UNL     1      -1.236  12.037  19.277  0.00  0.00    +0.000 A 
ATOM     14  C   UNL     1       0.235  11.598  19.121  0.00  0.00    +0.000 C 
ATOM     15  O   UNL     1      -4.689  10.992  18.410  0.00  0.00    +0.000 OA
ATOM     16  C   UNL     1      -5.721  11.611  19.192  0.00  0.00    +0.000 C 
ATOM     17  O   UNL     1      -5.253  12.759  19.913  0.00  0.00    +0.000 OA
ATOM     18  H   UNL     1       3.234  13.926  20.212  0.00  0.00    +0.000 HD
ENDROOT
BRANCH  14  19
ATOM     19  C   UNL     1       0.518  10.263  19.835  0.00  0.00    +0.000 A 
ATOM     20  C   UNL     1       1.424   9.348  19.269  0.00  0.00    +0.000 A 
ATOM     21  C   UNL     1       1.681   8.123  19.891  0.00  0.00    +0.000 A 
ATOM     22  C   UNL     1       1.049   7.794  21.092  0.00  0.00    +0.000 A 
ATOM     23  C   UNL     1       0.146   8.681  21.662  0.00  0.00    +0.000 A 
ATOM     24  C   UNL     1      -0.118   9.901  21.038  0.00  0.00    +0.000 A 
ENDBRANCH  14  19
BRANCH   1  26
ATOM     25  C   UNL     1       4.046  15.925  18.095  0.00  0.00    +0.000 C 
ATOM     26  C   UNL     1       4.188  14.455  18.445  0.00  0.00    +0.000 C 
ENDBRANCH   1  26
BRANCH  12  27
ATOM     27  O   UNL     1      -1.817  10.314  17.760  0.00  0.00    +0.000 OA
ATOM     28  C   UNL     1      -2.294  10.315  16.420  0.00  0.00    +0.000 C 
ENDBRANCH  12  27
TORSDOF 3
ENDMDL
MODEL 4
REMARK VINA RESULT:      -6.2      3.024      6.231
REMARK  Name = 
REMARK  5 active torsions:
REMARK  status: ('A' for Active; 'I' for Inactive)
REMARK    1  A    between atoms: C_1  and  C_2
REMARK    2  A    between atoms: C_2  and  N_3
REMARK    3  A    between atoms: C_14  and  O_15
REMARK    4  A    between atoms: O_15  and  C_16
REMARK    5  A    between atoms: C_18  and  C_19
REMARK                            x       y       z     vdW  Elec       q    Type
REMARK                         _______ _______ _______ _____ _____    ______ ____
ROOT
ATOM      1  N   UNL     1      -1.713  11.307  17.104  0.00  0.00    +0.000 N 
ATOM      2  C   UNL     1      -1.687  11.796  18.391  0.00  0.00    +0.000 C 
ATOM      3  O   UNL     1      -2.719  12.164  18.957  0.00  0.00    +0.000 OA
ATOM      4  N   UNL     1      -0.434  11.865  18.968  0.00  0.00    +0.000 N 
ATOM      5  C   UNL     1       0.808  11.501  18.303  0.00  0.00    +0.000 C 
ATOM      6  C   UNL     1       1.780  12.668  18.238  0.00  0.00    +0.000 C 
ATOM      7  C   UNL     1       1.854  13.517  19.485  0.00  0.00    +0.000 A 
ATOM      8  C   UNL     1       2.916  14.421  19.663  0.00  0.00    +0.000 A 
ATOM      9 BR   UNL     1       4.316  14.618  18.394  0.00  0.00    +0.000 Br
ATOM     10  C   UNL     1       2.951  15.181  20.816  0.00  0.00    +0.000 A 
ATOM     11  C   UNL     1       1.951  15.122  21.763  0.00  0.00    +0.000 A 
ATOM     12  C   UNL     1       0.854  14.289  21.610  0.00  0.00    +0.000 A 
ATOM     13  C   UNL     1       0.813  13.452  20.459  0.00  0.00    +0.000 A 
ATOM     14  C   UNL     1      -0.299  12.389  20.346  0.00  0.00    +0.000 C 
ATOM     15  O   UNL     1       2.220  15.950  22.815  0.00  0.00    +0.000 OA
ATOM     16  C   UNL     1       3.550  16.388  22.505  0.00  0.00    +0.000 C 
ATOM     17  O   UNL     1       3.947  16.047  21.170  0.00  0.00    +0.000 OA
ATOM     18  H   UNL     1      -1.081  10.539  16.945  0.00  0.00    +0.000 HD
ENDROOT
BRANCH  14  19
ATOM     19  C   UNL     1      -0.108  11.244  21.359  0.00  0.00    +0.000 A 
ATOM     20  C   UNL     1      -1.036  11.074  22.401  0.00  0.00    +0.000 A 
ATOM     21  C   UNL     1      -0.871  10.053  23.343  0.00  0.00    +0.000 A 
ATOM     22  C   UNL     1       0.215   9.180  23.254  0.00  0.00    +0.000 A 
ATOM     23  C   UNL     1       1.147   9.337  22.237  0.00  0.00    +0.000 A 
ATOM     24  C   UNL     1       0.987  10.360  21.301  0.00  0.00    +0.000 A 
ENDBRANCH  14  19
BRANCH   1  26
ATOM     25  C   UNL     1      -2.807  10.380  15.116  0.00  0.00    +0.000 C 
ATOM     26  C   UNL     1      -2.964  11.208  16.378  0.00  0.00    +0.000 C 
ENDBRANCH   1  26
BRANCH  12  27
ATOM     27  O   UNL     1      -0.191  14.158  22.484  0.00  0.00    +0.000 OA
ATOM     28  C   UNL     1      -1.172  15.188  22.522  0.00  0.00    +0.000 C 
ENDBRANCH  12  27
TORSDOF 3
ENDMDL
MODEL 5
REMARK VINA RESULT:      -6.2      2.560      4.895
REMARK  Name = 
REMARK  5 active torsions:
REMARK  status: ('A' for Active; 'I' for Inactive)
REMARK    1  A    between atoms: C_1  and  C_2
REMARK    2  A    between atoms: C_2  and  N_3
REMARK    3  A    between atoms: C_14  and  O_15
REMARK    4  A    between atoms: O_15  and  C_16
REMARK    5  A    between atoms: C_18  and  C_19
REMARK                            x       y       z     vdW  Elec       q    Type
REMARK                         _______ _______ _______ _____ _____    ______ ____
ROOT
ATOM      1  N   UNL     1       1.699   8.028  19.149  0.00  0.00    +0.000 N 
ATOM      2  C   UNL     1       1.276   9.045  19.975  0.00  0.00    +0.000 C 
ATOM      3  O   UNL     1       1.497   9.020  21.187  0.00  0.00    +0.000 OA
ATOM      4  N   UNL     1       0.574  10.057  19.349  0.00  0.00    +0.000 N 
ATOM      5  C   UNL     1       0.239  10.083  17.933  0.00  0.00    +0.000 C 
ATOM      6  C   UNL     1      -1.263  10.146  17.704  0.00  0.00    +0.000 C 
ATOM      7  C   UNL     1      -2.019  11.060  18.639  0.00  0.00    +0.000 A 
ATOM      8  C   UNL     1      -3.341  11.438  18.341  0.00  0.00    +0.000 A 
ATOM      9 BR   UNL     1      -4.241  10.864  16.771  0.00  0.00    +0.000 Br
ATOM     10  C   UNL     1      -4.002  12.276  19.219  0.00  0.00    +0.000 A 
ATOM     11  C   UNL     1      -3.429  12.702  20.399  0.00  0.00    +0.000 A 
ATOM     12  C   UNL     1      -2.150  12.313  20.766  0.00  0.00    +0.000 A 
ATOM     13  C   UNL     1      -1.420  11.494  19.859  0.00  0.00    +0.000 A 
ATOM     14  C   UNL     1       0.064  11.191  20.153  0.00  0.00    +0.000 C 
ATOM     15  O   UNL     1      -4.269  13.531  21.083  0.00  0.00    +0.000 OA
ATOM     16  C   UNL     1      -5.334  13.708  20.137  0.00  0.00    +0.000 C 
ATOM     17  O   UNL     1      -5.255  12.790  19.039  0.00  0.00    +0.000 OA
ATOM     18  H   UNL     1       2.029   8.341  18.251  0.00  0.00    +0.000 HD
ENDROOT
BRANCH  14  19
ATOM     19  C   UNL     1       0.952  12.438  19.979  0.00  0.00    +0.000 A 
ATOM     20  C   UNL     1       0.777  13.268  18.858  0.00  0.00    +0.000 A 
ATOM     21  C   UNL     1       1.586  14.393  18.671  0.00  0.00    +0.000 A 
ATOM     22  C   UNL     1       2.573  14.716  19.604  0.00  0.00    +0.000 A 
ATOM     23  C   UNL     1       2.767  13.904  20.714  0.00  0.00    +0.000 A 
ATOM     24  C   UNL     1       1.965  12.776  20.897  0.00  0.00    +0.000 A 
ENDBRANCH  14  19
BRANCH   1  26
ATOM     25  C   UNL     1       3.015   6.039  18.582  0.00  0.00    +0.000 C 
ATOM     26  C   UNL     1       2.425   6.895  19.688  0.00  0.00    +0.000 C 
ENDBRANCH   1  26
BRANCH  12  27
ATOM     27  O   UNL     1      -1.493  12.674  21.910  0.00  0.00    +0.000 OA
ATOM     28  C   UNL     1      -1.849  12.026  23.126  0.00  0.00    +0.000 C 
ENDBRANCH  12  27
TORSDOF 3
ENDMDL
MODEL 6
REMARK VINA RESULT:      -6.2      3.178      6.326
REMARK  Name = 
REMARK  5 active torsions:
REMARK  status: ('A' for Active; 'I' for Inactive)
REMARK    1  A    between atoms: C_1  and  C_2
REMARK    2  A    between atoms: C_2  and  N_3
REMARK    3  A    between atoms: C_14  and  O_15
REMARK    4  A    between atoms: O_15  and  C_16
REMARK    5  A    between atoms: C_18  and  C_19
REMARK                            x       y       z     vdW  Elec       q    Type
REMARK                         _______ _______ _______ _____ _____    ______ ____
ROOT
ATOM      1  N   UNL     1      -3.930  12.394  18.629  0.00  0.00    +0.000 N 
ATOM      2  C   UNL     1      -3.394  12.574  19.885  0.00  0.00    +0.000 C 
ATOM      3  O   UNL     1      -4.111  12.618  20.887  0.00  0.00    +0.000 OA
ATOM      4  N   UNL     1      -2.022  12.727  19.922  0.00  0.00    +0.000 N 
ATOM      5  C   UNL     1      -1.156  12.747  18.753  0.00  0.00    +0.000 C 
ATOM      6  C   UNL     1      -0.380  14.050  18.642  0.00  0.00    +0.000 C 
ATOM      7  C   UNL     1       0.159  14.592  19.944  0.00  0.00    +0.000 A 
ATOM      8  C   UNL     1       1.136  15.603  19.939  0.00  0.00    +0.000 A 
ATOM      9 BR   UNL     1       1.852  16.325  18.335  0.00  0.00    +0.000 Br
ATOM     10  C   UNL     1       1.606  16.075  21.150  0.00  0.00    +0.000 A 
ATOM     11  C   UNL     1       1.106  15.629  22.354  0.00  0.00    +0.000 A 
ATOM     12  C   UNL     1       0.103  14.674  22.415  0.00  0.00    +0.000 A 
ATOM     13  C   UNL     1      -0.367  14.127  21.187  0.00  0.00    +0.000 A 
ATOM     14  C   UNL     1      -1.351  12.940  21.225  0.00  0.00    +0.000 C 
ATOM     15  O   UNL     1       1.739  16.230  23.403  0.00  0.00    +0.000 OA
ATOM     16  C   UNL     1       2.783  16.952  22.735  0.00  0.00    +0.000 C 
ATOM     17  O   UNL     1       2.601  16.997  21.313  0.00  0.00    +0.000 OA
ATOM     18  H   UNL     1      -3.377  11.805  18.029  0.00  0.00    +0.000 HD
ENDROOT
BRANCH  14  19
ATOM     19  C   UNL     1      -0.677  11.646  21.719  0.00  0.00    +0.000 A 
ATOM     20  C   UNL     1      -1.192  10.977  22.843  0.00  0.00    +0.000 A 
ATOM     21  C   UNL     1      -0.584   9.812  23.320  0.00  0.00    +0.000 A 
ATOM     22  C   UNL     1       0.541   9.289  22.678  0.00  0.00    +0.000 A 
ATOM     23  C   UNL     1       1.069   9.940  21.571  0.00  0.00    +0.000 A 
ATOM     24  C   UNL     1       0.467  11.107  21.099  0.00  0.00    +0.000 A 
ENDBRANCH  14  19
BRANCH   1  26
ATOM     25  C   UNL     1      -5.740  10.798  18.200  0.00  0.00    +0.000 C 
ATOM     26  C   UNL     1      -5.361  12.245  18.453  0.00  0.00    +0.000 C 
ENDBRANCH   1  26
BRANCH  12  27
ATOM     27  O   UNL     1      -0.464  14.167  23.552  0.00  0.00    +0.000 OA
ATOM     28  C   UNL     1      -1.400  14.974  24.257  0.00  0.00    +0.000 C 
ENDBRANCH  12  27
TORSDOF 3
ENDMDL
MODEL 7
REMARK VINA RESULT:      -6.2      2.837      3.871
REMARK  Name = 
REMARK  5 active torsions:
REMARK  status: ('A' for Active; 'I' for Inactive)
REMARK    1  A    between atoms: C_1  and  C_2
REMARK    2  A    between atoms: C_2  and  N_3
REMARK    3  A    between atoms: C_14  and  O_15
REMARK    4  A    between atoms: O_15  and  C_16
REMARK    5  A    between atoms: C_18  and  C_19
REMARK                            x       y       z     vdW  Elec       q    Type
REMARK                         _______ _______ _______ _____ _____    ______ ____
ROOT
ATOM      1  N   UNL     1      -1.517  15.053  24.774  0.00  0.00    +0.000 N 
ATOM      2  C   UNL     1      -1.065  14.519  23.587  0.00  0.00    +0.000 C 
ATOM      3  O   UNL     1      -0.084  14.988  23.006  0.00  0.00    +0.000 OA
ATOM      4  N   UNL     1      -1.805  13.459  23.101  0.00  0.00    +0.000 N 
ATOM      5  C   UNL     1      -3.005  12.926  23.727  0.00  0.00    +0.000 C 
ATOM      6  C   UNL     1      -4.210  13.001  22.804  0.00  0.00    +0.000 C 
ATOM      7  C   UNL     1      -3.938  12.653  21.360  0.00  0.00    +0.000 A 
ATOM      8  C   UNL     1      -5.006  12.389  20.483  0.00  0.00    +0.000 A 
ATOM      9 BR   UNL     1      -6.821  12.423  21.042  0.00  0.00    +0.000 Br
ATOM     10  C   UNL     1      -4.719  12.074  19.168  0.00  0.00    +0.000 A 
ATOM     11  C   UNL     1      -3.430  12.069  18.680  0.00  0.00    +0.000 A 
ATOM     12  C   UNL     1      -2.347  12.376  19.488  0.00  0.00    +0.000 A 
ATOM     13  C   UNL     1      -2.601  12.654  20.861  0.00  0.00    +0.000 A 
ATOM     14  C   UNL     1      -1.407  12.824  21.823  0.00  0.00    +0.000 C 
ATOM     15  O   UNL     1      -3.404  11.712  17.363  0.00  0.00    +0.000 OA
ATOM     16  C   UNL     1      -4.770  11.335  17.139  0.00  0.00    +0.000 C 
ATOM     17  O   UNL     1      -5.634  11.723  18.216  0.00  0.00    +0.000 OA
ATOM     18  H   UNL     1      -1.841  14.366  25.434  0.00  0.00    +0.000 HD
ENDROOT
BRANCH  14  19
ATOM     19  C   UNL     1      -0.671  11.493  22.071  0.00  0.00    +0.000 A 
ATOM     20  C   UNL     1       0.414  11.135  21.251  0.00  0.00    +0.000 A 
ATOM     21  C   UNL     1       1.084   9.923  21.446  0.00  0.00    +0.000 A 
ATOM     22  C   UNL     1       0.692   9.055  22.467  0.00  0.00    +0.000 A 
ATOM     23  C   UNL     1      -0.383   9.388  23.282  0.00  0.00    +0.000 A 
ATOM     24  C   UNL     1      -1.057  10.594  23.083  0.00  0.00    +0.000 A 
ENDBRANCH  14  19
BRANCH   1  26
ATOM     25  C   UNL     1      -1.827  17.272  25.766  0.00  0.00    +0.000 C 
ATOM     26  C   UNL     1      -0.842  16.185  25.377  0.00  0.00    +0.000 C 
ENDBRANCH   1  26
BRANCH  12  27
ATOM     27  O   UNL     1      -1.034  12.405  19.104  0.00  0.00    +0.000 OA
ATOM     28  C   UNL     1      -0.528  13.596  18.514  0.00  0.00    +0.000 C 
ENDBRANCH  12  27
TORSDOF 3
ENDMDL
MODEL 8
REMARK VINA RESULT:      -6.1      0.655      1.219
REMARK  Name = 
REMARK  5 active torsions:
REMARK  status: ('A' for Active; 'I' for Inactive)
REMARK    1  A    between atoms: C_1  and  C_2
REMARK    2  A    between atoms: C_2  and  N_3
REMARK    3  A    between atoms: C_14  and  O_15
REMARK    4  A    between atoms: O_15  and  C_16
REMARK    5  A    between atoms: C_18  and  C_19
REMARK                            x       y       z     vdW  Elec       q    Type
REMARK                         _______ _______ _______ _____ _____    ______ ____
ROOT
ATOM      1  N   UNL     1       2.015  15.084  20.097  0.00  0.00    +0.000 N 
ATOM      2  C   UNL     1       1.455  14.130  19.277  0.00  0.00    +0.000 C 
ATOM      3  O   UNL     1       1.804  14.012  18.100  0.00  0.00    +0.000 OA
ATOM      4  N   UNL     1       0.472  13.356  19.862  0.00  0.00    +0.000 N 
ATOM      5  C   UNL     1      -0.009  13.515  21.226  0.00  0.00    +0.000 C 
ATOM      6  C   UNL     1      -1.499  13.814  21.273  0.00  0.00    +0.000 C 
ATOM      7  C   UNL     1      -2.345  13.028  20.300  0.00  0.00    +0.000 A 
ATOM      8  C   UNL     1      -3.742  12.985  20.453  0.00  0.00    +0.000 A 
ATOM      9 BR   UNL     1      -4.644  13.868  21.873  0.00  0.00    +0.000 Br
ATOM     10  C   UNL     1      -4.485  12.256  19.543  0.00  0.00    +0.000 A 
ATOM     11  C   UNL     1      -3.905  11.623  18.465  0.00  0.00    +0.000 A 
ATOM     12  C   UNL     1      -2.539  11.680  18.238  0.00  0.00    +0.000 A 
ATOM     13  C   UNL     1      -1.738  12.378  19.184  0.00  0.00    +0.000 A 
ATOM     14  C   UNL     1      -0.202  12.310  19.059  0.00  0.00    +0.000 C 
ATOM     15  O   UNL     1      -4.840  10.957  17.725  0.00  0.00    +0.000 OA
ATOM     16  C   UNL     1      -6.011  11.100  18.542  0.00  0.00    +0.000 C 
ATOM     17  O   UNL     1      -5.835  12.057  19.595  0.00  0.00    +0.000 OA
ATOM     18  H   UNL     1       2.164  14.774  21.043  0.00  0.00    +0.000 HD
ENDROOT
BRANCH  14  19
ATOM     19  C   UNL     1       0.344  10.911  19.400  0.00  0.00    +0.000 A 
ATOM     20  C   UNL     1       1.246  10.282  18.523  0.00  0.00    +0.000 A 
ATOM     21  C   UNL     1       1.739   9.005  18.804  0.00  0.00    +0.000 A 
ATOM     22  C   UNL     1       1.351   8.338  19.968  0.00  0.00    +0.000 A 
ATOM     23  C   UNL     1       0.455   8.939  20.842  0.00  0.00    +0.000 A 
ATOM     24  C   UNL     1      -0.044  10.211  20.558  0.00  0.00    +0.000 A 
ENDBRANCH  14  19
BRANCH   1  26
ATOM     25  C   UNL     1       4.430  15.479  19.950  0.00  0.00    +0.000 C 
ATOM     26  C   UNL     1       3.041  15.977  19.595  0.00  0.00    +0.000 C 
ENDBRANCH   1  26
BRANCH  12  27
ATOM     27  O   UNL     1      -1.867  11.093  17.200  0.00  0.00    +0.000 OA
ATOM     28  C   UNL     1      -2.056   9.701  16.975  0.00  0.00    +0.000 C 
ENDBRANCH  12  27
TORSDOF 3
ENDMDL
MODEL 9
REMARK VINA RESULT:      -6.1      2.367      3.263
REMARK  Name = 
REMARK  5 active torsions:
REMARK  status: ('A' for Active; 'I' for Inactive)
REMARK    1  A    between atoms: C_1  and  C_2
REMARK    2  A    between atoms: C_2  and  N_3
REMARK    3  A    between atoms: C_14  and  O_15
REMARK    4  A    between atoms: O_15  and  C_16
REMARK    5  A    between atoms: C_18  and  C_19
REMARK                            x       y       z     vdW  Elec       q    Type
REMARK                         _______ _______ _______ _____ _____    ______ ____
ROOT
ATOM      1  N   UNL     1       1.012  15.457  19.846  0.00  0.00    +0.000 N 
ATOM      2  C   UNL     1       0.035  14.496  19.717  0.00  0.00    +0.000 C 
ATOM      3  O   UNL     1      -0.281  14.047  18.613  0.00  0.00    +0.000 OA
ATOM      4  N   UNL     1      -0.568  14.108  20.898  0.00  0.00    +0.000 N 
ATOM      5  C   UNL     1      -0.265  14.666  22.207  0.00  0.00    +0.000 C 
ATOM      6  C   UNL     1      -1.490  15.292  22.855  0.00  0.00    +0.000 C 
ATOM      7  C   UNL     1      -2.776  14.520  22.683  0.00  0.00    +0.000 A 
ATOM      8  C   UNL     1      -3.895  14.823  23.479  0.00  0.00    +0.000 A 
ATOM      9 BR   UNL     1      -3.865  16.175  24.813  0.00  0.00    +0.000 Br
ATOM     10  C   UNL     1      -5.056  14.096  23.293  0.00  0.00    +0.000 A 
ATOM     11  C   UNL     1      -5.166  13.129  22.317  0.00  0.00    +0.000 A 
ATOM     12  C   UNL     1      -4.111  12.829  21.470  0.00  0.00    +0.000 A 
ATOM     13  C   UNL     1      -2.883  13.522  21.668  0.00  0.00    +0.000 A 
ATOM     14  C   UNL     1      -1.641  13.088  20.863  0.00  0.00    +0.000 C 
ATOM     15  O   UNL     1      -6.398  12.542  22.343  0.00  0.00    +0.000 OA
ATOM     16  C   UNL     1      -6.967  13.118  23.528  0.00  0.00    +0.000 C 
ATOM     17  O   UNL     1      -6.199  14.219  24.030  0.00  0.00    +0.000 OA
ATOM     18  H   UNL     1       1.600  15.337  20.654  0.00  0.00    +0.000 HD
ENDROOT
BRANCH  14  19
ATOM     19  C   UNL     1      -1.113  11.712  21.312  0.00  0.00    +0.000 A 
ATOM     20  C   UNL     1      -0.628  10.805  20.354  0.00  0.00    +0.000 A 
ATOM     21  C   UNL     1      -0.162   9.544  20.738  0.00  0.00    +0.000 A 
ATOM     22  C   UNL     1      -0.162   9.171  22.083  0.00  0.00    +0.000 A 
ATOM     23  C   UNL     1      -0.644  10.050  23.044  0.00  0.00    +0.000 A 
ATOM     24  C   UNL     1      -1.116  11.306  22.661  0.00  0.00    +0.000 A 
ENDBRANCH  14  19
BRANCH   1  26
ATOM     25  C   UNL     1       3.025  15.251  18.462  0.00  0.00    +0.000 C 
ATOM     26  C   UNL     1       1.704  15.966  18.678  0.00  0.00    +0.000 C 
ENDBRANCH   1  26
BRANCH  12  27
ATOM     27  O   UNL     1      -4.116  11.894  20.471  0.00  0.00    +0.000 OA
ATOM     28  C   UNL     1      -4.843  12.180  19.282  0.00  0.00    +0.000 C 
ENDBRANCH  12  27
TORSDOF 3
ENDMDL
