MODEL 1
REMARK VINA RESULT:      -8.5      0.000      0.000
REMARK  Name = 
REMARK  11 active torsions:
REMARK  status: ('A' for Active; 'I' for Inactive)
REMARK    1  A    between atoms: C_1  and  O_2
REMARK    2  A    between atoms: O_2  and  C_3
REMARK    3  A    between atoms: C_6  and  C_7
REMARK    4  A    between atoms: C_7  and  O_9
REMARK    5  A    between atoms: O_9  and  C_10
REMARK    6  A    between atoms: N_13  and  C_14
REMARK    7  A    between atoms: C_14  and  C_15
REMARK    8  A    between atoms: C_15  and  O_16
REMARK    9  A    between atoms: C_15  and  C_17
REMARK   10  A    between atoms: C_15  and  C_23
REMARK   11  A    between atoms: C_17  and  N_18
REMARK                            x       y       z     vdW  Elec       q    Type
REMARK                         _______ _______ _______ _____ _____    ______ ____
ROOT
ATOM      1  C   UNL     1       2.252   7.067  17.968  0.00  0.00    +0.000 C 
ENDROOT
BRANCH   1   5
ATOM      2  C   UNL     1       0.570  10.522  19.946  0.00  0.00    +0.000 C 
ATOM      3  C   UNL     1       1.470  10.735  18.733  0.00  0.00    +0.000 C 
ATOM      4  C   UNL     1       1.722   9.425  17.975  0.00  0.00    +0.000 C 
ATOM      5  N   UNL     1       2.239   8.309  18.820  0.00  0.00    +0.000 NA
ATOM      6  C   UNL     1       1.403   8.155  20.014  0.00  0.00    +0.000 C 
ATOM      7  C   UNL     1       1.188   9.437  20.809  0.00  0.00    +0.000 C 
BRANCH   2   8
ATOM      8  O   UNL     1      -0.739  10.078  19.542  0.00  0.00    +0.000 OA
BRANCH   8   9
ATOM      9  C   UNL     1      -1.677  11.037  19.375  0.00  0.00    +0.000 C 
ATOM     10  O   UNL     1      -1.921  11.945  20.154  0.00  0.00    +0.000 OA
BRANCH   9  14
ATOM     11  C   UNL     1      -3.701  10.409  15.625  0.00  0.00    +0.000 A 
ATOM     12  C   UNL     1      -2.464   9.814  15.884  0.00  0.00    +0.000 A 
ATOM     13  C   UNL     1      -1.820  10.032  17.107  0.00  0.00    +0.000 A 
ATOM     14  C   UNL     1      -2.392  10.863  18.079  0.00  0.00    +0.000 A 
ATOM     15  C   UNL     1      -3.615  11.491  17.801  0.00  0.00    +0.000 A 
ATOM     16  C   UNL     1      -4.261  11.264  16.579  0.00  0.00    +0.000 A 
BRANCH  11  18
ATOM     17  C   UNL     1      -3.317   9.866  13.362  0.00  0.00    +0.000 C 
ATOM     18  O   UNL     1      -4.249  10.120  14.409  0.00  0.00    +0.000 OA
ENDBRANCH  11  18
ENDBRANCH   9  14
ENDBRANCH   8   9
ENDBRANCH   2   8
ENDBRANCH   1   5
BRANCH   1  19
ATOM     19  C   UNL     1       3.165   5.817  18.322  0.00  0.00    +0.000 C 
BRANCH  19  20
ATOM     20  C   UNL     1       2.517   4.814  19.311  0.00  0.00    +0.000 A 
ATOM     21  C   UNL     1       2.980   4.746  20.648  0.00  0.00    +0.000 A 
ATOM     22  C   UNL     1       2.377   3.910  21.593  0.00  0.00    +0.000 A 
ATOM     23  C   UNL     1       1.333   3.085  21.208  0.00  0.00    +0.000 A 
ATOM     24  F   UNL     1       0.770   2.267  22.107  0.00  0.00    +0.000 F 
ATOM     25  C   UNL     1       0.871   3.094  19.904  0.00  0.00    +0.000 A 
ATOM     26  C   UNL     1       1.450   3.960  18.977  0.00  0.00    +0.000 A 
ATOM     27  F   UNL     1       0.927   3.942  17.745  0.00  0.00    +0.000 F 
ENDBRANCH  19  20
BRANCH  19  28
ATOM     28  O   UNL     1       3.332   5.079  17.084  0.00  0.00    +0.000 OA
ATOM     29  H   UNL     1       4.276   4.820  17.055  0.00  0.00    +0.000 HD
ENDBRANCH  19  28
BRANCH  19  30
ATOM     30  C   UNL     1       4.604   6.144  18.812  0.00  0.00    +0.000 C 
BRANCH  30  31
ATOM     31  N   UNL     1       5.683   5.833  17.911  0.00  0.00    +0.000 N 
ATOM     32  C   UNL     1       6.484   6.719  17.260  0.00  0.00    +0.000 A 
ATOM     33  N   UNL     1       7.399   6.066  16.584  0.00  0.00    +0.000 NA
ATOM     34  C   UNL     1       7.127   4.762  16.882  0.00  0.00    +0.000 A 
ATOM     35  N   UNL     1       6.100   4.570  17.715  0.00  0.00    +0.000 NA
ENDBRANCH  30  31
ENDBRANCH  19  30
ENDBRANCH   1  19
TORSDOF 10
ENDMDL
MODEL 2
REMARK VINA RESULT:      -7.5      3.727      6.627
REMARK  Name = 
REMARK  11 active torsions:
REMARK  status: ('A' for Active; 'I' for Inactive)
REMARK    1  A    between atoms: C_1  and  O_2
REMARK    2  A    between atoms: O_2  and  C_3
REMARK    3  A    between atoms: C_6  and  C_7
REMARK    4  A    between atoms: C_7  and  O_9
REMARK    5  A    between atoms: O_9  and  C_10
REMARK    6  A    between atoms: N_13  and  C_14
REMARK    7  A    between atoms: C_14  and  C_15
REMARK    8  A    between atoms: C_15  and  O_16
REMARK    9  A    between atoms: C_15  and  C_17
REMARK   10  A    between atoms: C_15  and  C_23
REMARK   11  A    between atoms: C_17  and  N_18
REMARK                            x       y       z     vdW  Elec       q    Type
REMARK                         _______ _______ _______ _____ _____    ______ ____
ROOT
ATOM      1  C   UNL     1       4.005   3.921  16.204  0.00  0.00    +0.000 C 
ENDROOT
BRANCH   1   5
ATOM      2  C   UNL     1       2.396   2.543  19.970  0.00  0.00    +0.000 C 
ATOM      3  C   UNL     1       3.878   2.890  19.888  0.00  0.00    +0.000 C 
ATOM      4  C   UNL     1       4.214   3.648  18.596  0.00  0.00    +0.000 C 
ATOM      5  N   UNL     1       3.766   2.968  17.345  0.00  0.00    +0.000 NA
ATOM      6  C   UNL     1       2.357   2.582  17.461  0.00  0.00    +0.000 C 
ATOM      7  C   UNL     1       2.017   1.782  18.713  0.00  0.00    +0.000 C 
BRANCH   2   8
ATOM      8  O   UNL     1       1.591   3.736  20.028  0.00  0.00    +0.000 OA
BRANCH   8   9
ATOM      9  C   UNL     1       2.045   4.732  20.822  0.00  0.00    +0.000 C 
ATOM     10  O   UNL     1       2.461   4.607  21.962  0.00  0.00    +0.000 OA
BRANCH   9  14
ATOM     11  C   UNL     1       1.925   8.578  18.887  0.00  0.00    +0.000 A 
ATOM     12  C   UNL     1       1.444   8.412  20.187  0.00  0.00    +0.000 A 
ATOM     13  C   UNL     1       1.489   7.154  20.799  0.00  0.00    +0.000 A 
ATOM     14  C   UNL     1       1.994   6.043  20.113  0.00  0.00    +0.000 A 
ATOM     15  C   UNL     1       2.439   6.204  18.792  0.00  0.00    +0.000 A 
ATOM     16  C   UNL     1       2.401   7.466  18.186  0.00  0.00    +0.000 A 
BRANCH  11  18
ATOM     17  C   UNL     1       0.640  10.545  18.675  0.00  0.00    +0.000 C 
ATOM     18  O   UNL     1       1.849   9.847  18.389  0.00  0.00    +0.000 OA
ENDBRANCH  11  18
ENDBRANCH   9  14
ENDBRANCH   8   9
ENDBRANCH   2   8
ENDBRANCH   1   5
BRANCH   1  19
ATOM     19  C   UNL     1       5.468   4.264  15.691  0.00  0.00    +0.000 C 
BRANCH  19  20
ATOM     20  C   UNL     1       6.274   5.191  16.637  0.00  0.00    +0.000 A 
ATOM     21  C   UNL     1       7.282   4.644  17.467  0.00  0.00    +0.000 A 
ATOM     22  C   UNL     1       8.084   5.451  18.281  0.00  0.00    +0.000 A 
ATOM     23  C   UNL     1       7.858   6.817  18.322  0.00  0.00    +0.000 A 
ATOM     24  F   UNL     1       8.610   7.588  19.118  0.00  0.00    +0.000 F 
ATOM     25  C   UNL     1       6.861   7.390  17.553  0.00  0.00    +0.000 A 
ATOM     26  C   UNL     1       6.093   6.585  16.713  0.00  0.00    +0.000 A 
ATOM     27  F   UNL     1       5.173   7.213  15.971  0.00  0.00    +0.000 F 
ENDBRANCH  19  20
BRANCH  19  28
ATOM     28  O   UNL     1       6.194   3.008  15.678  0.00  0.00    +0.000 OA
ATOM     29  H   UNL     1       6.101   2.657  14.769  0.00  0.00    +0.000 HD
ENDBRANCH  19  28
BRANCH  19  30
ATOM     30  C   UNL     1       5.567   4.820  14.242  0.00  0.00    +0.000 C 
BRANCH  30  31
ATOM     31  N   UNL     1       5.698   3.853  13.184  0.00  0.00    +0.000 N 
ATOM     32  C   UNL     1       4.691   3.288  12.465  0.00  0.00    +0.000 A 
ATOM     33  N   UNL     1       5.199   2.508  11.540  0.00  0.00    +0.000 NA
ATOM     34  C   UNL     1       6.544   2.657  11.719  0.00  0.00    +0.000 A 
ATOM     35  N   UNL     1       6.900   3.493  12.698  0.00  0.00    +0.000 NA
ENDBRANCH  30  31
ENDBRANCH  19  30
ENDBRANCH   1  19
TORSDOF 10
ENDMDL
MODEL 3
REMARK VINA RESULT:      -7.5      2.740      4.382
REMARK  Name = 
REMARK  11 active torsions:
REMARK  status: ('A' for Active; 'I' for Inactive)
REMARK    1  A    between atoms: C_1  and  O_2
REMARK    2  A    between atoms: O_2  and  C_3
REMARK    3  A    between atoms: C_6  and  C_7
REMARK    4  A    between atoms: C_7  and  O_9
REMARK    5  A    between atoms: O_9  and  C_10
REMARK    6  A    between atoms: N_13  and  C_14
REMARK    7  A    between atoms: C_14  and  C_15
REMARK    8  A    between atoms: C_15  and  O_16
REMARK    9  A    between atoms: C_15  and  C_17
REMARK   10  A    between atoms: C_15  and  C_23
REMARK   11  A    between atoms: C_17  and  N_18
REMARK                            x       y       z     vdW  Elec       q    Type
REMARK                         _______ _______ _______ _____ _____    ______ ____
ROOT
ATOM      1  C   UNL     1       2.050   7.021  18.031  0.00  0.00    +0.000 C 
ENDROOT
BRANCH   1   5
ATOM      2  C   UNL     1       0.993  11.002  19.337  0.00  0.00    +0.000 C 
ATOM      3  C   UNL     1       2.195  10.826  18.414  0.00  0.00    +0.000 C 
ATOM      4  C   UNL     1       2.242   9.419  17.804  0.00  0.00    +0.000 C 
ATOM      5  N   UNL     1       2.180   8.309  18.800  0.00  0.00    +0.000 NA
ATOM      6  C   UNL     1       1.059   8.523  19.720  0.00  0.00    +0.000 C 
ATOM      7  C   UNL     1       1.028   9.897  20.377  0.00  0.00    +0.000 C 
BRANCH   2   8
ATOM      8  O   UNL     1      -0.241  10.883  18.602  0.00  0.00    +0.000 OA
BRANCH   8   9
ATOM      9  C   UNL     1      -0.927  12.027  18.385  0.00  0.00    +0.000 C 
ATOM     10  O   UNL     1      -0.440  13.131  18.198  0.00  0.00    +0.000 OA
BRANCH   9  14
ATOM     11  C   UNL     1      -5.149  11.175  18.323  0.00  0.00    +0.000 A 
ATOM     12  C   UNL     1      -4.310  10.731  17.299  0.00  0.00    +0.000 A 
ATOM     13  C   UNL     1      -2.941  11.020  17.334  0.00  0.00    +0.000 A 
ATOM     14  C   UNL     1      -2.396  11.773  18.381  0.00  0.00    +0.000 A 
ATOM     15  C   UNL     1      -3.247  12.253  19.388  0.00  0.00    +0.000 A 
ATOM     16  C   UNL     1      -4.615  11.955  19.354  0.00  0.00    +0.000 A 
BRANCH  11  18
ATOM     17  C   UNL     1      -7.165  10.644  19.426  0.00  0.00    +0.000 C 
ATOM     18  O   UNL     1      -6.463  10.827  18.200  0.00  0.00    +0.000 OA
ENDBRANCH  11  18
ENDBRANCH   9  14
ENDBRANCH   8   9
ENDBRANCH   2   8
ENDBRANCH   1   5
BRANCH   1  19
ATOM     19  C   UNL     1       2.837   5.709  18.455  0.00  0.00    +0.000 C 
BRANCH  19  20
ATOM     20  C   UNL     1       4.052   5.374  17.551  0.00  0.00    +0.000 A 
ATOM     21  C   UNL     1       4.167   4.084  16.977  0.00  0.00    +0.000 A 
ATOM     22  C   UNL     1       5.205   3.760  16.098  0.00  0.00    +0.000 A 
ATOM     23  C   UNL     1       6.179   4.703  15.815  0.00  0.00    +0.000 A 
ATOM     24  F   UNL     1       7.186   4.387  14.990  0.00  0.00    +0.000 F 
ATOM     25  C   UNL     1       6.125   5.964  16.380  0.00  0.00    +0.000 A 
ATOM     26  C   UNL     1       5.065   6.294  17.224  0.00  0.00    +0.000 A 
ATOM     27  F   UNL     1       5.057   7.544  17.704  0.00  0.00    +0.000 F 
ENDBRANCH  19  20
BRANCH  19  28
ATOM     28  O   UNL     1       3.400   5.984  19.764  0.00  0.00    +0.000 OA
ATOM     29  H   UNL     1       3.533   5.110  20.185  0.00  0.00    +0.000 HD
ENDBRANCH  19  28
BRANCH  19  30
ATOM     30  C   UNL     1       1.976   4.427  18.631  0.00  0.00    +0.000 C 
BRANCH  30  31
ATOM     31  N   UNL     1       2.068   3.751  19.900  0.00  0.00    +0.000 N 
ATOM     32  C   UNL     1       1.085   3.625  20.831  0.00  0.00    +0.000 A 
ATOM     33  N   UNL     1       1.516   2.885  21.824  0.00  0.00    +0.000 NA
ATOM     34  C   UNL     1       2.781   2.554  21.432  0.00  0.00    +0.000 A 
ATOM     35  N   UNL     1       3.156   3.040  20.245  0.00  0.00    +0.000 NA
ENDBRANCH  30  31
ENDBRANCH  19  30
ENDBRANCH   1  19
TORSDOF 10
ENDMDL
MODEL 4
REMARK VINA RESULT:      -7.5      3.605      5.841
REMARK  Name = 
REMARK  11 active torsions:
REMARK  status: ('A' for Active; 'I' for Inactive)
REMARK    1  A    between atoms: C_1  and  O_2
REMARK    2  A    between atoms: O_2  and  C_3
REMARK    3  A    between atoms: C_6  and  C_7
REMARK    4  A    between atoms: C_7  and  O_9
REMARK    5  A    between atoms: O_9  and  C_10
REMARK    6  A    between atoms: N_13  and  C_14
REMARK    7  A    between atoms: C_14  and  C_15
REMARK    8  A    between atoms: C_15  and  O_16
REMARK    9  A    between atoms: C_15  and  C_17
REMARK   10  A    between atoms: C_15  and  C_23
REMARK   11  A    between atoms: C_17  and  N_18
REMARK                            x       y       z     vdW  Elec       q    Type
REMARK                         _______ _______ _______ _____ _____    ______ ____
ROOT
ATOM      1  C   UNL     1       3.180   7.463  18.258  0.00  0.00    +0.000 C 
ENDROOT
BRANCH   1   5
ATOM      2  C   UNL     1       0.307  10.037  20.204  0.00  0.00    +0.000 C 
ATOM      3  C   UNL     1       0.592   8.666  20.807  0.00  0.00    +0.000 C 
ATOM      4  C   UNL     1       1.839   8.020  20.189  0.00  0.00    +0.000 C 
ATOM      5  N   UNL     1       1.823   7.944  18.699  0.00  0.00    +0.000 NA
ATOM      6  C   UNL     1       1.486   9.252  18.133  0.00  0.00    +0.000 C 
ATOM      7  C   UNL     1       0.219   9.883  18.697  0.00  0.00    +0.000 C 
BRANCH   2   8
ATOM      8  O   UNL     1       1.376  10.958  20.496  0.00  0.00    +0.000 OA
BRANCH   8   9
ATOM      9  C   UNL     1       1.014  12.175  20.961  0.00  0.00    +0.000 C 
ATOM     10  O   UNL     1       0.197  12.393  21.842  0.00  0.00    +0.000 OA
BRANCH   9  14
ATOM     11  C   UNL     1       3.115  15.275  18.834  0.00  0.00    +0.000 A 
ATOM     12  C   UNL     1       2.731  14.096  18.193  0.00  0.00    +0.000 A 
ATOM     13  C   UNL     1       2.052  13.098  18.901  0.00  0.00    +0.000 A 
ATOM     14  C   UNL     1       1.765  13.257  20.263  0.00  0.00    +0.000 A 
ATOM     15  C   UNL     1       2.187  14.425  20.915  0.00  0.00    +0.000 A 
ATOM     16  C   UNL     1       2.860  15.425  20.201  0.00  0.00    +0.000 A 
BRANCH  11  18
ATOM     17  C   UNL     1       2.930  16.906  17.140  0.00  0.00    +0.000 C 
ATOM     18  O   UNL     1       3.759  16.189  18.050  0.00  0.00    +0.000 OA
ENDBRANCH  11  18
ENDBRANCH   9  14
ENDBRANCH   8   9
ENDBRANCH   2   8
ENDBRANCH   1   5
BRANCH   1  19
ATOM     19  C   UNL     1       3.613   5.941  18.385  0.00  0.00    +0.000 C 
BRANCH  19  20
ATOM     20  C   UNL     1       4.694   5.497  17.366  0.00  0.00    +0.000 A 
ATOM     21  C   UNL     1       4.486   4.338  16.580  0.00  0.00    +0.000 A 
ATOM     22  C   UNL     1       5.400   3.942  15.597  0.00  0.00    +0.000 A 
ATOM     23  C   UNL     1       6.565   4.668  15.416  0.00  0.00    +0.000 A 
ATOM     24  F   UNL     1       7.451   4.278  14.490  0.00  0.00    +0.000 F 
ATOM     25  C   UNL     1       6.824   5.788  16.185  0.00  0.00    +0.000 A 
ATOM     26  C   UNL     1       5.890   6.201  17.135  0.00  0.00    +0.000 A 
ATOM     27  F   UNL     1       6.191   7.314  17.815  0.00  0.00    +0.000 F 
ENDBRANCH  19  20
BRANCH  19  28
ATOM     28  O   UNL     1       4.239   5.809  19.688  0.00  0.00    +0.000 OA
ATOM     29  H   UNL     1       3.753   5.093  20.145  0.00  0.00    +0.000 HD
ENDBRANCH  19  28
BRANCH  19  30
ATOM     30  C   UNL     1       2.456   4.902  18.370  0.00  0.00    +0.000 C 
BRANCH  30  31
ATOM     31  N   UNL     1       2.251   4.141  19.575  0.00  0.00    +0.000 N 
ATOM     32  C   UNL     1       1.174   4.198  20.404  0.00  0.00    +0.000 A 
ATOM     33  N   UNL     1       1.309   3.309  21.359  0.00  0.00    +0.000 NA
ATOM     34  C   UNL     1       2.493   2.705  21.047  0.00  0.00    +0.000 A 
ATOM     35  N   UNL     1       3.095   3.162  19.946  0.00  0.00    +0.000 NA
ENDBRANCH  30  31
ENDBRANCH  19  30
ENDBRANCH   1  19
TORSDOF 10
ENDMDL
MODEL 5
REMARK VINA RESULT:      -7.5      3.489      5.365
REMARK  Name = 
REMARK  11 active torsions:
REMARK  status: ('A' for Active; 'I' for Inactive)
REMARK    1  A    between atoms: C_1  and  O_2
REMARK    2  A    between atoms: O_2  and  C_3
REMARK    3  A    between atoms: C_6  and  C_7
REMARK    4  A    between atoms: C_7  and  O_9
REMARK    5  A    between atoms: O_9  and  C_10
REMARK    6  A    between atoms: N_13  and  C_14
REMARK    7  A    between atoms: C_14  and  C_15
REMARK    8  A    between atoms: C_15  and  O_16
REMARK    9  A    between atoms: C_15  and  C_17
REMARK   10  A    between atoms: C_15  and  C_23
REMARK   11  A    between atoms: C_17  and  N_18
REMARK                            x       y       z     vdW  Elec       q    Type
REMARK                         _______ _______ _______ _____ _____    ______ ____
ROOT
ATOM      1  C   UNL     1       3.113   7.528  18.269  0.00  0.00    +0.000 C 
ENDROOT
BRANCH   1   5
ATOM      2  C   UNL     1       0.129  10.279  19.755  0.00  0.00    +0.000 C 
ATOM      3  C   UNL     1       0.446   9.029  20.569  0.00  0.00    +0.000 C 
ATOM      4  C   UNL     1       1.723   8.336  20.074  0.00  0.00    +0.000 C 
ATOM      5  N   UNL     1       1.734   8.027  18.614  0.00  0.00    +0.000 NA
ATOM      6  C   UNL     1       1.366   9.219  17.846  0.00  0.00    +0.000 C 
ATOM      7  C   UNL     1       0.071   9.888  18.290  0.00  0.00    +0.000 C 
BRANCH   2   8
ATOM      8  O   UNL     1       1.164  11.269  19.911  0.00  0.00    +0.000 OA
BRANCH   8   9
ATOM      9  C   UNL     1       0.990  12.173  20.901  0.00  0.00    +0.000 C 
ATOM     10  O   UNL     1       1.869  12.836  21.430  0.00  0.00    +0.000 OA
BRANCH   9  14
ATOM     11  C   UNL     1      -3.132  12.518  22.101  0.00  0.00    +0.000 A 
ATOM     12  C   UNL     1      -2.182  11.943  22.948  0.00  0.00    +0.000 A 
ATOM     13  C   UNL     1      -0.848  11.837  22.539  0.00  0.00    +0.000 A 
ATOM     14  C   UNL     1      -0.449  12.284  21.273  0.00  0.00    +0.000 A 
ATOM     15  C   UNL     1      -1.413  12.824  20.409  0.00  0.00    +0.000 A 
ATOM     16  C   UNL     1      -2.746  12.937  20.824  0.00  0.00    +0.000 A 
BRANCH  11  18
ATOM     17  C   UNL     1      -5.441  12.600  21.628  0.00  0.00    +0.000 C 
ATOM     18  O   UNL     1      -4.400  12.586  22.601  0.00  0.00    +0.000 OA
ENDBRANCH  11  18
ENDBRANCH   9  14
ENDBRANCH   8   9
ENDBRANCH   2   8
ENDBRANCH   1   5
BRANCH   1  19
ATOM     19  C   UNL     1       3.485   5.986  18.327  0.00  0.00    +0.000 C 
BRANCH  19  20
ATOM     20  C   UNL     1       4.634   5.571  17.372  0.00  0.00    +0.000 A 
ATOM     21  C   UNL     1       4.502   4.406  16.578  0.00  0.00    +0.000 A 
ATOM     22  C   UNL     1       5.480   4.034  15.649  0.00  0.00    +0.000 A 
ATOM     23  C   UNL     1       6.634   4.791  15.533  0.00  0.00    +0.000 A 
ATOM     24  F   UNL     1       7.581   4.423  14.660  0.00  0.00    +0.000 F 
ATOM     25  C   UNL     1       6.820   5.918  16.314  0.00  0.00    +0.000 A 
ATOM     26  C   UNL     1       5.822   6.306  17.208  0.00  0.00    +0.000 A 
ATOM     27  F   UNL     1       6.054   7.427  17.902  0.00  0.00    +0.000 F 
ENDBRANCH  19  20
BRANCH  19  28
ATOM     28  O   UNL     1       3.995   5.746  19.664  0.00  0.00    +0.000 OA
ATOM     29  H   UNL     1       3.847   4.794  19.838  0.00  0.00    +0.000 HD
ENDBRANCH  19  28
BRANCH  19  30
ATOM     30  C   UNL     1       2.302   4.994  18.146  0.00  0.00    +0.000 C 
BRANCH  30  31
ATOM     31  N   UNL     1       1.985   4.149  19.268  0.00  0.00    +0.000 N 
ATOM     32  C   UNL     1       2.226   2.815  19.379  0.00  0.00    +0.000 A 
ATOM     33  N   UNL     1       1.865   2.403  20.571  0.00  0.00    +0.000 NA
ATOM     34  C   UNL     1       1.430   3.549  21.171  0.00  0.00    +0.000 A 
ATOM     35  N   UNL     1       1.509   4.651  20.421  0.00  0.00    +0.000 NA
ENDBRANCH  30  31
ENDBRANCH  19  30
ENDBRANCH   1  19
TORSDOF 10
ENDMDL
MODEL 6
REMARK VINA RESULT:      -7.3      3.505      6.045
REMARK  Name = 
REMARK  11 active torsions:
REMARK  status: ('A' for Active; 'I' for Inactive)
REMARK    1  A    between atoms: C_1  and  O_2
REMARK    2  A    between atoms: O_2  and  C_3
REMARK    3  A    between atoms: C_6  and  C_7
REMARK    4  A    between atoms: C_7  and  O_9
REMARK    5  A    between atoms: O_9  and  C_10
REMARK    6  A    between atoms: N_13  and  C_14
REMARK    7  A    between atoms: C_14  and  C_15
REMARK    8  A    between atoms: C_15  and  O_16
REMARK    9  A    between atoms: C_15  and  C_17
REMARK   10  A    between atoms: C_15  and  C_23
REMARK   11  A    between atoms: C_17  and  N_18
REMARK                            x       y       z     vdW  Elec       q    Type
REMARK                         _______ _______ _______ _____ _____    ______ ____
ROOT
ATOM      1  C   UNL     1       3.217   7.298  18.699  0.00  0.00    +0.000 C 
ENDROOT
BRANCH   1   5
ATOM      2  C   UNL     1       0.321  10.284  19.871  0.00  0.00    +0.000 C 
ATOM      3  C   UNL     1       0.398   8.983  20.664  0.00  0.00    +0.000 C 
ATOM      4  C   UNL     1       1.663   8.183  20.324  0.00  0.00    +0.000 C 
ATOM      5  N   UNL     1       1.856   7.920  18.868  0.00  0.00    +0.000 NA
ATOM      6  C   UNL     1       1.717   9.166  18.109  0.00  0.00    +0.000 C 
ATOM      7  C   UNL     1       0.440   9.946  18.396  0.00  0.00    +0.000 C 
BRANCH   2   8
ATOM      8  O   UNL     1       1.411  11.161  20.216  0.00  0.00    +0.000 OA
BRANCH   8   9
ATOM      9  C   UNL     1       1.083  12.315  20.839  0.00  0.00    +0.000 C 
ATOM     10  O   UNL     1       0.319  12.428  21.784  0.00  0.00    +0.000 OA
BRANCH   9  14
ATOM     11  C   UNL     1       3.265  15.591  19.091  0.00  0.00    +0.000 A 
ATOM     12  C   UNL     1       3.795  14.861  20.157  0.00  0.00    +0.000 A 
ATOM     13  C   UNL     1       3.070  13.802  20.714  0.00  0.00    +0.000 A 
ATOM     14  C   UNL     1       1.799  13.471  20.228  0.00  0.00    +0.000 A 
ATOM     15  C   UNL     1       1.252  14.232  19.184  0.00  0.00    +0.000 A 
ATOM     16  C   UNL     1       1.984  15.286  18.623  0.00  0.00    +0.000 A 
BRANCH  11  18
ATOM     17  C   UNL     1       5.055  17.068  19.514  0.00  0.00    +0.000 C 
ATOM     18  O   UNL     1       4.059  16.593  18.612  0.00  0.00    +0.000 OA
ENDBRANCH  11  18
ENDBRANCH   9  14
ENDBRANCH   8   9
ENDBRANCH   2   8
ENDBRANCH   1   5
BRANCH   1  19
ATOM     19  C   UNL     1       3.400   5.746  18.416  0.00  0.00    +0.000 C 
BRANCH  19  20
ATOM     20  C   UNL     1       4.301   5.422  17.197  0.00  0.00    +0.000 A 
ATOM     21  C   UNL     1       4.749   6.470  16.355  0.00  0.00    +0.000 A 
ATOM     22  C   UNL     1       5.621   6.234  15.287  0.00  0.00    +0.000 A 
ATOM     23  C   UNL     1       6.023   4.938  15.007  0.00  0.00    +0.000 A 
ATOM     24  F   UNL     1       6.841   4.708  13.972  0.00  0.00    +0.000 F 
ATOM     25  C   UNL     1       5.583   3.881  15.783  0.00  0.00    +0.000 A 
ATOM     26  C   UNL     1       4.746   4.128  16.871  0.00  0.00    +0.000 A 
ATOM     27  F   UNL     1       4.391   3.062  17.598  0.00  0.00    +0.000 F 
ENDBRANCH  19  20
BRANCH  19  28
ATOM     28  O   UNL     1       4.107   5.210  19.565  0.00  0.00    +0.000 OA
ATOM     29  H   UNL     1       4.769   4.588  19.203  0.00  0.00    +0.000 HD
ENDBRANCH  19  28
BRANCH  19  30
ATOM     30  C   UNL     1       2.091   4.916  18.305  0.00  0.00    +0.000 C 
BRANCH  30  31
ATOM     31  N   UNL     1       1.777   4.047  19.409  0.00  0.00    +0.000 N 
ATOM     32  C   UNL     1       1.741   2.688  19.394  0.00  0.00    +0.000 A 
ATOM     33  N   UNL     1       1.487   2.243  20.602  0.00  0.00    +0.000 NA
ATOM     34  C   UNL     1       1.404   3.390  21.338  0.00  0.00    +0.000 A 
ATOM     35  N   UNL     1       1.602   4.521  20.655  0.00  0.00    +0.000 NA
ENDBRANCH  30  31
ENDBRANCH  19  30
ENDBRANCH   1  19
TORSDOF 10
ENDMDL
MODEL 7
REMARK VINA RESULT:      -7.3      2.644      4.331
REMARK  Name = 
REMARK  11 active torsions:
REMARK  status: ('A' for Active; 'I' for Inactive)
REMARK    1  A    between atoms: C_1  and  O_2
REMARK    2  A    between atoms: O_2  and  C_3
REMARK    3  A    between atoms: C_6  and  C_7
REMARK    4  A    between atoms: C_7  and  O_9
REMARK    5  A    between atoms: O_9  and  C_10
REMARK    6  A    between atoms: N_13  and  C_14
REMARK    7  A    between atoms: C_14  and  C_15
REMARK    8  A    between atoms: C_15  and  O_16
REMARK    9  A    between atoms: C_15  and  C_17
REMARK   10  A    between atoms: C_15  and  C_23
REMARK   11  A    between atoms: C_17  and  N_18
REMARK                            x       y       z     vdW  Elec       q    Type
REMARK                         _______ _______ _______ _____ _____    ______ ____
ROOT
ATOM      1  C   UNL     1       1.816   6.963  18.215  0.00  0.00    +0.000 C 
ENDROOT
BRANCH   1   5
ATOM      2  C   UNL     1       0.909  10.930  19.669  0.00  0.00    +0.000 C 
ATOM      3  C   UNL     1       1.785  10.784  18.429  0.00  0.00    +0.000 C 
ATOM      4  C   UNL     1       1.750   9.355  17.873  0.00  0.00    +0.000 C 
ATOM      5  N   UNL     1       2.075   8.294  18.871  0.00  0.00    +0.000 NA
ATOM      6  C   UNL     1       1.272   8.482  20.082  0.00  0.00    +0.000 C 
ATOM      7  C   UNL     1       1.339   9.882  20.679  0.00  0.00    +0.000 C 
BRANCH   2   8
ATOM      8  O   UNL     1      -0.477  10.698  19.348  0.00  0.00    +0.000 OA
BRANCH   8   9
ATOM      9  C   UNL     1      -1.371  11.566  19.872  0.00  0.00    +0.000 C 
ATOM     10  O   UNL     1      -1.214  12.236  20.880  0.00  0.00    +0.000 OA
BRANCH   9  14
ATOM     11  C   UNL     1      -4.967  11.854  17.519  0.00  0.00    +0.000 A 
ATOM     12  C   UNL     1      -4.937  12.295  18.843  0.00  0.00    +0.000 A 
ATOM     13  C   UNL     1      -3.760  12.190  19.593  0.00  0.00    +0.000 A 
ATOM     14  C   UNL     1      -2.605  11.626  19.038  0.00  0.00    +0.000 A 
ATOM     15  C   UNL     1      -2.649  11.147  17.720  0.00  0.00    +0.000 A 
ATOM     16  C   UNL     1      -3.826  11.261  16.969  0.00  0.00    +0.000 A 
BRANCH  11  18
ATOM     17  C   UNL     1      -7.034  12.985  17.437  0.00  0.00    +0.000 C 
ATOM     18  O   UNL     1      -6.159  12.014  16.872  0.00  0.00    +0.000 OA
ENDBRANCH  11  18
ENDBRANCH   9  14
ENDBRANCH   8   9
ENDBRANCH   2   8
ENDBRANCH   1   5
BRANCH   1  19
ATOM     19  C   UNL     1       2.712   5.689  18.520  0.00  0.00    +0.000 C 
BRANCH  19  20
ATOM     20  C   UNL     1       3.868   5.466  17.511  0.00  0.00    +0.000 A 
ATOM     21  C   UNL     1       4.035   4.199  16.901  0.00  0.00    +0.000 A 
ATOM     22  C   UNL     1       5.018   3.973  15.931  0.00  0.00    +0.000 A 
ATOM     23  C   UNL     1       5.887   4.996  15.588  0.00  0.00    +0.000 A 
ATOM     24  F   UNL     1       6.842   4.774  14.676  0.00  0.00    +0.000 F 
ATOM     25  C   UNL     1       5.781   6.240  16.183  0.00  0.00    +0.000 A 
ATOM     26  C   UNL     1       4.773   6.470  17.120  0.00  0.00    +0.000 A 
ATOM     27  F   UNL     1       4.708   7.708  17.626  0.00  0.00    +0.000 F 
ENDBRANCH  19  20
BRANCH  19  28
ATOM     28  O   UNL     1       3.361   5.950  19.792  0.00  0.00    +0.000 OA
ATOM     29  H   UNL     1       4.028   6.644  19.612  0.00  0.00    +0.000 HD
ENDBRANCH  19  28
BRANCH  19  30
ATOM     30  C   UNL     1       1.947   4.349  18.708  0.00  0.00    +0.000 C 
BRANCH  30  31
ATOM     31  N   UNL     1       2.133   3.665  19.961  0.00  0.00    +0.000 N 
ATOM     32  C   UNL     1       1.203   3.482  20.936  0.00  0.00    +0.000 A 
ATOM     33  N   UNL     1       1.716   2.752  21.898  0.00  0.00    +0.000 NA
ATOM     34  C   UNL     1       2.975   2.487  21.441  0.00  0.00    +0.000 A 
ATOM     35  N   UNL     1       3.268   3.002  20.245  0.00  0.00    +0.000 NA
ENDBRANCH  30  31
ENDBRANCH  19  30
ENDBRANCH   1  19
TORSDOF 10
ENDMDL
MODEL 8
REMARK VINA RESULT:      -7.3      3.061      5.179
REMARK  Name = 
REMARK  11 active torsions:
REMARK  status: ('A' for Active; 'I' for Inactive)
REMARK    1  A    between atoms: C_1  and  O_2
REMARK    2  A    between atoms: O_2  and  C_3
REMARK    3  A    between atoms: C_6  and  C_7
REMARK    4  A    between atoms: C_7  and  O_9
REMARK    5  A    between atoms: O_9  and  C_10
REMARK    6  A    between atoms: N_13  and  C_14
REMARK    7  A    between atoms: C_14  and  C_15
REMARK    8  A    between atoms: C_15  and  O_16
REMARK    9  A    between atoms: C_15  and  C_17
REMARK   10  A    between atoms: C_15  and  C_23
REMARK   11  A    between atoms: C_17  and  N_18
REMARK                            x       y       z     vdW  Elec       q    Type
REMARK                         _______ _______ _______ _____ _____    ______ ____
ROOT
ATOM      1  C   UNL     1       2.056   6.999  18.093  0.00  0.00    +0.000 C 
ENDROOT
BRANCH   1   5
ATOM      2  C   UNL     1       0.810  10.823  19.673  0.00  0.00    +0.000 C 
ATOM      3  C   UNL     1       1.812  10.794  18.523  0.00  0.00    +0.000 C 
ATOM      4  C   UNL     1       1.905   9.402  17.885  0.00  0.00    +0.000 C 
ATOM      5  N   UNL     1       2.181   8.296  18.848  0.00  0.00    +0.000 NA
ATOM      6  C   UNL     1       1.253   8.372  19.979  0.00  0.00    +0.000 C 
ATOM      7  C   UNL     1       1.190   9.734  20.659  0.00  0.00    +0.000 C 
BRANCH   2   8
ATOM      8  O   UNL     1      -0.523  10.551  19.199  0.00  0.00    +0.000 OA
BRANCH   8   9
ATOM      9  C   UNL     1      -1.269  11.622  18.848  0.00  0.00    +0.000 C 
ATOM     10  O   UNL     1      -1.216  12.214  17.782  0.00  0.00    +0.000 OA
BRANCH   9  14
ATOM     11  C   UNL     1      -3.882  12.765  22.075  0.00  0.00    +0.000 A 
ATOM     12  C   UNL     1      -2.568  12.361  22.322  0.00  0.00    +0.000 A 
ATOM     13  C   UNL     1      -1.735  11.990  21.261  0.00  0.00    +0.000 A 
ATOM     14  C   UNL     1      -2.208  11.998  19.943  0.00  0.00    +0.000 A 
ATOM     15  C   UNL     1      -3.540  12.365  19.701  0.00  0.00    +0.000 A 
ATOM     16  C   UNL     1      -4.369  12.744  20.765  0.00  0.00    +0.000 A 
BRANCH  11  18
ATOM     17  C   UNL     1      -4.033  12.750  24.429  0.00  0.00    +0.000 C 
ATOM     18  O   UNL     1      -4.605  13.119  23.178  0.00  0.00    +0.000 OA
ENDBRANCH  11  18
ENDBRANCH   9  14
ENDBRANCH   8   9
ENDBRANCH   2   8
ENDBRANCH   1   5
BRANCH   1  19
ATOM     19  C   UNL     1       2.909   5.717  18.479  0.00  0.00    +0.000 C 
BRANCH  19  20
ATOM     20  C   UNL     1       4.130   5.463  17.558  0.00  0.00    +0.000 A 
ATOM     21  C   UNL     1       4.320   4.186  16.978  0.00  0.00    +0.000 A 
ATOM     22  C   UNL     1       5.365   3.931  16.083  0.00  0.00    +0.000 A 
ATOM     23  C   UNL     1       6.273   4.935  15.791  0.00  0.00    +0.000 A 
ATOM     24  F   UNL     1       7.287   4.687  14.952  0.00  0.00    +0.000 F 
ATOM     25  C   UNL     1       6.146   6.189  16.361  0.00  0.00    +0.000 A 
ATOM     26  C   UNL     1       5.078   6.447  17.221  0.00  0.00    +0.000 A 
ATOM     27  F   UNL     1       4.997   7.693  17.705  0.00  0.00    +0.000 F 
ENDBRANCH  19  20
BRANCH  19  28
ATOM     28  O   UNL     1       3.470   5.989  19.790  0.00  0.00    +0.000 OA
ATOM     29  H   UNL     1       4.317   5.499  19.823  0.00  0.00    +0.000 HD
ENDBRANCH  19  28
BRANCH  19  30
ATOM     30  C   UNL     1       2.114   4.391  18.632  0.00  0.00    +0.000 C 
BRANCH  30  31
ATOM     31  N   UNL     1       2.187   3.733  19.910  0.00  0.00    +0.000 N 
ATOM     32  C   UNL     1       1.183   3.600  20.819  0.00  0.00    +0.000 A 
ATOM     33  N   UNL     1       1.602   2.880  21.832  0.00  0.00    +0.000 NA
ATOM     34  C   UNL     1       2.883   2.568  21.475  0.00  0.00    +0.000 A 
ATOM     35  N   UNL     1       3.278   3.046  20.292  0.00  0.00    +0.000 NA
ENDBRANCH  30  31
ENDBRANCH  19  30
ENDBRANCH   1  19
TORSDOF 10
ENDMDL
MODEL 9
REMARK VINA RESULT:      -7.3      2.577      3.710
REMARK  Name = 
REMARK  11 active torsions:
REMARK  status: ('A' for Active; 'I' for Inactive)
REMARK    1  A    between atoms: C_1  and  O_2
REMARK    2  A    between atoms: O_2  and  C_3
REMARK    3  A    between atoms: C_6  and  C_7
REMARK    4  A    between atoms: C_7  and  O_9
REMARK    5  A    between atoms: O_9  and  C_10
REMARK    6  A    between atoms: N_13  and  C_14
REMARK    7  A    between atoms: C_14  and  C_15
REMARK    8  A    between atoms: C_15  and  O_16
REMARK    9  A    between atoms: C_15  and  C_17
REMARK   10  A    between atoms: C_15  and  C_23
REMARK   11  A    between atoms: C_17  and  N_18
REMARK                            x       y       z     vdW  Elec       q    Type
REMARK                         _______ _______ _______ _____ _____    ______ ____
ROOT
ATOM      1  C   UNL     1       3.428   7.182  18.699  0.00  0.00    +0.000 C 
ENDROOT
BRANCH   1   5
ATOM      2  C   UNL     1       0.250   9.957  19.635  0.00  0.00    +0.000 C 
ATOM      3  C   UNL     1       0.354   8.662  20.434  0.00  0.00    +0.000 C 
ATOM      4  C   UNL     1       1.693   7.953  20.195  0.00  0.00    +0.000 C 
ATOM      5  N   UNL     1       2.018   7.709  18.759  0.00  0.00    +0.000 NA
ATOM      6  C   UNL     1       1.854   8.945  17.991  0.00  0.00    +0.000 C 
ATOM      7  C   UNL     1       0.507   9.635  18.174  0.00  0.00    +0.000 C 
BRANCH   2   8
ATOM      8  O   UNL     1       1.246  10.906  20.063  0.00  0.00    +0.000 OA
BRANCH   8   9
ATOM      9  C   UNL     1       0.824  12.174  20.266  0.00  0.00    +0.000 C 
ATOM     10  O   UNL     1       1.386  13.188  19.882  0.00  0.00    +0.000 OA
BRANCH   9  14
ATOM     11  C   UNL     1      -2.819  12.248  22.563  0.00  0.00    +0.000 A 
ATOM     12  C   UNL     1      -1.650  11.691  23.086  0.00  0.00    +0.000 A 
ATOM     13  C   UNL     1      -0.477  11.673  22.324  0.00  0.00    +0.000 A 
ATOM     14  C   UNL     1      -0.461  12.192  21.023  0.00  0.00    +0.000 A 
ATOM     15  C   UNL     1      -1.646  12.715  20.485  0.00  0.00    +0.000 A 
ATOM     16  C   UNL     1      -2.817  12.738  21.254  0.00  0.00    +0.000 A 
BRANCH  11  18
ATOM     17  C   UNL     1      -4.250  13.480  23.976  0.00  0.00    +0.000 C 
ATOM     18  O   UNL     1      -3.902  12.228  23.394  0.00  0.00    +0.000 OA
ENDBRANCH  11  18
ENDBRANCH   9  14
ENDBRANCH   8   9
ENDBRANCH   2   8
ENDBRANCH   1   5
BRANCH   1  19
ATOM     19  C   UNL     1       3.738   5.636  18.519  0.00  0.00    +0.000 C 
BRANCH  19  20
ATOM     20  C   UNL     1       2.873   4.705  19.406  0.00  0.00    +0.000 A 
ATOM     21  C   UNL     1       3.300   4.387  20.718  0.00  0.00    +0.000 A 
ATOM     22  C   UNL     1       2.517   3.611  21.580  0.00  0.00    +0.000 A 
ATOM     23  C   UNL     1       1.315   3.093  21.129  0.00  0.00    +0.000 A 
ATOM     24  F   UNL     1       0.574   2.332  21.945  0.00  0.00    +0.000 F 
ATOM     25  C   UNL     1       0.874   3.350  19.843  0.00  0.00    +0.000 A 
ATOM     26  C   UNL     1       1.641   4.158  19.003  0.00  0.00    +0.000 A 
ATOM     27  F   UNL     1       1.134   4.394  17.786  0.00  0.00    +0.000 F 
ENDBRANCH  19  20
BRANCH  19  28
ATOM     28  O   UNL     1       3.372   5.310  17.153  0.00  0.00    +0.000 OA
ATOM     29  H   UNL     1       3.740   6.030  16.600  0.00  0.00    +0.000 HD
ENDBRANCH  19  28
BRANCH  19  30
ATOM     30  C   UNL     1       5.229   5.221  18.663  0.00  0.00    +0.000 C 
BRANCH  30  31
ATOM     31  N   UNL     1       6.044   5.304  17.479  0.00  0.00    +0.000 N 
ATOM     32  C   UNL     1       6.905   6.304  17.149  0.00  0.00    +0.000 A 
ATOM     33  N   UNL     1       7.522   5.999  16.032  0.00  0.00    +0.000 NA
ATOM     34  C   UNL     1       7.016   4.768  15.730  0.00  0.00    +0.000 A 
ATOM     35  N   UNL     1       6.126   4.287  16.603  0.00  0.00    +0.000 NA
ENDBRANCH  30  31
ENDBRANCH  19  30
ENDBRANCH   1  19
TORSDOF 10
ENDMDL
