MODEL 1
REMARK VINA RESULT:      -7.9      0.000      0.000
REMARK  Name = 
REMARK  3 active torsions:
REMARK  status: ('A' for Active; 'I' for Inactive)
REMARK    1  A    between atoms: C_1  and  C_2
REMARK    2  A    between atoms: C_5  and  C_6
REMARK    3  A    between atoms: C_6  and  C_7
REMARK                            x       y       z     vdW  Elec       q    Type
REMARK                         _______ _______ _______ _____ _____    ______ ____
ROOT
ATOM      1  C   UNL     1       5.975   5.225  17.084  0.00  0.00    +0.000 C 
ATOM      2  C   UNL     1       7.463   5.166  16.705  0.00  0.00    +0.000 C 
ATOM      3  O   UNL     1       7.673   5.725  15.410  0.00  0.00    +0.000 OA
ATOM      4  C   UNL     1       7.024   4.997  14.456  0.00  0.00    +0.000 A 
ATOM      5  C   UNL     1       7.575   5.038  13.174  0.00  0.00    +0.000 A 
ATOM      6  C   UNL     1       7.020   4.263  12.161  0.00  0.00    +0.000 A 
ATOM      7  C   UNL     1       5.906   3.465  12.426  0.00  0.00    +0.000 A 
ATOM      8  C   UNL     1       5.322   3.460  13.701  0.00  0.00    +0.000 A 
ATOM      9  C   UNL     1       5.880   4.237  14.725  0.00  0.00    +0.000 A 
ATOM     10  C   UNL     1       5.303   4.266  16.103  0.00  0.00    +0.000 C 
ATOM     11  O   UNL     1       4.324   3.583  16.376  0.00  0.00    +0.000 OA
ENDROOT
BRANCH   1  12
ATOM     12  C   UNL     1       5.878   4.866  18.577  0.00  0.00    +0.000 C 
BRANCH  12  17
ATOM     13  C   UNL     1       1.112   2.906  21.327  0.00  0.00    +0.000 C 
ATOM     14  C   UNL     1       2.334   3.440  20.641  0.00  0.00    +0.000 A 
ATOM     15  C   UNL     1       3.388   2.590  20.313  0.00  0.00    +0.000 A 
ATOM     16  C   UNL     1       4.502   3.085  19.633  0.00  0.00    +0.000 A 
ATOM     17  C   UNL     1       4.594   4.435  19.247  0.00  0.00    +0.000 A 
ATOM     18  C   UNL     1       3.558   5.295  19.618  0.00  0.00    +0.000 A 
ATOM     19  C   UNL     1       2.435   4.798  20.304  0.00  0.00    +0.000 A 
ENDBRANCH  12  17
ENDBRANCH   1  12
TORSDOF 2
ENDMDL
MODEL 2
REMARK VINA RESULT:      -7.8      0.701      1.911
REMARK  Name = 
REMARK  3 active torsions:
REMARK  status: ('A' for Active; 'I' for Inactive)
REMARK    1  A    between atoms: C_1  and  C_2
REMARK    2  A    between atoms: C_5  and  C_6
REMARK    3  A    between atoms: C_6  and  C_7
REMARK                            x       y       z     vdW  Elec       q    Type
REMARK                         _______ _______ _______ _____ _____    ______ ____
ROOT
ATOM      1  C   UNL     1       6.014   4.559  17.022  0.00  0.00    +0.000 C 
ATOM      2  C   UNL     1       4.818   4.189  16.131  0.00  0.00    +0.000 C 
ATOM      3  O   UNL     1       5.227   3.314  15.081  0.00  0.00    +0.000 OA
ATOM      4  C   UNL     1       6.121   3.933  14.255  0.00  0.00    +0.000 A 
ATOM      5  C   UNL     1       6.155   3.474  12.937  0.00  0.00    +0.000 A 
ATOM      6  C   UNL     1       6.982   4.101  12.011  0.00  0.00    +0.000 A 
ATOM      7  C   UNL     1       7.785   5.171  12.408  0.00  0.00    +0.000 A 
ATOM      8  C   UNL     1       7.788   5.601  13.742  0.00  0.00    +0.000 A 
ATOM      9  C   UNL     1       6.954   4.974  14.678  0.00  0.00    +0.000 A 
ATOM     10  C   UNL     1       6.912   5.394  16.111  0.00  0.00    +0.000 C 
ATOM     11  O   UNL     1       7.604   6.327  16.501  0.00  0.00    +0.000 OA
ENDROOT
BRANCH   1  12
ATOM     12  C   UNL     1       5.445   5.263  18.265  0.00  0.00    +0.000 C 
BRANCH  12  17
ATOM     13  C   UNL     1       1.467   2.717  21.701  0.00  0.00    +0.000 C 
ATOM     14  C   UNL     1       2.487   3.400  20.841  0.00  0.00    +0.000 A 
ATOM     15  C   UNL     1       3.543   2.677  20.288  0.00  0.00    +0.000 A 
ATOM     16  C   UNL     1       4.462   3.310  19.450  0.00  0.00    +0.000 A 
ATOM     17  C   UNL     1       4.352   4.676  19.127  0.00  0.00    +0.000 A 
ATOM     18  C   UNL     1       3.320   5.408  19.719  0.00  0.00    +0.000 A 
ATOM     19  C   UNL     1       2.393   4.772  20.564  0.00  0.00    +0.000 A 
ENDBRANCH  12  17
ENDBRANCH   1  12
TORSDOF 2
ENDMDL
MODEL 3
REMARK VINA RESULT:      -7.7      0.700      2.202
REMARK  Name = 
REMARK  3 active torsions:
REMARK  status: ('A' for Active; 'I' for Inactive)
REMARK    1  A    between atoms: C_1  and  C_2
REMARK    2  A    between atoms: C_5  and  C_6
REMARK    3  A    between atoms: C_6  and  C_7
REMARK                            x       y       z     vdW  Elec       q    Type
REMARK                         _______ _______ _______ _____ _____    ______ ____
ROOT
ATOM      1  C   UNL     1       6.074   4.507  17.000  0.00  0.00    +0.000 C 
ATOM      2  C   UNL     1       4.881   4.118  16.113  0.00  0.00    +0.000 C 
ATOM      3  O   UNL     1       5.304   3.267  15.050  0.00  0.00    +0.000 OA
ATOM      4  C   UNL     1       6.175   3.917  14.226  0.00  0.00    +0.000 A 
ATOM      5  C   UNL     1       6.211   3.475  12.901  0.00  0.00    +0.000 A 
ATOM      6  C   UNL     1       7.016   4.134  11.978  0.00  0.00    +0.000 A 
ATOM      7  C   UNL     1       7.795   5.219  12.382  0.00  0.00    +0.000 A 
ATOM      8  C   UNL     1       7.796   5.633  13.721  0.00  0.00    +0.000 A 
ATOM      9  C   UNL     1       6.986   4.974  14.655  0.00  0.00    +0.000 A 
ATOM     10  C   UNL     1       6.944   5.376  16.094  0.00  0.00    +0.000 C 
ATOM     11  O   UNL     1       7.615   6.320  16.490  0.00  0.00    +0.000 OA
ENDROOT
BRANCH   1  12
ATOM     12  C   UNL     1       5.497   5.182  18.256  0.00  0.00    +0.000 C 
BRANCH  12  17
ATOM     13  C   UNL     1       1.436   2.848  21.746  0.00  0.00    +0.000 C 
ATOM     14  C   UNL     1       2.478   3.416  20.830  0.00  0.00    +0.000 A 
ATOM     15  C   UNL     1       2.451   4.765  20.481  0.00  0.00    +0.000 A 
ATOM     16  C   UNL     1       3.451   5.297  19.666  0.00  0.00    +0.000 A 
ATOM     17  C   UNL     1       4.513   4.508  19.185  0.00  0.00    +0.000 A 
ATOM     18  C   UNL     1       4.512   3.147  19.498  0.00  0.00    +0.000 A 
ATOM     19  C   UNL     1       3.505   2.609  20.319  0.00  0.00    +0.000 A 
ENDBRANCH  12  17
ENDBRANCH   1  12
TORSDOF 2
ENDMDL
MODEL 4
REMARK VINA RESULT:      -7.7      0.264      1.132
REMARK  Name = 
REMARK  3 active torsions:
REMARK  status: ('A' for Active; 'I' for Inactive)
REMARK    1  A    between atoms: C_1  and  C_2
REMARK    2  A    between atoms: C_5  and  C_6
REMARK    3  A    between atoms: C_6  and  C_7
REMARK                            x       y       z     vdW  Elec       q    Type
REMARK                         _______ _______ _______ _____ _____    ______ ____
ROOT
ATOM      1  C   UNL     1       6.018   5.368  16.976  0.00  0.00    +0.000 C 
ATOM      2  C   UNL     1       7.505   5.295  16.598  0.00  0.00    +0.000 C 
ATOM      3  O   UNL     1       7.714   5.809  15.284  0.00  0.00    +0.000 OA
ATOM      4  C   UNL     1       7.064   5.048  14.357  0.00  0.00    +0.000 A 
ATOM      5  C   UNL     1       7.614   5.044  13.073  0.00  0.00    +0.000 A 
ATOM      6  C   UNL     1       7.057   4.234  12.089  0.00  0.00    +0.000 A 
ATOM      7  C   UNL     1       5.944   3.446  12.382  0.00  0.00    +0.000 A 
ATOM      8  C   UNL     1       5.361   3.486  13.657  0.00  0.00    +0.000 A 
ATOM      9  C   UNL     1       5.920   4.298  14.653  0.00  0.00    +0.000 A 
ATOM     10  C   UNL     1       5.345   4.376  16.030  0.00  0.00    +0.000 C 
ATOM     11  O   UNL     1       4.365   3.703  16.327  0.00  0.00    +0.000 OA
ENDROOT
BRANCH   1  12
ATOM     12  C   UNL     1       5.922   5.062  18.480  0.00  0.00    +0.000 C 
BRANCH  12  17
ATOM     13  C   UNL     1       0.930   3.159  20.842  0.00  0.00    +0.000 C 
ATOM     14  C   UNL     1       2.215   3.615  20.218  0.00  0.00    +0.000 A 
ATOM     15  C   UNL     1       2.372   4.940  19.813  0.00  0.00    +0.000 A 
ATOM     16  C   UNL     1       3.587   5.369  19.276  0.00  0.00    +0.000 A 
ATOM     17  C   UNL     1       4.684   4.498  19.137  0.00  0.00    +0.000 A 
ATOM     18  C   UNL     1       4.509   3.161  19.500  0.00  0.00    +0.000 A 
ATOM     19  C   UNL     1       3.285   2.727  20.041  0.00  0.00    +0.000 A 
ENDBRANCH  12  17
ENDBRANCH   1  12
TORSDOF 2
ENDMDL
MODEL 5
REMARK VINA RESULT:      -7.5      1.549      6.593
REMARK  Name = 
REMARK  3 active torsions:
REMARK  status: ('A' for Active; 'I' for Inactive)
REMARK    1  A    between atoms: C_1  and  C_2
REMARK    2  A    between atoms: C_5  and  C_6
REMARK    3  A    between atoms: C_6  and  C_7
REMARK                            x       y       z     vdW  Elec       q    Type
REMARK                         _______ _______ _______ _____ _____    ______ ____
ROOT
ATOM      1  C   UNL     1       5.054   5.867  18.704  0.00  0.00    +0.000 C 
ATOM      2  C   UNL     1       3.665   6.228  18.153  0.00  0.00    +0.000 C 
ATOM      3  O   UNL     1       2.701   6.259  19.203  0.00  0.00    +0.000 OA
ATOM      4  C   UNL     1       2.560   5.025  19.768  0.00  0.00    +0.000 A 
ATOM      5  C   UNL     1       1.320   4.756  20.351  0.00  0.00    +0.000 A 
ATOM      6  C   UNL     1       1.067   3.495  20.881  0.00  0.00    +0.000 A 
ATOM      7  C   UNL     1       2.058   2.513  20.844  0.00  0.00    +0.000 A 
ATOM      8  C   UNL     1       3.320   2.797  20.303  0.00  0.00    +0.000 A 
ATOM      9  C   UNL     1       3.579   4.065  19.766  0.00  0.00    +0.000 A 
ATOM     10  C   UNL     1       4.903   4.421  19.172  0.00  0.00    +0.000 C 
ATOM     11  O   UNL     1       5.801   3.589  19.125  0.00  0.00    +0.000 OA
ENDROOT
BRANCH   1  12
ATOM     12  C   UNL     1       6.065   6.125  17.575  0.00  0.00    +0.000 C 
BRANCH  12  17
ATOM     13  C   UNL     1       6.269   3.396  12.414  0.00  0.00    +0.000 C 
ATOM     14  C   UNL     1       6.200   4.067  13.753  0.00  0.00    +0.000 A 
ATOM     15  C   UNL     1       7.255   4.860  14.202  0.00  0.00    +0.000 A 
ATOM     16  C   UNL     1       7.164   5.520  15.428  0.00  0.00    +0.000 A 
ATOM     17  C   UNL     1       6.018   5.421  16.239  0.00  0.00    +0.000 A 
ATOM     18  C   UNL     1       4.981   4.589  15.809  0.00  0.00    +0.000 A 
ATOM     19  C   UNL     1       5.072   3.923  14.573  0.00  0.00    +0.000 A 
ENDBRANCH  12  17
ENDBRANCH   1  12
TORSDOF 2
ENDMDL
MODEL 6
REMARK VINA RESULT:      -7.4      1.700      6.979
REMARK  Name = 
REMARK  3 active torsions:
REMARK  status: ('A' for Active; 'I' for Inactive)
REMARK    1  A    between atoms: C_1  and  C_2
REMARK    2  A    between atoms: C_5  and  C_6
REMARK    3  A    between atoms: C_6  and  C_7
REMARK                            x       y       z     vdW  Elec       q    Type
REMARK                         _______ _______ _______ _____ _____    ______ ____
ROOT
ATOM      1  C   UNL     1       4.743   3.977  17.816  0.00  0.00    +0.000 C 
ATOM      2  C   UNL     1       5.356   3.990  19.225  0.00  0.00    +0.000 C 
ATOM      3  O   UNL     1       4.854   2.903  20.000  0.00  0.00    +0.000 OA
ATOM      4  C   UNL     1       3.507   3.021  20.186  0.00  0.00    +0.000 A 
ATOM      5  C   UNL     1       2.994   2.425  21.340  0.00  0.00    +0.000 A 
ATOM      6  C   UNL     1       1.644   2.565  21.644  0.00  0.00    +0.000 A 
ATOM      7  C   UNL     1       0.808   3.282  20.788  0.00  0.00    +0.000 A 
ATOM      8  C   UNL     1       1.312   3.840  19.604  0.00  0.00    +0.000 A 
ATOM      9  C   UNL     1       2.672   3.704  19.295  0.00  0.00    +0.000 A 
ATOM     10  C   UNL     1       3.265   4.282  18.051  0.00  0.00    +0.000 C 
ATOM     11  O   UNL     1       2.564   4.915  17.271  0.00  0.00    +0.000 OA
ENDROOT
BRANCH   1  12
ATOM     12  C   UNL     1       5.532   4.994  16.975  0.00  0.00    +0.000 C 
BRANCH  12  17
ATOM     13  C   UNL     1       7.124   3.834  11.476  0.00  0.00    +0.000 C 
ATOM     14  C   UNL     1       6.728   4.166  12.883  0.00  0.00    +0.000 A 
ATOM     15  C   UNL     1       5.533   3.685  13.414  0.00  0.00    +0.000 A 
ATOM     16  C   UNL     1       5.194   3.958  14.740  0.00  0.00    +0.000 A 
ATOM     17  C   UNL     1       6.039   4.706  15.580  0.00  0.00    +0.000 A 
ATOM     18  C   UNL     1       7.214   5.227  15.033  0.00  0.00    +0.000 A 
ATOM     19  C   UNL     1       7.557   4.952  13.697  0.00  0.00    +0.000 A 
ENDBRANCH  12  17
ENDBRANCH   1  12
TORSDOF 2
ENDMDL
MODEL 7
REMARK VINA RESULT:      -7.4      2.656      6.572
REMARK  Name = 
REMARK  3 active torsions:
REMARK  status: ('A' for Active; 'I' for Inactive)
REMARK    1  A    between atoms: C_1  and  C_2
REMARK    2  A    between atoms: C_5  and  C_6
REMARK    3  A    between atoms: C_6  and  C_7
REMARK                            x       y       z     vdW  Elec       q    Type
REMARK                         _______ _______ _______ _____ _____    ______ ____
ROOT
ATOM      1  C   UNL     1       4.276   3.242  17.519  0.00  0.00    +0.000 C 
ATOM      2  C   UNL     1       4.991   3.564  18.840  0.00  0.00    +0.000 C 
ATOM      3  O   UNL     1       4.612   2.636  19.854  0.00  0.00    +0.000 OA
ATOM      4  C   UNL     1       3.279   2.735  20.127  0.00  0.00    +0.000 A 
ATOM      5  C   UNL     1       2.888   2.363  21.415  0.00  0.00    +0.000 A 
ATOM      6  C   UNL     1       1.559   2.506  21.800  0.00  0.00    +0.000 A 
ATOM      7  C   UNL     1       0.622   3.002  20.893  0.00  0.00    +0.000 A 
ATOM      8  C   UNL     1       1.003   3.329  19.584  0.00  0.00    +0.000 A 
ATOM      9  C   UNL     1       2.341   3.189  19.193  0.00  0.00    +0.000 A 
ATOM     10  C   UNL     1       2.805   3.528  17.813  0.00  0.00    +0.000 C 
ATOM     11  O   UNL     1       2.013   3.962  16.986  0.00  0.00    +0.000 OA
ENDROOT
BRANCH   1  12
ATOM     12  C   UNL     1       4.941   4.100  16.429  0.00  0.00    +0.000 C 
BRANCH  12  17
ATOM     13  C   UNL     1       7.940   8.942  17.725  0.00  0.00    +0.000 C 
ATOM     14  C   UNL     1       7.191   7.681  17.417  0.00  0.00    +0.000 A 
ATOM     15  C   UNL     1       5.821   7.718  17.161  0.00  0.00    +0.000 A 
ATOM     16  C   UNL     1       5.139   6.547  16.829  0.00  0.00    +0.000 A 
ATOM     17  C   UNL     1       5.799   5.308  16.729  0.00  0.00    +0.000 A 
ATOM     18  C   UNL     1       7.162   5.266  17.032  0.00  0.00    +0.000 A 
ATOM     19  C   UNL     1       7.851   6.445  17.367  0.00  0.00    +0.000 A 
ENDBRANCH  12  17
ENDBRANCH   1  12
TORSDOF 2
ENDMDL
MODEL 8
REMARK VINA RESULT:      -7.3      4.747      8.451
REMARK  Name = 
REMARK  3 active torsions:
REMARK  status: ('A' for Active; 'I' for Inactive)
REMARK    1  A    between atoms: C_1  and  C_2
REMARK    2  A    between atoms: C_5  and  C_6
REMARK    3  A    between atoms: C_6  and  C_7
REMARK                            x       y       z     vdW  Elec       q    Type
REMARK                         _______ _______ _______ _____ _____    ______ ____
ROOT
ATOM      1  C   UNL     1       2.076   8.520  19.157  0.00  0.00    +0.000 C 
ATOM      2  C   UNL     1       1.100   9.504  18.492  0.00  0.00    +0.000 C 
ATOM      3  O   UNL     1       1.025  10.717  19.237  0.00  0.00    +0.000 OA
ATOM      4  C   UNL     1       0.521  10.489  20.484  0.00  0.00    +0.000 A 
ATOM      5  C   UNL     1      -0.141  11.563  21.083  0.00  0.00    +0.000 A 
ATOM      6  C   UNL     1      -0.751  11.392  22.321  0.00  0.00    +0.000 A 
ATOM      7  C   UNL     1      -0.684  10.157  22.965  0.00  0.00    +0.000 A 
ATOM      8  C   UNL     1       0.022   9.092  22.388  0.00  0.00    +0.000 A 
ATOM      9  C   UNL     1       0.636   9.258  21.140  0.00  0.00    +0.000 A 
ATOM     10  C   UNL     1       1.396   8.157  20.475  0.00  0.00    +0.000 C 
ATOM     11  O   UNL     1       1.482   7.058  21.010  0.00  0.00    +0.000 OA
ENDROOT
BRANCH   1  12
ATOM     12  C   UNL     1       2.306   7.373  18.159  0.00  0.00    +0.000 C 
BRANCH  12  17
ATOM     13  C   UNL     1       7.452   4.655  17.653  0.00  0.00    +0.000 C 
ATOM     14  C   UNL     1       6.134   5.352  17.819  0.00  0.00    +0.000 A 
ATOM     15  C   UNL     1       5.759   6.371  16.946  0.00  0.00    +0.000 A 
ATOM     16  C   UNL     1       4.511   6.982  17.078  0.00  0.00    +0.000 A 
ATOM     17  C   UNL     1       3.596   6.591  18.073  0.00  0.00    +0.000 A 
ATOM     18  C   UNL     1       3.993   5.602  18.976  0.00  0.00    +0.000 A 
ATOM     19  C   UNL     1       5.250   4.985  18.844  0.00  0.00    +0.000 A 
ENDBRANCH  12  17
ENDBRANCH   1  12
TORSDOF 2
ENDMDL
MODEL 9
REMARK VINA RESULT:      -7.3      1.561      6.585
REMARK  Name = 
REMARK  3 active torsions:
REMARK  status: ('A' for Active; 'I' for Inactive)
REMARK    1  A    between atoms: C_1  and  C_2
REMARK    2  A    between atoms: C_5  and  C_6
REMARK    3  A    between atoms: C_6  and  C_7
REMARK                            x       y       z     vdW  Elec       q    Type
REMARK                         _______ _______ _______ _____ _____    ______ ____
ROOT
ATOM      1  C   UNL     1       4.847   6.035  18.752  0.00  0.00    +0.000 C 
ATOM      2  C   UNL     1       3.432   6.281  18.207  0.00  0.00    +0.000 C 
ATOM      3  O   UNL     1       2.470   6.197  19.257  0.00  0.00    +0.000 OA
ATOM      4  C   UNL     1       2.443   4.941  19.790  0.00  0.00    +0.000 A 
ATOM      5  C   UNL     1       1.233   4.545  20.364  0.00  0.00    +0.000 A 
ATOM      6  C   UNL     1       1.098   3.253  20.862  0.00  0.00    +0.000 A 
ATOM      7  C   UNL     1       2.174   2.368  20.803  0.00  0.00    +0.000 A 
ATOM      8  C   UNL     1       3.405   2.780  20.271  0.00  0.00    +0.000 A 
ATOM      9  C   UNL     1       3.545   4.079  19.766  0.00  0.00    +0.000 A 
ATOM     10  C   UNL     1       4.830   4.570  19.184  0.00  0.00    +0.000 C 
ATOM     11  O   UNL     1       5.801   3.826  19.116  0.00  0.00    +0.000 OA
ENDROOT
BRANCH   1  12
ATOM     12  C   UNL     1       5.830   6.414  17.631  0.00  0.00    +0.000 C 
BRANCH  12  17
ATOM     13  C   UNL     1       6.208   3.357  12.668  0.00  0.00    +0.000 C 
ATOM     14  C   UNL     1       6.139   4.162  13.931  0.00  0.00    +0.000 A 
ATOM     15  C   UNL     1       4.907   4.489  14.494  0.00  0.00    +0.000 A 
ATOM     16  C   UNL     1       4.852   5.198  15.695  0.00  0.00    +0.000 A 
ATOM     17  C   UNL     1       6.018   5.592  16.377  0.00  0.00    +0.000 A 
ATOM     18  C   UNL     1       7.251   5.303  15.786  0.00  0.00    +0.000 A 
ATOM     19  C   UNL     1       7.308   4.589  14.576  0.00  0.00    +0.000 A 
ENDBRANCH  12  17
ENDBRANCH   1  12
TORSDOF 2
ENDMDL
