MODEL 1
REMARK VINA RESULT:      -9.5      0.000      0.000
REMARK  Name = 
REMARK  6 active torsions:
REMARK  status: ('A' for Active; 'I' for Inactive)
REMARK    1  A    between atoms: N_1  and  S_2
REMARK    2  A    between atoms: S_2  and  C_5
REMARK    3  A    between atoms: C_9  and  N_10
REMARK    4  A    between atoms: N_10  and  C_11
REMARK    5  A    between atoms: C_11  and  N_13
REMARK    6  A    between atoms: C_14  and  C_16
REMARK                            x       y       z     vdW  Elec       q    Type
REMARK                         _______ _______ _______ _____ _____    ______ ____
ROOT
ATOM      1  C   UNL     1       3.234   4.449  19.460  0.00  0.00    +0.000 C 
ATOM      2  S   UNL     1       2.602   3.018  20.048  0.00  0.00    +0.000 S 
ENDROOT
BRANCH   1   3
ATOM      3  N   UNL     1       3.995   4.399  18.299  0.00  0.00    +0.000 N 
ATOM      4  C   UNL     1       5.359   4.576  18.216  0.00  0.00    +0.000 C 
ATOM      5  O   UNL     1       6.082   4.486  19.213  0.00  0.00    +0.000 OA
ATOM      6  H   UNL     1       3.457   4.320  17.438  0.00  0.00    +0.000 HD
BRANCH   4   7
ATOM      7  C   UNL     1       5.955   4.858  16.881  0.00  0.00    +0.000 A 
ATOM      8  C   UNL     1       5.461   4.102  15.887  0.00  0.00    +0.000 A 
ATOM      9  C   UNL     1       5.987   4.189  14.546  0.00  0.00    +0.000 A 
ATOM     10  C   UNL     1       5.412   3.466  13.500  0.00  0.00    +0.000 A 
ATOM     11  C   UNL     1       5.994   3.503  12.235  0.00  0.00    +0.000 A 
ATOM     12  C   UNL     1       7.159   4.244  12.022  0.00  0.00    +0.000 A 
ATOM     13  C   UNL     1       7.724   4.985  13.065  0.00  0.00    +0.000 A 
ATOM     14  C   UNL     1       7.114   4.966  14.316  0.00  0.00    +0.000 A 
ATOM     15  O   UNL     1       7.639   5.770  15.351  0.00  0.00    +0.000 OA
ATOM     16  C   UNL     1       7.028   5.832  16.609  0.00  0.00    +0.000 A 
ATOM     17  O   UNL     1       7.380   6.641  17.463  0.00  0.00    +0.000 OA
ENDBRANCH   4   7
ENDBRANCH   1   3
BRANCH   1  18
ATOM     18  N   UNL     1       3.115   5.703  20.024  0.00  0.00    +0.000 N 
ATOM     19  H   UNL     1       3.466   5.760  20.982  0.00  0.00    +0.000 HD
BRANCH  18  24
ATOM     20  C   UNL     1       1.249   8.883  19.963  0.00  0.00    +0.000 A 
ATOM     21  C   UNL     1       1.417   9.309  18.647  0.00  0.00    +0.000 A 
ATOM     22  C   UNL     1       2.159   8.521  17.770  0.00  0.00    +0.000 A 
ATOM     23  C   UNL     1       2.700   7.304  18.204  0.00  0.00    +0.000 A 
ATOM     24  C   UNL     1       2.537   6.883  19.524  0.00  0.00    +0.000 A 
ATOM     25  C   UNL     1       1.850   7.704  20.422  0.00  0.00    +0.000 A 
BRANCH  20  26
ATOM     26  S   UNL     1       0.240   9.818  21.072  0.00  0.00    +0.000 S 
ATOM     27  O   UNL     1      -0.757  10.546  20.318  0.00  0.00    +0.000 OA
ATOM     28  O   UNL     1       1.077  10.453  22.061  0.00  0.00    +0.000 OA
BRANCH  26  29
ATOM     29  N   UNL     1      -0.580   8.591  21.874  0.00  0.00    +0.000 NA
ATOM     30  H   UNL     1       0.046   7.808  22.064  0.00  0.00    +0.000 HD
ATOM     31  H   UNL     1      -1.433   8.339  21.378  0.00  0.00    +0.000 HD
ENDBRANCH  26  29
ENDBRANCH  20  26
ENDBRANCH  18  24
ENDBRANCH   1  18
TORSDOF 6
ENDMDL
MODEL 2
REMARK VINA RESULT:      -9.2      0.862      1.092
REMARK  Name = 
REMARK  6 active torsions:
REMARK  status: ('A' for Active; 'I' for Inactive)
REMARK    1  A    between atoms: N_1  and  S_2
REMARK    2  A    between atoms: S_2  and  C_5
REMARK    3  A    between atoms: C_9  and  N_10
REMARK    4  A    between atoms: N_10  and  C_11
REMARK    5  A    between atoms: C_11  and  N_13
REMARK    6  A    between atoms: C_14  and  C_16
REMARK                            x       y       z     vdW  Elec       q    Type
REMARK                         _______ _______ _______ _____ _____    ______ ____
ROOT
ATOM      1  C   UNL     1       2.970   4.948  19.469  0.00  0.00    +0.000 C 
ATOM      2  S   UNL     1       2.279   3.562  20.100  0.00  0.00    +0.000 S 
ENDROOT
BRANCH   1   3
ATOM      3  N   UNL     1       3.706   4.835  18.296  0.00  0.00    +0.000 N 
ATOM      4  C   UNL     1       5.064   4.624  18.211  0.00  0.00    +0.000 C 
ATOM      5  O   UNL     1       5.713   4.201  19.172  0.00  0.00    +0.000 OA
ATOM      6  H   UNL     1       3.184   5.028  17.444  0.00  0.00    +0.000 HD
BRANCH   4   7
ATOM      7  C   UNL     1       5.741   4.897  16.913  0.00  0.00    +0.000 A 
ATOM      8  C   UNL     1       5.287   4.157  15.889  0.00  0.00    +0.000 A 
ATOM      9  C   UNL     1       5.889   4.236  14.580  0.00  0.00    +0.000 A 
ATOM     10  C   UNL     1       5.357   3.531  13.499  0.00  0.00    +0.000 A 
ATOM     11  C   UNL     1       6.010   3.559  12.269  0.00  0.00    +0.000 A 
ATOM     12  C   UNL     1       7.203   4.274  12.126  0.00  0.00    +0.000 A 
ATOM     13  C   UNL     1       7.725   4.998  13.204  0.00  0.00    +0.000 A 
ATOM     14  C   UNL     1       7.045   4.988  14.417  0.00  0.00    +0.000 A 
ATOM     15  O   UNL     1       7.529   5.775  15.485  0.00  0.00    +0.000 OA
ATOM     16  C   UNL     1       6.850   5.846  16.707  0.00  0.00    +0.000 A 
ATOM     17  O   UNL     1       7.172   6.644  17.583  0.00  0.00    +0.000 OA
ENDBRANCH   4   7
ENDBRANCH   1   3
BRANCH   1  18
ATOM     18  N   UNL     1       2.923   6.217  20.008  0.00  0.00    +0.000 N 
ATOM     19  H   UNL     1       3.386   6.298  20.915  0.00  0.00    +0.000 HD
BRANCH  18  24
ATOM     20  C   UNL     1       1.123   9.435  20.084  0.00  0.00    +0.000 A 
ATOM     21  C   UNL     1       1.089   9.796  18.738  0.00  0.00    +0.000 A 
ATOM     22  C   UNL     1       1.670   8.951  17.797  0.00  0.00    +0.000 A 
ATOM     23  C   UNL     1       2.252   7.743  18.199  0.00  0.00    +0.000 A 
ATOM     24  C   UNL     1       2.293   7.387  19.547  0.00  0.00    +0.000 A 
ATOM     25  C   UNL     1       1.769   8.264  20.500  0.00  0.00    +0.000 A 
BRANCH  20  26
ATOM     26  S   UNL     1       0.316  10.443  21.290  0.00  0.00    +0.000 S 
ATOM     27  O   UNL     1       0.560   9.901  22.610  0.00  0.00    +0.000 OA
ATOM     28  O   UNL     1      -1.009  10.778  20.826  0.00  0.00    +0.000 OA
BRANCH  26  29
ATOM     29  N   UNL     1       1.218  11.855  21.187  0.00  0.00    +0.000 NA
ATOM     30  H   UNL     1       0.688  12.583  20.707  0.00  0.00    +0.000 HD
ATOM     31  H   UNL     1       2.138  11.671  20.789  0.00  0.00    +0.000 HD
ENDBRANCH  26  29
ENDBRANCH  20  26
ENDBRANCH  18  24
ENDBRANCH   1  18
TORSDOF 6
ENDMDL
MODEL 3
REMARK VINA RESULT:      -8.6      2.530      7.939
REMARK  Name = 
REMARK  6 active torsions:
REMARK  status: ('A' for Active; 'I' for Inactive)
REMARK    1  A    between atoms: N_1  and  S_2
REMARK    2  A    between atoms: S_2  and  C_5
REMARK    3  A    between atoms: C_9  and  N_10
REMARK    4  A    between atoms: N_10  and  C_11
REMARK    5  A    between atoms: C_11  and  N_13
REMARK    6  A    between atoms: C_14  and  C_16
REMARK                            x       y       z     vdW  Elec       q    Type
REMARK                         _______ _______ _______ _____ _____    ______ ____
ROOT
ATOM      1  C   UNL     1       2.392   4.079  17.857  0.00  0.00    +0.000 C 
ATOM      2  S   UNL     1       1.603   3.003  18.864  0.00  0.00    +0.000 S 
ENDROOT
BRANCH   1   3
ATOM      3  N   UNL     1       2.202   5.438  18.076  0.00  0.00    +0.000 N 
ATOM      4  C   UNL     1       2.654   6.153  19.164  0.00  0.00    +0.000 C 
ATOM      5  O   UNL     1       3.545   5.714  19.898  0.00  0.00    +0.000 OA
ATOM      6  H   UNL     1       1.588   5.898  17.408  0.00  0.00    +0.000 HD
BRANCH   4   7
ATOM      7  C   UNL     1       2.058   7.492  19.427  0.00  0.00    +0.000 A 
ATOM      8  C   UNL     1       1.588   7.649  20.674  0.00  0.00    +0.000 A 
ATOM      9  C   UNL     1       0.903   8.855  21.072  0.00  0.00    +0.000 A 
ATOM     10  C   UNL     1       0.495   9.049  22.393  0.00  0.00    +0.000 A 
ATOM     11  C   UNL     1      -0.238  10.185  22.728  0.00  0.00    +0.000 A 
ATOM     12  C   UNL     1      -0.580  11.114  21.741  0.00  0.00    +0.000 A 
ATOM     13  C   UNL     1      -0.153  10.931  20.421  0.00  0.00    +0.000 A 
ATOM     14  C   UNL     1       0.607   9.809  20.107  0.00  0.00    +0.000 A 
ATOM     15  O   UNL     1       1.101   9.657  18.793  0.00  0.00    +0.000 OA
ATOM     16  C   UNL     1       1.919   8.578  18.439  0.00  0.00    +0.000 A 
ATOM     17  O   UNL     1       2.481   8.517  17.349  0.00  0.00    +0.000 OA
ENDBRANCH   4   7
ENDBRANCH   1   3
BRANCH   1  18
ATOM     18  N   UNL     1       3.202   3.770  16.784  0.00  0.00    +0.000 N 
ATOM     19  H   UNL     1       2.797   3.083  16.144  0.00  0.00    +0.000 HD
BRANCH  18  24
ATOM     20  C   UNL     1       6.676   4.917  17.251  0.00  0.00    +0.000 A 
ATOM     21  C   UNL     1       7.160   4.960  15.945  0.00  0.00    +0.000 A 
ATOM     22  C   UNL     1       6.313   4.606  14.898  0.00  0.00    +0.000 A 
ATOM     23  C   UNL     1       4.986   4.242  15.158  0.00  0.00    +0.000 A 
ATOM     24  C   UNL     1       4.505   4.192  16.467  0.00  0.00    +0.000 A 
ATOM     25  C   UNL     1       5.373   4.482  17.523  0.00  0.00    +0.000 A 
BRANCH  20  26
ATOM     26  S   UNL     1       7.699   5.445  18.591  0.00  0.00    +0.000 S 
ATOM     27  O   UNL     1       8.003   6.851  18.439  0.00  0.00    +0.000 OA
ATOM     28  O   UNL     1       8.722   4.455  18.831  0.00  0.00    +0.000 OA
BRANCH  26  29
ATOM     29  N   UNL     1       6.628   5.332  19.879  0.00  0.00    +0.000 NA
ATOM     30  H   UNL     1       6.766   6.108  20.528  0.00  0.00    +0.000 HD
ATOM     31  H   UNL     1       6.672   4.409  20.310  0.00  0.00    +0.000 HD
ENDBRANCH  26  29
ENDBRANCH  20  26
ENDBRANCH  18  24
ENDBRANCH   1  18
TORSDOF 6
ENDMDL
MODEL 4
REMARK VINA RESULT:      -8.5      1.590      2.064
REMARK  Name = 
REMARK  6 active torsions:
REMARK  status: ('A' for Active; 'I' for Inactive)
REMARK    1  A    between atoms: N_1  and  S_2
REMARK    2  A    between atoms: S_2  and  C_5
REMARK    3  A    between atoms: C_9  and  N_10
REMARK    4  A    between atoms: N_10  and  C_11
REMARK    5  A    between atoms: C_11  and  N_13
REMARK    6  A    between atoms: C_14  and  C_16
REMARK                            x       y       z     vdW  Elec       q    Type
REMARK                         _______ _______ _______ _____ _____    ______ ____
ROOT
ATOM      1  C   UNL     1       2.514   5.303  19.080  0.00  0.00    +0.000 C 
ATOM      2  S   UNL     1       1.394   4.115  19.441  0.00  0.00    +0.000 S 
ENDROOT
BRANCH   1   3
ATOM      3  N   UNL     1       3.332   5.115  17.973  0.00  0.00    +0.000 N 
ATOM      4  C   UNL     1       4.686   4.861  18.001  0.00  0.00    +0.000 C 
ATOM      5  O   UNL     1       5.246   4.464  19.026  0.00  0.00    +0.000 OA
ATOM      6  H   UNL     1       2.883   5.283  17.076  0.00  0.00    +0.000 HD
BRANCH   4   7
ATOM      7  C   UNL     1       5.466   5.054  16.747  0.00  0.00    +0.000 A 
ATOM      8  C   UNL     1       5.055   4.294  15.720  0.00  0.00    +0.000 A 
ATOM      9  C   UNL     1       5.754   4.296  14.458  0.00  0.00    +0.000 A 
ATOM     10  C   UNL     1       5.271   3.571  13.367  0.00  0.00    +0.000 A 
ATOM     11  C   UNL     1       6.012   3.524  12.188  0.00  0.00    +0.000 A 
ATOM     12  C   UNL     1       7.243   4.183  12.108  0.00  0.00    +0.000 A 
ATOM     13  C   UNL     1       7.717   4.926  13.194  0.00  0.00    +0.000 A 
ATOM     14  C   UNL     1       6.951   4.992  14.354  0.00  0.00    +0.000 A 
ATOM     15  O   UNL     1       7.390   5.800  15.425  0.00  0.00    +0.000 OA
ATOM     16  C   UNL     1       6.628   5.948  16.590  0.00  0.00    +0.000 A 
ATOM     17  O   UNL     1       6.920   6.765  17.458  0.00  0.00    +0.000 OA
ENDBRANCH   4   7
ENDBRANCH   1   3
BRANCH   1  18
ATOM     18  N   UNL     1       2.752   6.461  19.790  0.00  0.00    +0.000 N 
ATOM     19  H   UNL     1       3.720   6.564  20.102  0.00  0.00    +0.000 HD
BRANCH  18  24
ATOM     20  C   UNL     1       0.815   9.599  19.720  0.00  0.00    +0.000 A 
ATOM     21  C   UNL     1       0.077   9.527  20.901  0.00  0.00    +0.000 A 
ATOM     22  C   UNL     1       0.235   8.419  21.730  0.00  0.00    +0.000 A 
ATOM     23  C   UNL     1       1.145   7.410  21.392  0.00  0.00    +0.000 A 
ATOM     24  C   UNL     1       1.876   7.480  20.206  0.00  0.00    +0.000 A 
ATOM     25  C   UNL     1       1.670   8.557  19.340  0.00  0.00    +0.000 A 
BRANCH  20  26
ATOM     26  S   UNL     1       0.702  11.032  18.694  0.00  0.00    +0.000 S 
ATOM     27  O   UNL     1       1.067  12.203  19.461  0.00  0.00    +0.000 OA
ATOM     28  O   UNL     1      -0.510  10.967  17.912  0.00  0.00    +0.000 OA
BRANCH  26  29
ATOM     29  N   UNL     1       1.965  10.761  17.621  0.00  0.00    +0.000 NA
ATOM     30  H   UNL     1       2.712  11.440  17.769  0.00  0.00    +0.000 HD
ATOM     31  H   UNL     1       1.623  10.712  16.662  0.00  0.00    +0.000 HD
ENDBRANCH  26  29
ENDBRANCH  20  26
ENDBRANCH  18  24
ENDBRANCH   1  18
TORSDOF 6
ENDMDL
MODEL 5
REMARK VINA RESULT:      -8.3      3.059      7.921
REMARK  Name = 
REMARK  6 active torsions:
REMARK  status: ('A' for Active; 'I' for Inactive)
REMARK    1  A    between atoms: N_1  and  S_2
REMARK    2  A    between atoms: S_2  and  C_5
REMARK    3  A    between atoms: C_9  and  N_10
REMARK    4  A    between atoms: N_10  and  C_11
REMARK    5  A    between atoms: C_11  and  N_13
REMARK    6  A    between atoms: C_14  and  C_16
REMARK                            x       y       z     vdW  Elec       q    Type
REMARK                         _______ _______ _______ _____ _____    ______ ____
ROOT
ATOM      1  C   UNL     1       3.798   3.722  19.646  0.00  0.00    +0.000 C 
ATOM      2  S   UNL     1       2.914   2.320  19.423  0.00  0.00    +0.000 S 
ENDROOT
BRANCH   1   3
ATOM      3  N   UNL     1       3.103   4.909  19.839  0.00  0.00    +0.000 N 
ATOM      4  C   UNL     1       2.536   5.685  18.851  0.00  0.00    +0.000 C 
ATOM      5  O   UNL     1       2.321   5.234  17.722  0.00  0.00    +0.000 OA
ATOM      6  H   UNL     1       3.116   5.262  20.793  0.00  0.00    +0.000 HD
BRANCH   4   7
ATOM      7  C   UNL     1       2.162   7.087  19.183  0.00  0.00    +0.000 A 
ATOM      8  C   UNL     1       1.619   7.239  20.401  0.00  0.00    +0.000 A 
ATOM      9  C   UNL     1       1.124   8.518  20.849  0.00  0.00    +0.000 A 
ATOM     10  C   UNL     1       0.642   8.689  22.148  0.00  0.00    +0.000 A 
ATOM     11  C   UNL     1       0.091   9.912  22.523  0.00  0.00    +0.000 A 
ATOM     12  C   UNL     1       0.004  10.955  21.596  0.00  0.00    +0.000 A 
ATOM     13  C   UNL     1       0.506  10.790  20.301  0.00  0.00    +0.000 A 
ATOM     14  C   UNL     1       1.083   9.575  19.949  0.00  0.00    +0.000 A 
ATOM     15  O   UNL     1       1.656   9.429  18.666  0.00  0.00    +0.000 OA
ATOM     16  C   UNL     1       2.301   8.248  18.284  0.00  0.00    +0.000 A 
ATOM     17  O   UNL     1       2.937   8.164  17.236  0.00  0.00    +0.000 OA
ENDBRANCH   4   7
ENDBRANCH   1   3
BRANCH   1  18
ATOM     18  N   UNL     1       5.172   3.848  19.627  0.00  0.00    +0.000 N 
ATOM     19  H   UNL     1       5.649   3.284  20.334  0.00  0.00    +0.000 HD
BRANCH  18  24
ATOM     20  C   UNL     1       6.668   5.415  16.642  0.00  0.00    +0.000 A 
ATOM     21  C   UNL     1       7.569   6.323  17.195  0.00  0.00    +0.000 A 
ATOM     22  C   UNL     1       7.680   6.407  18.581  0.00  0.00    +0.000 A 
ATOM     23  C   UNL     1       6.916   5.567  19.400  0.00  0.00    +0.000 A 
ATOM     24  C   UNL     1       6.008   4.665  18.846  0.00  0.00    +0.000 A 
ATOM     25  C   UNL     1       5.848   4.625  17.458  0.00  0.00    +0.000 A 
BRANCH  20  26
ATOM     26  S   UNL     1       6.570   5.223  14.888  0.00  0.00    +0.000 S 
ATOM     27  O   UNL     1       7.879   5.433  14.308  0.00  0.00    +0.000 OA
ATOM     28  O   UNL     1       5.390   5.895  14.399  0.00  0.00    +0.000 OA
BRANCH  26  29
ATOM     29  N   UNL     1       6.257   3.578  14.760  0.00  0.00    +0.000 NA
ATOM     30  H   UNL     1       6.015   3.189  15.672  0.00  0.00    +0.000 HD
ATOM     31  H   UNL     1       7.020   3.098  14.285  0.00  0.00    +0.000 HD
ENDBRANCH  26  29
ENDBRANCH  20  26
ENDBRANCH  18  24
ENDBRANCH   1  18
TORSDOF 6
ENDMDL
MODEL 6
REMARK VINA RESULT:      -8.2      3.696      5.666
REMARK  Name = 
REMARK  6 active torsions:
REMARK  status: ('A' for Active; 'I' for Inactive)
REMARK    1  A    between atoms: N_1  and  S_2
REMARK    2  A    between atoms: S_2  and  C_5
REMARK    3  A    between atoms: C_9  and  N_10
REMARK    4  A    between atoms: N_10  and  C_11
REMARK    5  A    between atoms: C_11  and  N_13
REMARK    6  A    between atoms: C_14  and  C_16
REMARK                            x       y       z     vdW  Elec       q    Type
REMARK                         _______ _______ _______ _____ _____    ______ ____
ROOT
ATOM      1  C   UNL     1       0.292   9.993  19.969  0.00  0.00    +0.000 C 
ATOM      2  S   UNL     1      -0.162  10.291  21.550  0.00  0.00    +0.000 S 
ENDROOT
BRANCH   1   3
ATOM      3  N   UNL     1       1.281   9.044  19.741  0.00  0.00    +0.000 N 
ATOM      4  C   UNL     1       1.906   8.798  18.539  0.00  0.00    +0.000 C 
ATOM      5  O   UNL     1       1.870   9.616  17.614  0.00  0.00    +0.000 OA
ATOM      6  H   UNL     1       1.468   8.424  20.527  0.00  0.00    +0.000 HD
BRANCH   4   7
ATOM      7  C   UNL     1       2.657   7.522  18.380  0.00  0.00    +0.000 A 
ATOM      8  C   UNL     1       3.500   7.505  17.336  0.00  0.00    +0.000 A 
ATOM      9  C   UNL     1       4.243   6.318  16.990  0.00  0.00    +0.000 A 
ATOM     10  C   UNL     1       5.183   6.332  15.958  0.00  0.00    +0.000 A 
ATOM     11  C   UNL     1       5.822   5.150  15.590  0.00  0.00    +0.000 A 
ATOM     12  C   UNL     1       5.506   3.953  16.239  0.00  0.00    +0.000 A 
ATOM     13  C   UNL     1       4.579   3.942  17.287  0.00  0.00    +0.000 A 
ATOM     14  C   UNL     1       3.973   5.136  17.666  0.00  0.00    +0.000 A 
ATOM     15  O   UNL     1       3.093   5.142  18.771  0.00  0.00    +0.000 OA
ATOM     16  C   UNL     1       2.504   6.325  19.229  0.00  0.00    +0.000 A 
ATOM     17  O   UNL     1       1.865   6.370  20.276  0.00  0.00    +0.000 OA
ENDBRANCH   4   7
ENDBRANCH   1   3
BRANCH   1  18
ATOM     18  N   UNL     1      -0.186  10.618  18.836  0.00  0.00    +0.000 N 
ATOM     19  H   UNL     1       0.483  11.259  18.404  0.00  0.00    +0.000 HD
BRANCH  18  24
ATOM     20  C   UNL     1      -3.755  11.307  18.209  0.00  0.00    +0.000 A 
ATOM     21  C   UNL     1      -3.997  10.606  17.029  0.00  0.00    +0.000 A 
ATOM     22  C   UNL     1      -2.955   9.891  16.441  0.00  0.00    +0.000 A 
ATOM     23  C   UNL     1      -1.694   9.858  17.048  0.00  0.00    +0.000 A 
ATOM     24  C   UNL     1      -1.451  10.567  18.224  0.00  0.00    +0.000 A 
ATOM     25  C   UNL     1      -2.476  11.338  18.780  0.00  0.00    +0.000 A 
BRANCH  20  26
ATOM     26  S   UNL     1      -5.077  12.149  19.024  0.00  0.00    +0.000 S 
ATOM     27  O   UNL     1      -4.531  13.102  19.966  0.00  0.00    +0.000 OA
ATOM     28  O   UNL     1      -6.096  11.196  19.392  0.00  0.00    +0.000 OA
BRANCH  26  29
ATOM     29  N   UNL     1      -5.715  13.050  17.759  0.00  0.00    +0.000 NA
ATOM     30  H   UNL     1      -6.362  13.754  18.113  0.00  0.00    +0.000 HD
ATOM     31  H   UNL     1      -6.104  12.443  17.040  0.00  0.00    +0.000 HD
ENDBRANCH  26  29
ENDBRANCH  20  26
ENDBRANCH  18  24
ENDBRANCH   1  18
TORSDOF 6
ENDMDL
MODEL 7
REMARK VINA RESULT:      -8.1      2.879      8.511
REMARK  Name = 
REMARK  6 active torsions:
REMARK  status: ('A' for Active; 'I' for Inactive)
REMARK    1  A    between atoms: N_1  and  S_2
REMARK    2  A    between atoms: S_2  and  C_5
REMARK    3  A    between atoms: C_9  and  N_10
REMARK    4  A    between atoms: N_10  and  C_11
REMARK    5  A    between atoms: C_11  and  N_13
REMARK    6  A    between atoms: C_14  and  C_16
REMARK                            x       y       z     vdW  Elec       q    Type
REMARK                         _______ _______ _______ _____ _____    ______ ____
ROOT
ATOM      1  C   UNL     1       2.844   4.880  19.064  0.00  0.00    +0.000 C 
ATOM      2  S   UNL     1       2.138   3.606  18.242  0.00  0.00    +0.000 S 
ENDROOT
BRANCH   1   3
ATOM      3  N   UNL     1       2.100   6.041  19.234  0.00  0.00    +0.000 N 
ATOM      4  C   UNL     1       2.427   7.289  18.753  0.00  0.00    +0.000 C 
ATOM      5  O   UNL     1       3.260   7.436  17.854  0.00  0.00    +0.000 OA
ATOM      6  H   UNL     1       1.299   5.948  19.855  0.00  0.00    +0.000 HD
BRANCH   4   7
ATOM      7  C   UNL     1       1.730   8.473  19.329  0.00  0.00    +0.000 A 
ATOM      8  C   UNL     1       1.329   8.311  20.600  0.00  0.00    +0.000 A 
ATOM      9  C   UNL     1       0.566   9.328  21.282  0.00  0.00    +0.000 A 
ATOM     10  C   UNL     1       0.228   9.192  22.629  0.00  0.00    +0.000 A 
ATOM     11  C   UNL     1      -0.581  10.149  23.237  0.00  0.00    +0.000 A 
ATOM     12  C   UNL     1      -1.068  11.228  22.494  0.00  0.00    +0.000 A 
ATOM     13  C   UNL     1      -0.713  11.375  21.148  0.00  0.00    +0.000 A 
ATOM     14  C   UNL     1       0.123  10.430  20.563  0.00  0.00    +0.000 A 
ATOM     15  O   UNL     1       0.543  10.615  19.227  0.00  0.00    +0.000 OA
ATOM     16  C   UNL     1       1.431   9.725  18.611  0.00  0.00    +0.000 A 
ATOM     17  O   UNL     1       1.924   9.957  17.510  0.00  0.00    +0.000 OA
ENDBRANCH   4   7
ENDBRANCH   1   3
BRANCH   1  18
ATOM     18  N   UNL     1       4.123   4.928  19.578  0.00  0.00    +0.000 N 
ATOM     19  H   UNL     1       4.161   4.891  20.599  0.00  0.00    +0.000 HD
BRANCH  18  24
ATOM     20  C   UNL     1       6.607   5.170  16.862  0.00  0.00    +0.000 A 
ATOM     21  C   UNL     1       7.781   5.473  17.550  0.00  0.00    +0.000 A 
ATOM     22  C   UNL     1       7.740   5.593  18.937  0.00  0.00    +0.000 A 
ATOM     23  C   UNL     1       6.541   5.381  19.627  0.00  0.00    +0.000 A 
ATOM     24  C   UNL     1       5.365   5.086  18.937  0.00  0.00    +0.000 A 
ATOM     25  C   UNL     1       5.390   5.030  17.541  0.00  0.00    +0.000 A 
BRANCH  20  26
ATOM     26  S   UNL     1       6.645   4.924  15.113  0.00  0.00    +0.000 S 
ATOM     27  O   UNL     1       6.189   3.586  14.805  0.00  0.00    +0.000 OA
ATOM     28  O   UNL     1       7.874   5.463  14.581  0.00  0.00    +0.000 OA
BRANCH  26  29
ATOM     29  N   UNL     1       5.425   5.964  14.614  0.00  0.00    +0.000 NA
ATOM     30  H   UNL     1       4.792   6.169  15.387  0.00  0.00    +0.000 HD
ATOM     31  H   UNL     1       4.967   5.612  13.775  0.00  0.00    +0.000 HD
ENDBRANCH  26  29
ENDBRANCH  20  26
ENDBRANCH  18  24
ENDBRANCH   1  18
TORSDOF 6
ENDMDL
MODEL 8
REMARK VINA RESULT:      -8.1      4.103      6.530
REMARK  Name = 
REMARK  6 active torsions:
REMARK  status: ('A' for Active; 'I' for Inactive)
REMARK    1  A    between atoms: N_1  and  S_2
REMARK    2  A    between atoms: S_2  and  C_5
REMARK    3  A    between atoms: C_9  and  N_10
REMARK    4  A    between atoms: N_10  and  C_11
REMARK    5  A    between atoms: C_11  and  N_13
REMARK    6  A    between atoms: C_14  and  C_16
REMARK                            x       y       z     vdW  Elec       q    Type
REMARK                         _______ _______ _______ _____ _____    ______ ____
ROOT
ATOM      1  C   UNL     1       0.368  11.117  19.389  0.00  0.00    +0.000 C 
ATOM      2  S   UNL     1       1.138  12.566  19.066  0.00  0.00    +0.000 S 
ENDROOT
BRANCH   1   3
ATOM      3  N   UNL     1       1.154   9.985  19.568  0.00  0.00    +0.000 N 
ATOM      4  C   UNL     1       1.719   9.226  18.568  0.00  0.00    +0.000 C 
ATOM      5  O   UNL     1       1.842   9.662  17.419  0.00  0.00    +0.000 OA
ATOM      6  H   UNL     1       1.218   9.656  20.529  0.00  0.00    +0.000 HD
BRANCH   4   7
ATOM      7  C   UNL     1       2.209   7.861  18.907  0.00  0.00    +0.000 A 
ATOM      8  C   UNL     1       2.940   7.283  17.941  0.00  0.00    +0.000 A 
ATOM      9  C   UNL     1       3.421   5.929  18.073  0.00  0.00    +0.000 A 
ATOM     10  C   UNL     1       4.254   5.363  17.106  0.00  0.00    +0.000 A 
ATOM     11  C   UNL     1       4.632   4.028  17.217  0.00  0.00    +0.000 A 
ATOM     12  C   UNL     1       4.162   3.254  18.283  0.00  0.00    +0.000 A 
ATOM     13  C   UNL     1       3.345   3.826  19.263  0.00  0.00    +0.000 A 
ATOM     14  C   UNL     1       3.002   5.170  19.157  0.00  0.00    +0.000 A 
ATOM     15  O   UNL     1       2.238   5.769  20.183  0.00  0.00    +0.000 OA
ATOM     16  C   UNL     1       1.916   7.130  20.154  0.00  0.00    +0.000 A 
ATOM     17  O   UNL     1       1.390   7.695  21.109  0.00  0.00    +0.000 OA
ENDBRANCH   4   7
ENDBRANCH   1   3
BRANCH   1  18
ATOM     18  N   UNL     1      -0.992  10.900  19.468  0.00  0.00    +0.000 N 
ATOM     19  H   UNL     1      -1.329  10.728  20.417  0.00  0.00    +0.000 HD
BRANCH  18  24
ATOM     20  C   UNL     1      -4.146  11.484  17.647  0.00  0.00    +0.000 A 
ATOM     21  C   UNL     1      -3.946  10.779  16.460  0.00  0.00    +0.000 A 
ATOM     22  C   UNL     1      -2.746  10.098  16.272  0.00  0.00    +0.000 A 
ATOM     23  C   UNL     1      -1.770  10.101  17.275  0.00  0.00    +0.000 A 
ATOM     24  C   UNL     1      -1.967  10.813  18.459  0.00  0.00    +0.000 A 
ATOM     25  C   UNL     1      -3.143  11.551  18.622  0.00  0.00    +0.000 A 
BRANCH  20  26
ATOM     26  S   UNL     1      -5.692  12.283  17.951  0.00  0.00    +0.000 S 
ATOM     27  O   UNL     1      -6.066  13.063  16.792  0.00  0.00    +0.000 OA
ATOM     28  O   UNL     1      -5.691  12.833  19.286  0.00  0.00    +0.000 OA
BRANCH  26  29
ATOM     29  N   UNL     1      -6.733  10.966  17.990  0.00  0.00    +0.000 NA
ATOM     30  H   UNL     1      -6.457  10.272  17.295  0.00  0.00    +0.000 HD
ATOM     31  H   UNL     1      -7.704  11.268  17.922  0.00  0.00    +0.000 HD
ENDBRANCH  26  29
ENDBRANCH  20  26
ENDBRANCH  18  24
ENDBRANCH   1  18
TORSDOF 6
ENDMDL
MODEL 9
REMARK VINA RESULT:      -8.0      2.858      8.334
REMARK  Name = 
REMARK  6 active torsions:
REMARK  status: ('A' for Active; 'I' for Inactive)
REMARK    1  A    between atoms: N_1  and  S_2
REMARK    2  A    between atoms: S_2  and  C_5
REMARK    3  A    between atoms: C_9  and  N_10
REMARK    4  A    between atoms: N_10  and  C_11
REMARK    5  A    between atoms: C_11  and  N_13
REMARK    6  A    between atoms: C_14  and  C_16
REMARK                            x       y       z     vdW  Elec       q    Type
REMARK                         _______ _______ _______ _____ _____    ______ ____
ROOT
ATOM      1  C   UNL     1       2.027   3.679  18.842  0.00  0.00    +0.000 C 
ATOM      2  S   UNL     1       0.696   2.808  19.356  0.00  0.00    +0.000 S 
ENDROOT
BRANCH   1   3
ATOM      3  N   UNL     1       2.020   5.055  19.031  0.00  0.00    +0.000 N 
ATOM      4  C   UNL     1       2.081   5.706  20.244  0.00  0.00    +0.000 C 
ATOM      5  O   UNL     1       2.465   5.130  21.266  0.00  0.00    +0.000 OA
ATOM      6  H   UNL     1       1.854   5.602  18.189  0.00  0.00    +0.000 HD
BRANCH   4   7
ATOM      7  C   UNL     1       1.691   7.142  20.295  0.00  0.00    +0.000 A 
ATOM      8  C   UNL     1       1.052   7.499  21.421  0.00  0.00    +0.000 A 
ATOM      9  C   UNL     1       0.531   8.833  21.597  0.00  0.00    +0.000 A 
ATOM     10  C   UNL     1      -0.054   9.224  22.803  0.00  0.00    +0.000 A 
ATOM     11  C   UNL     1      -0.624  10.490  22.914  0.00  0.00    +0.000 A 
ATOM     12  C   UNL     1      -0.626  11.356  21.817  0.00  0.00    +0.000 A 
ATOM     13  C   UNL     1      -0.020  10.973  20.615  0.00  0.00    +0.000 A 
ATOM     14  C   UNL     1       0.574   9.718  20.528  0.00  0.00    +0.000 A 
ATOM     15  O   UNL     1       1.250   9.356  19.342  0.00  0.00    +0.000 OA
ATOM     16  C   UNL     1       1.914   8.130  19.224  0.00  0.00    +0.000 A 
ATOM     17  O   UNL     1       2.633   7.870  18.263  0.00  0.00    +0.000 OA
ENDBRANCH   4   7
ENDBRANCH   1   3
BRANCH   1  18
ATOM     18  N   UNL     1       3.147   3.185  18.205  0.00  0.00    +0.000 N 
ATOM     19  H   UNL     1       3.046   2.221  17.881  0.00  0.00    +0.000 HD
BRANCH  18  24
ATOM     20  C   UNL     1       6.022   4.650  16.419  0.00  0.00    +0.000 A 
ATOM     21  C   UNL     1       6.880   5.000  17.460  0.00  0.00    +0.000 A 
ATOM     22  C   UNL     1       6.493   4.737  18.773  0.00  0.00    +0.000 A 
ATOM     23  C   UNL     1       5.273   4.104  19.034  0.00  0.00    +0.000 A 
ATOM     24  C   UNL     1       4.411   3.762  17.991  0.00  0.00    +0.000 A 
ATOM     25  C   UNL     1       4.767   4.085  16.679  0.00  0.00    +0.000 A 
BRANCH  20  26
ATOM     26  S   UNL     1       6.523   4.890  14.742  0.00  0.00    +0.000 S 
ATOM     27  O   UNL     1       6.126   3.743  13.954  0.00  0.00    +0.000 OA
ATOM     28  O   UNL     1       7.866   5.420  14.715  0.00  0.00    +0.000 OA
BRANCH  26  29
ATOM     29  N   UNL     1       5.515   6.150  14.281  0.00  0.00    +0.000 NA
ATOM     30  H   UNL     1       5.240   6.048  13.303  0.00  0.00    +0.000 HD
ATOM     31  H   UNL     1       5.930   7.052  14.511  0.00  0.00    +0.000 HD
ENDBRANCH  26  29
ENDBRANCH  20  26
ENDBRANCH  18  24
ENDBRANCH   1  18
TORSDOF 6
ENDMDL
