MODEL 1
REMARK VINA RESULT:      -7.6      0.000      0.000
REMARK  Name = 
REMARK  8 active torsions:
REMARK  status: ('A' for Active; 'I' for Inactive)
REMARK    1  A    between atoms: C_14  and  N_15
REMARK    2  A    between atoms: N_15  and  C_16
REMARK    3  A    between atoms: C_19  and  C_20
REMARK    4  A    between atoms: C_20  and  S_21
REMARK    5  A    between atoms: S_21  and  N_24
REMARK    6  A    between atoms: N_24  and  C_25
REMARK    7  A    between atoms: C_25  and  C_26
REMARK    8  A    between atoms: C_26  and  O_27
REMARK                            x       y       z     vdW  Elec       q    Type
REMARK                         _______ _______ _______ _____ _____    ______ ____
ROOT
ATOM      1  N   UNL     1       1.524   9.814  19.034  0.00  0.00    +0.000 N 
ATOM      2  H   UNL     1       2.254  10.511  19.193  0.00  0.00    +0.000 HD
ENDROOT
BRANCH   1  16
ATOM      3  O   UNL     1       0.994  11.244  21.507  0.00  0.00    +0.000 OA
ATOM      4  C   UNL     1      -0.079  11.459  20.972  0.00  0.00    +0.000 C 
ATOM      5  N   UNL     1      -1.163  12.151  21.502  0.00  0.00    +0.000 N 
ATOM      6  C   UNL     1      -2.247  12.207  20.644  0.00  0.00    +0.000 A 
ATOM      7  C   UNL     1      -3.472  12.804  20.911  0.00  0.00    +0.000 A 
ATOM      8  C   UNL     1      -4.442  12.723  19.890  0.00  0.00    +0.000 A 
ATOM      9  C   UNL     1      -4.160  12.067  18.667  0.00  0.00    +0.000 A 
ATOM     10  N   UNL     1      -4.979  11.883  17.566  0.00  0.00    +0.000 NA
ATOM     11  C   UNL     1      -4.315  11.210  16.643  0.00  0.00    +0.000 A 
ATOM     12  S   UNL     1      -2.690  10.765  17.034  0.00  0.00    +0.000 S 
ATOM     13  C   UNL     1      -2.908  11.512  18.508  0.00  0.00    +0.000 A 
ATOM     14  C   UNL     1      -1.917  11.536  19.437  0.00  0.00    +0.000 A 
ATOM     15  C   UNL     1      -0.517  11.024  19.595  0.00  0.00    +0.000 C 
ATOM     16  C   UNL     1       0.265  10.308  18.781  0.00  0.00    +0.000 C 
ATOM     17  H   UNL     1      -1.134  12.549  22.431  0.00  0.00    +0.000 HD
ENDBRANCH   1  16
BRANCH   1  18
ATOM     18  C   UNL     1       1.947   8.477  18.984  0.00  0.00    +0.000 A 
ATOM     19  C   UNL     1       1.835   7.603  20.070  0.00  0.00    +0.000 A 
ATOM     20  C   UNL     1       2.279   6.281  19.981  0.00  0.00    +0.000 A 
ATOM     21  C   UNL     1       2.880   5.803  18.813  0.00  0.00    +0.000 A 
ATOM     22  C   UNL     1       3.067   6.696  17.750  0.00  0.00    +0.000 A 
ATOM     23  C   UNL     1       2.592   8.010  17.833  0.00  0.00    +0.000 A 
BRANCH  21  24
ATOM     24  C   UNL     1       3.276   4.350  18.707  0.00  0.00    +0.000 C 
BRANCH  24  25
ATOM     25  S   UNL     1       5.033   4.205  19.108  0.00  0.00    +0.000 S 
ATOM     26  O   UNL     1       5.497   5.454  19.671  0.00  0.00    +0.000 OA
ATOM     27  O   UNL     1       5.285   2.938  19.758  0.00  0.00    +0.000 OA
BRANCH  25  28
ATOM     28  N   UNL     1       5.771   4.087  17.587  0.00  0.00    +0.000 NA
ATOM     29  H   UNL     1       5.189   4.417  16.817  0.00  0.00    +0.000 HD
BRANCH  28  30
ATOM     30  C   UNL     1       7.150   4.676  17.516  0.00  0.00    +0.000 C 
BRANCH  30  31
ATOM     31  C   UNL     1       7.180   6.076  16.897  0.00  0.00    +0.000 C 
BRANCH  31  32
ATOM     32  O   UNL     1       6.203   6.167  15.863  0.00  0.00    +0.000 OA
ATOM     33  H   UNL     1       6.646   6.631  15.126  0.00  0.00    +0.000 HD
ENDBRANCH  31  32
ENDBRANCH  30  31
ENDBRANCH  28  30
ENDBRANCH  25  28
ENDBRANCH  24  25
ENDBRANCH  21  24
ENDBRANCH   1  18
TORSDOF 8
ENDMDL
MODEL 2
REMARK VINA RESULT:      -7.6      1.271      2.052
REMARK  Name = 
REMARK  8 active torsions:
REMARK  status: ('A' for Active; 'I' for Inactive)
REMARK    1  A    between atoms: C_14  and  N_15
REMARK    2  A    between atoms: N_15  and  C_16
REMARK    3  A    between atoms: C_19  and  C_20
REMARK    4  A    between atoms: C_20  and  S_21
REMARK    5  A    between atoms: S_21  and  N_24
REMARK    6  A    between atoms: N_24  and  C_25
REMARK    7  A    between atoms: C_25  and  C_26
REMARK    8  A    between atoms: C_26  and  O_27
REMARK                            x       y       z     vdW  Elec       q    Type
REMARK                         _______ _______ _______ _____ _____    ______ ____
ROOT
ATOM      1  N   UNL     1       1.283   9.641  19.569  0.00  0.00    +0.000 N 
ATOM      2  H   UNL     1       1.820  10.234  20.204  0.00  0.00    +0.000 HD
ENDROOT
BRANCH   1  16
ATOM      3  O   UNL     1       0.549  11.274  21.858  0.00  0.00    +0.000 OA
ATOM      4  C   UNL     1      -0.452  11.478  21.196  0.00  0.00    +0.000 C 
ATOM      5  N   UNL     1      -1.559  12.240  21.554  0.00  0.00    +0.000 N 
ATOM      6  C   UNL     1      -2.545  12.261  20.582  0.00  0.00    +0.000 A 
ATOM      7  C   UNL     1      -3.768  12.913  20.671  0.00  0.00    +0.000 A 
ATOM      8  C   UNL     1      -4.628  12.780  19.559  0.00  0.00    +0.000 A 
ATOM      9  C   UNL     1      -4.243  12.023  18.426  0.00  0.00    +0.000 A 
ATOM     10  N   UNL     1      -4.948  11.778  17.260  0.00  0.00    +0.000 NA
ATOM     11  C   UNL     1      -4.216  11.016  16.467  0.00  0.00    +0.000 A 
ATOM     12  S   UNL     1      -2.660  10.556  17.062  0.00  0.00    +0.000 S 
ATOM     13  C   UNL     1      -3.003  11.421  18.445  0.00  0.00    +0.000 A 
ATOM     14  C   UNL     1      -2.115  11.489  19.471  0.00  0.00    +0.000 A 
ATOM     15  C   UNL     1      -0.760  10.950  19.816  0.00  0.00    +0.000 C 
ATOM     16  C   UNL     1       0.077  10.150  19.147  0.00  0.00    +0.000 C 
ATOM     17  H   UNL     1      -1.614  12.708  22.448  0.00  0.00    +0.000 HD
ENDBRANCH   1  16
BRANCH   1  18
ATOM     18  C   UNL     1       1.913   8.461  19.143  0.00  0.00    +0.000 A 
ATOM     19  C   UNL     1       1.940   7.294  19.914  0.00  0.00    +0.000 A 
ATOM     20  C   UNL     1       2.588   6.144  19.457  0.00  0.00    +0.000 A 
ATOM     21  C   UNL     1       3.258   6.137  18.229  0.00  0.00    +0.000 A 
ATOM     22  C   UNL     1       3.301   7.327  17.491  0.00  0.00    +0.000 A 
ATOM     23  C   UNL     1       2.624   8.466  17.939  0.00  0.00    +0.000 A 
BRANCH  21  24
ATOM     24  C   UNL     1       3.880   4.861  17.714  0.00  0.00    +0.000 C 
BRANCH  24  25
ATOM     25  S   UNL     1       5.480   4.637  18.525  0.00  0.00    +0.000 S 
ATOM     26  O   UNL     1       6.508   4.492  17.516  0.00  0.00    +0.000 OA
ATOM     27  O   UNL     1       5.613   5.576  19.616  0.00  0.00    +0.000 OA
BRANCH  25  28
ATOM     28  N   UNL     1       5.337   3.113  19.254  0.00  0.00    +0.000 NA
ATOM     29  H   UNL     1       5.871   3.015  20.117  0.00  0.00    +0.000 HD
BRANCH  28  30
ATOM     30  C   UNL     1       3.924   2.638  19.432  0.00  0.00    +0.000 C 
BRANCH  30  31
ATOM     31  C   UNL     1       3.552   1.484  18.496  0.00  0.00    +0.000 C 
BRANCH  31  32
ATOM     32  O   UNL     1       2.161   1.539  18.192  0.00  0.00    +0.000 OA
ATOM     33  H   UNL     1       1.797   0.680  18.480  0.00  0.00    +0.000 HD
ENDBRANCH  31  32
ENDBRANCH  30  31
ENDBRANCH  28  30
ENDBRANCH  25  28
ENDBRANCH  24  25
ENDBRANCH  21  24
ENDBRANCH   1  18
TORSDOF 8
ENDMDL
MODEL 3
REMARK VINA RESULT:      -7.6      1.198      1.406
REMARK  Name = 
REMARK  8 active torsions:
REMARK  status: ('A' for Active; 'I' for Inactive)
REMARK    1  A    between atoms: C_14  and  N_15
REMARK    2  A    between atoms: N_15  and  C_16
REMARK    3  A    between atoms: C_19  and  C_20
REMARK    4  A    between atoms: C_20  and  S_21
REMARK    5  A    between atoms: S_21  and  N_24
REMARK    6  A    between atoms: N_24  and  C_25
REMARK    7  A    between atoms: C_25  and  C_26
REMARK    8  A    between atoms: C_26  and  O_27
REMARK                            x       y       z     vdW  Elec       q    Type
REMARK                         _______ _______ _______ _____ _____    ______ ____
ROOT
ATOM      1  N   UNL     1       1.086   9.618  19.746  0.00  0.00    +0.000 N 
ATOM      2  H   UNL     1       1.498  10.109  20.541  0.00  0.00    +0.000 HD
ENDROOT
BRANCH   1  16
ATOM      3  O   UNL     1       0.255  11.264  21.992  0.00  0.00    +0.000 OA
ATOM      4  C   UNL     1      -0.709  11.477  21.279  0.00  0.00    +0.000 C 
ATOM      5  N   UNL     1      -1.825  12.253  21.579  0.00  0.00    +0.000 N 
ATOM      6  C   UNL     1      -2.759  12.282  20.558  0.00  0.00    +0.000 A 
ATOM      7  C   UNL     1      -3.978  12.947  20.583  0.00  0.00    +0.000 A 
ATOM      8  C   UNL     1      -4.782  12.822  19.430  0.00  0.00    +0.000 A 
ATOM      9  C   UNL     1      -4.349  12.059  18.319  0.00  0.00    +0.000 A 
ATOM     10  N   UNL     1      -4.996  11.819  17.119  0.00  0.00    +0.000 NA
ATOM     11  C   UNL     1      -4.233  11.047  16.365  0.00  0.00    +0.000 A 
ATOM     12  S   UNL     1      -2.714  10.571  17.040  0.00  0.00    +0.000 S 
ATOM     13  C   UNL     1      -3.118  11.443  18.402  0.00  0.00    +0.000 A 
ATOM     14  C   UNL     1      -2.282  11.503  19.471  0.00  0.00    +0.000 A 
ATOM     15  C   UNL     1      -0.952  10.950  19.885  0.00  0.00    +0.000 C 
ATOM     16  C   UNL     1      -0.092  10.139  19.261  0.00  0.00    +0.000 C 
ATOM     17  H   UNL     1      -1.919  12.723  22.468  0.00  0.00    +0.000 HD
ENDBRANCH   1  16
BRANCH   1  18
ATOM     18  C   UNL     1       1.844   8.568  19.207  0.00  0.00    +0.000 A 
ATOM     19  C   UNL     1       2.106   7.384  19.905  0.00  0.00    +0.000 A 
ATOM     20  C   UNL     1       2.876   6.367  19.335  0.00  0.00    +0.000 A 
ATOM     21  C   UNL     1       3.436   6.517  18.062  0.00  0.00    +0.000 A 
ATOM     22  C   UNL     1       3.243   7.732  17.392  0.00  0.00    +0.000 A 
ATOM     23  C   UNL     1       2.445   8.735  17.955  0.00  0.00    +0.000 A 
BRANCH  21  24
ATOM     24  C   UNL     1       4.194   5.374  17.430  0.00  0.00    +0.000 C 
BRANCH  24  25
ATOM     25  S   UNL     1       5.964   5.670  17.649  0.00  0.00    +0.000 S 
ATOM     26  O   UNL     1       6.357   6.811  16.850  0.00  0.00    +0.000 OA
ATOM     27  O   UNL     1       6.309   5.568  19.049  0.00  0.00    +0.000 OA
BRANCH  25  28
ATOM     28  N   UNL     1       6.679   4.324  16.907  0.00  0.00    +0.000 NA
ATOM     29  H   UNL     1       6.875   3.554  17.546  0.00  0.00    +0.000 HD
BRANCH  28  30
ATOM     30  C   UNL     1       5.968   3.841  15.676  0.00  0.00    +0.000 C 
BRANCH  30  31
ATOM     31  C   UNL     1       6.596   4.351  14.375  0.00  0.00    +0.000 C 
BRANCH  31  32
ATOM     32  O   UNL     1       7.617   5.299  14.672  0.00  0.00    +0.000 OA
ATOM     33  H   UNL     1       8.161   5.359  13.862  0.00  0.00    +0.000 HD
ENDBRANCH  31  32
ENDBRANCH  30  31
ENDBRANCH  28  30
ENDBRANCH  25  28
ENDBRANCH  24  25
ENDBRANCH  21  24
ENDBRANCH   1  18
TORSDOF 8
ENDMDL
MODEL 4
REMARK VINA RESULT:      -7.4      2.511      3.821
REMARK  Name = 
REMARK  8 active torsions:
REMARK  status: ('A' for Active; 'I' for Inactive)
REMARK    1  A    between atoms: C_14  and  N_15
REMARK    2  A    between atoms: N_15  and  C_16
REMARK    3  A    between atoms: C_19  and  C_20
REMARK    4  A    between atoms: C_20  and  S_21
REMARK    5  A    between atoms: S_21  and  N_24
REMARK    6  A    between atoms: N_24  and  C_25
REMARK    7  A    between atoms: C_25  and  C_26
REMARK    8  A    between atoms: C_26  and  O_27
REMARK                            x       y       z     vdW  Elec       q    Type
REMARK                         _______ _______ _______ _____ _____    ______ ____
ROOT
ATOM      1  N   UNL     1       1.103  10.094  18.190  0.00  0.00    +0.000 N 
ATOM      2  H   UNL     1       1.108  10.393  17.213  0.00  0.00    +0.000 HD
ENDROOT
BRANCH   1  16
ATOM      3  O   UNL     1      -1.569   9.761  17.096  0.00  0.00    +0.000 OA
ATOM      4  C   UNL     1      -1.863  10.538  17.986  0.00  0.00    +0.000 C 
ATOM      5  N   UNL     1      -3.119  11.066  18.265  0.00  0.00    +0.000 N 
ATOM      6  C   UNL     1      -3.118  11.939  19.339  0.00  0.00    +0.000 A 
ATOM      7  C   UNL     1      -4.215  12.637  19.828  0.00  0.00    +0.000 A 
ATOM      8  C   UNL     1      -3.974  13.489  20.927  0.00  0.00    +0.000 A 
ATOM      9  C   UNL     1      -2.679  13.608  21.487  0.00  0.00    +0.000 A 
ATOM     10  N   UNL     1      -2.255  14.389  22.548  0.00  0.00    +0.000 NA
ATOM     11  C   UNL     1      -0.960  14.201  22.732  0.00  0.00    +0.000 A 
ATOM     12  S   UNL     1      -0.185  13.088  21.660  0.00  0.00    +0.000 S 
ATOM     13  C   UNL     1      -1.663  12.866  20.923  0.00  0.00    +0.000 A 
ATOM     14  C   UNL     1      -1.801  12.027  19.863  0.00  0.00    +0.000 A 
ATOM     15  C   UNL     1      -0.938  11.138  19.019  0.00  0.00    +0.000 C 
ATOM     16  C   UNL     1       0.371  10.874  19.055  0.00  0.00    +0.000 C 
ATOM     17  H   UNL     1      -3.928  10.828  17.710  0.00  0.00    +0.000 HD
ENDBRANCH   1  16
BRANCH   1  18
ATOM     18  C   UNL     1       1.742   8.875  18.466  0.00  0.00    +0.000 A 
ATOM     19  C   UNL     1       1.564   8.180  19.667  0.00  0.00    +0.000 A 
ATOM     20  C   UNL     1       2.229   6.974  19.906  0.00  0.00    +0.000 A 
ATOM     21  C   UNL     1       3.119   6.445  18.965  0.00  0.00    +0.000 A 
ATOM     22  C   UNL     1       3.360   7.178  17.796  0.00  0.00    +0.000 A 
ATOM     23  C   UNL     1       2.668   8.369  17.548  0.00  0.00    +0.000 A 
BRANCH  21  24
ATOM     24  C   UNL     1       3.761   5.100  19.206  0.00  0.00    +0.000 C 
BRANCH  24  25
ATOM     25  S   UNL     1       3.140   3.939  17.967  0.00  0.00    +0.000 S 
ATOM     26  O   UNL     1       1.772   4.278  17.642  0.00  0.00    +0.000 OA
ATOM     27  O   UNL     1       4.137   3.737  16.940  0.00  0.00    +0.000 OA
BRANCH  25  28
ATOM     28  N   UNL     1       3.059   2.473  18.813  0.00  0.00    +0.000 NA
ATOM     29  H   UNL     1       3.721   2.403  19.586  0.00  0.00    +0.000 HD
BRANCH  28  30
ATOM     30  C   UNL     1       1.677   2.078  19.245  0.00  0.00    +0.000 C 
BRANCH  30  31
ATOM     31  C   UNL     1       1.283   2.647  20.611  0.00  0.00    +0.000 C 
BRANCH  31  32
ATOM     32  O   UNL     1       0.538   3.849  20.437  0.00  0.00    +0.000 OA
ATOM     33  H   UNL     1       1.077   4.551  20.850  0.00  0.00    +0.000 HD
ENDBRANCH  31  32
ENDBRANCH  30  31
ENDBRANCH  28  30
ENDBRANCH  25  28
ENDBRANCH  24  25
ENDBRANCH  21  24
ENDBRANCH   1  18
TORSDOF 8
ENDMDL
MODEL 5
REMARK VINA RESULT:      -7.4      1.083      1.617
REMARK  Name = 
REMARK  8 active torsions:
REMARK  status: ('A' for Active; 'I' for Inactive)
REMARK    1  A    between atoms: C_14  and  N_15
REMARK    2  A    between atoms: N_15  and  C_16
REMARK    3  A    between atoms: C_19  and  C_20
REMARK    4  A    between atoms: C_20  and  S_21
REMARK    5  A    between atoms: S_21  and  N_24
REMARK    6  A    between atoms: N_24  and  C_25
REMARK    7  A    between atoms: C_25  and  C_26
REMARK    8  A    between atoms: C_26  and  O_27
REMARK                            x       y       z     vdW  Elec       q    Type
REMARK                         _______ _______ _______ _____ _____    ______ ____
ROOT
ATOM      1  N   UNL     1       1.569   9.520  19.012  0.00  0.00    +0.000 N 
ATOM      2  H   UNL     1       2.354  10.172  19.041  0.00  0.00    +0.000 HD
ENDROOT
BRANCH   1  16
ATOM      3  O   UNL     1       1.162  11.016  21.470  0.00  0.00    +0.000 OA
ATOM      4  C   UNL     1       0.093  11.279  20.951  0.00  0.00    +0.000 C 
ATOM      5  N   UNL     1      -0.942  12.038  21.488  0.00  0.00    +0.000 N 
ATOM      6  C   UNL     1      -2.037  12.138  20.649  0.00  0.00    +0.000 A 
ATOM      7  C   UNL     1      -3.223  12.804  20.928  0.00  0.00    +0.000 A 
ATOM      8  C   UNL     1      -4.216  12.759  19.925  0.00  0.00    +0.000 A 
ATOM      9  C   UNL     1      -3.993  12.070  18.709  0.00  0.00    +0.000 A 
ATOM     10  N   UNL     1      -4.840  11.913  17.626  0.00  0.00    +0.000 NA
ATOM     11  C   UNL     1      -4.231  11.189  16.703  0.00  0.00    +0.000 A 
ATOM     12  S   UNL     1      -2.626  10.665  17.073  0.00  0.00    +0.000 S 
ATOM     13  C   UNL     1      -2.775  11.445  18.538  0.00  0.00    +0.000 A 
ATOM     14  C   UNL     1      -1.767  11.431  19.448  0.00  0.00    +0.000 A 
ATOM     15  C   UNL     1      -0.394  10.847  19.589  0.00  0.00    +0.000 C 
ATOM     16  C   UNL     1       0.334  10.076  18.774  0.00  0.00    +0.000 C 
ATOM     17  H   UNL     1      -0.874  12.448  22.409  0.00  0.00    +0.000 HD
ENDBRANCH   1  16
BRANCH   1  18
ATOM     18  C   UNL     1       1.892   8.158  19.103  0.00  0.00    +0.000 A 
ATOM     19  C   UNL     1       2.256   7.388  17.994  0.00  0.00    +0.000 A 
ATOM     20  C   UNL     1       2.561   6.030  18.127  0.00  0.00    +0.000 A 
ATOM     21  C   UNL     1       2.476   5.394  19.369  0.00  0.00    +0.000 A 
ATOM     22  C   UNL     1       2.035   6.142  20.469  0.00  0.00    +0.000 A 
ATOM     23  C   UNL     1       1.762   7.508  20.335  0.00  0.00    +0.000 A 
BRANCH  21  24
ATOM     24  C   UNL     1       2.890   3.948  19.507  0.00  0.00    +0.000 C 
BRANCH  24  25
ATOM     25  S   UNL     1       4.626   3.801  19.021  0.00  0.00    +0.000 S 
ATOM     26  O   UNL     1       5.250   2.754  19.800  0.00  0.00    +0.000 OA
ATOM     27  O   UNL     1       4.737   3.846  17.580  0.00  0.00    +0.000 OA
BRANCH  25  28
ATOM     28  N   UNL     1       5.309   5.251  19.573  0.00  0.00    +0.000 NA
ATOM     29  H   UNL     1       5.673   5.202  20.523  0.00  0.00    +0.000 HD
BRANCH  28  30
ATOM     30  C   UNL     1       6.311   5.863  18.637  0.00  0.00    +0.000 C 
BRANCH  30  31
ATOM     31  C   UNL     1       7.715   5.267  18.781  0.00  0.00    +0.000 C 
BRANCH  31  32
ATOM     32  O   UNL     1       8.212   5.514  20.093  0.00  0.00    +0.000 OA
ATOM     33  H   UNL     1       9.131   5.823  19.970  0.00  0.00    +0.000 HD
ENDBRANCH  31  32
ENDBRANCH  30  31
ENDBRANCH  28  30
ENDBRANCH  25  28
ENDBRANCH  24  25
ENDBRANCH  21  24
ENDBRANCH   1  18
TORSDOF 8
ENDMDL
MODEL 6
REMARK VINA RESULT:      -7.4      2.387      2.614
REMARK  Name = 
REMARK  8 active torsions:
REMARK  status: ('A' for Active; 'I' for Inactive)
REMARK    1  A    between atoms: C_14  and  N_15
REMARK    2  A    between atoms: N_15  and  C_16
REMARK    3  A    between atoms: C_19  and  C_20
REMARK    4  A    between atoms: C_20  and  S_21
REMARK    5  A    between atoms: S_21  and  N_24
REMARK    6  A    between atoms: N_24  and  C_25
REMARK    7  A    between atoms: C_25  and  C_26
REMARK    8  A    between atoms: C_26  and  O_27
REMARK                            x       y       z     vdW  Elec       q    Type
REMARK                         _______ _______ _______ _____ _____    ______ ____
ROOT
ATOM      1  N   UNL     1       0.734  10.682  18.386  0.00  0.00    +0.000 N 
ATOM      2  H   UNL     1       1.362  11.354  17.942  0.00  0.00    +0.000 HD
ENDROOT
BRANCH   1  16
ATOM      3  O   UNL     1       0.738  12.325  20.783  0.00  0.00    +0.000 OA
ATOM      4  C   UNL     1      -0.454  12.398  20.548  0.00  0.00    +0.000 C 
ATOM      5  N   UNL     1      -1.422  13.059  21.297  0.00  0.00    +0.000 N 
ATOM      6  C   UNL     1      -2.696  12.939  20.769  0.00  0.00    +0.000 A 
ATOM      7  C   UNL     1      -3.860  13.466  21.313  0.00  0.00    +0.000 A 
ATOM      8  C   UNL     1      -5.054  13.202  20.608  0.00  0.00    +0.000 A 
ATOM      9  C   UNL     1      -5.043  12.442  19.414  0.00  0.00    +0.000 A 
ATOM     10  N   UNL     1      -6.102  12.079  18.600  0.00  0.00    +0.000 NA
ATOM     11  C   UNL     1      -5.642  11.363  17.589  0.00  0.00    +0.000 A 
ATOM     12  S   UNL     1      -3.936  11.089  17.553  0.00  0.00    +0.000 S 
ATOM     13  C   UNL     1      -3.828  11.970  18.963  0.00  0.00    +0.000 A 
ATOM     14  C   UNL     1      -2.633  12.170  19.578  0.00  0.00    +0.000 A 
ATOM     15  C   UNL     1      -1.197  11.786  19.385  0.00  0.00    +0.000 C 
ATOM     16  C   UNL     1      -0.591  11.048  18.450  0.00  0.00    +0.000 C 
ATOM     17  H   UNL     1      -1.188  13.554  22.146  0.00  0.00    +0.000 HD
ENDBRANCH   1  16
BRANCH   1  18
ATOM     18  C   UNL     1       1.302   9.452  18.751  0.00  0.00    +0.000 A 
ATOM     19  C   UNL     1       1.241   8.943  20.052  0.00  0.00    +0.000 A 
ATOM     20  C   UNL     1       1.830   7.718  20.376  0.00  0.00    +0.000 A 
ATOM     21  C   UNL     1       2.528   6.980  19.414  0.00  0.00    +0.000 A 
ATOM     22  C   UNL     1       2.660   7.524  18.129  0.00  0.00    +0.000 A 
ATOM     23  C   UNL     1       2.041   8.736  17.803  0.00  0.00    +0.000 A 
BRANCH  21  24
ATOM     24  C   UNL     1       3.084   5.621  19.761  0.00  0.00    +0.000 C 
BRANCH  24  25
ATOM     25  S   UNL     1       1.760   4.401  19.592  0.00  0.00    +0.000 S 
ATOM     26  O   UNL     1       0.737   4.669  20.580  0.00  0.00    +0.000 OA
ATOM     27  O   UNL     1       1.438   4.218  18.194  0.00  0.00    +0.000 OA
BRANCH  25  28
ATOM     28  N   UNL     1       2.499   2.955  20.078  0.00  0.00    +0.000 NA
ATOM     29  H   UNL     1       1.871   2.152  20.088  0.00  0.00    +0.000 HD
BRANCH  28  30
ATOM     30  C   UNL     1       3.778   2.636  19.359  0.00  0.00    +0.000 C 
BRANCH  30  31
ATOM     31  C   UNL     1       3.653   1.447  18.401  0.00  0.00    +0.000 C 
BRANCH  31  32
ATOM     32  O   UNL     1       2.517   1.623  17.560  0.00  0.00    +0.000 OA
ATOM     33  H   UNL     1       2.874   1.727  16.657  0.00  0.00    +0.000 HD
ENDBRANCH  31  32
ENDBRANCH  30  31
ENDBRANCH  28  30
ENDBRANCH  25  28
ENDBRANCH  24  25
ENDBRANCH  21  24
ENDBRANCH   1  18
TORSDOF 8
ENDMDL
MODEL 7
REMARK VINA RESULT:      -7.4      2.138      2.884
REMARK  Name = 
REMARK  8 active torsions:
REMARK  status: ('A' for Active; 'I' for Inactive)
REMARK    1  A    between atoms: C_14  and  N_15
REMARK    2  A    between atoms: N_15  and  C_16
REMARK    3  A    between atoms: C_19  and  C_20
REMARK    4  A    between atoms: C_20  and  S_21
REMARK    5  A    between atoms: S_21  and  N_24
REMARK    6  A    between atoms: N_24  and  C_25
REMARK    7  A    between atoms: C_25  and  C_26
REMARK    8  A    between atoms: C_26  and  O_27
REMARK                            x       y       z     vdW  Elec       q    Type
REMARK                         _______ _______ _______ _____ _____    ______ ____
ROOT
ATOM      1  N   UNL     1       1.620   9.904  18.767  0.00  0.00    +0.000 N 
ATOM      2  H   UNL     1       2.323  10.622  18.951  0.00  0.00    +0.000 HD
ENDROOT
BRANCH   1  16
ATOM      3  O   UNL     1       1.101  11.322  21.250  0.00  0.00    +0.000 OA
ATOM      4  C   UNL     1       0.010  11.501  20.739  0.00  0.00    +0.000 C 
ATOM      5  N   UNL     1      -1.083  12.159  21.292  0.00  0.00    +0.000 N 
ATOM      6  C   UNL     1      -2.187  12.179  20.459  0.00  0.00    +0.000 A 
ATOM      7  C   UNL     1      -3.424  12.737  20.753  0.00  0.00    +0.000 A 
ATOM      8  C   UNL     1      -4.415  12.623  19.753  0.00  0.00    +0.000 A 
ATOM      9  C   UNL     1      -4.140  11.974  18.525  0.00  0.00    +0.000 A 
ATOM     10  N   UNL     1      -4.977  11.762  17.444  0.00  0.00    +0.000 NA
ATOM     11  C   UNL     1      -4.313  11.108  16.507  0.00  0.00    +0.000 A 
ATOM     12  S   UNL     1      -2.666  10.716  16.862  0.00  0.00    +0.000 S 
ATOM     13  C   UNL     1      -2.875  11.458  18.340  0.00  0.00    +0.000 A 
ATOM     14  C   UNL     1      -1.864  11.517  19.245  0.00  0.00    +0.000 A 
ATOM     15  C   UNL     1      -0.445  11.049  19.372  0.00  0.00    +0.000 C 
ATOM     16  C   UNL     1       0.341  10.356  18.542  0.00  0.00    +0.000 C 
ATOM     17  H   UNL     1      -1.046  12.560  22.219  0.00  0.00    +0.000 HD
ENDBRANCH   1  16
BRANCH   1  18
ATOM     18  C   UNL     1       2.096   8.588  18.658  0.00  0.00    +0.000 A 
ATOM     19  C   UNL     1       1.966   7.647  19.685  0.00  0.00    +0.000 A 
ATOM     20  C   UNL     1       2.464   6.349  19.540  0.00  0.00    +0.000 A 
ATOM     21  C   UNL     1       3.137   5.964  18.376  0.00  0.00    +0.000 A 
ATOM     22  C   UNL     1       3.339   6.926  17.378  0.00  0.00    +0.000 A 
ATOM     23  C   UNL     1       2.811   8.214  17.515  0.00  0.00    +0.000 A 
BRANCH  21  24
ATOM     24  C   UNL     1       3.592   4.534  18.204  0.00  0.00    +0.000 C 
BRANCH  24  25
ATOM     25  S   UNL     1       2.143   3.509  17.862  0.00  0.00    +0.000 S 
ATOM     26  O   UNL     1       1.076   4.348  17.359  0.00  0.00    +0.000 OA
ATOM     27  O   UNL     1       2.547   2.302  17.178  0.00  0.00    +0.000 OA
BRANCH  25  28
ATOM     28  N   UNL     1       1.645   3.011  19.404  0.00  0.00    +0.000 NA
ATOM     29  H   UNL     1       0.915   2.300  19.394  0.00  0.00    +0.000 HD
BRANCH  28  30
ATOM     30  C   UNL     1       2.766   2.626  20.326  0.00  0.00    +0.000 C 
BRANCH  30  31
ATOM     31  C   UNL     1       2.379   2.685  21.807  0.00  0.00    +0.000 C 
BRANCH  31  32
ATOM     32  O   UNL     1       0.960   2.705  21.934  0.00  0.00    +0.000 OA
ATOM     33  H   UNL     1       0.758   3.499  22.466  0.00  0.00    +0.000 HD
ENDBRANCH  31  32
ENDBRANCH  30  31
ENDBRANCH  28  30
ENDBRANCH  25  28
ENDBRANCH  24  25
ENDBRANCH  21  24
ENDBRANCH   1  18
TORSDOF 8
ENDMDL
MODEL 8
REMARK VINA RESULT:      -7.4      1.883      2.959
REMARK  Name = 
REMARK  8 active torsions:
REMARK  status: ('A' for Active; 'I' for Inactive)
REMARK    1  A    between atoms: C_14  and  N_15
REMARK    2  A    between atoms: N_15  and  C_16
REMARK    3  A    between atoms: C_19  and  C_20
REMARK    4  A    between atoms: C_20  and  S_21
REMARK    5  A    between atoms: S_21  and  N_24
REMARK    6  A    between atoms: N_24  and  C_25
REMARK    7  A    between atoms: C_25  and  C_26
REMARK    8  A    between atoms: C_26  and  O_27
REMARK                            x       y       z     vdW  Elec       q    Type
REMARK                         _______ _______ _______ _____ _____    ______ ____
ROOT
ATOM      1  N   UNL     1       1.308  10.575  18.448  0.00  0.00    +0.000 N 
ATOM      2  H   UNL     1       1.977  11.291  18.159  0.00  0.00    +0.000 HD
ENDROOT
BRANCH   1  16
ATOM      3  O   UNL     1       1.188  11.775  21.092  0.00  0.00    +0.000 OA
ATOM      4  C   UNL     1       0.015  11.926  20.800  0.00  0.00    +0.000 C 
ATOM      5  N   UNL     1      -0.987  12.477  21.592  0.00  0.00    +0.000 N 
ATOM      6  C   UNL     1      -2.225  12.492  20.974  0.00  0.00    +0.000 A 
ATOM      7  C   UNL     1      -3.411  12.954  21.529  0.00  0.00    +0.000 A 
ATOM      8  C   UNL     1      -4.561  12.855  20.716  0.00  0.00    +0.000 A 
ATOM      9  C   UNL     1      -4.486  12.315  19.410  0.00  0.00    +0.000 A 
ATOM     10  N   UNL     1      -5.496  12.133  18.481  0.00  0.00    +0.000 NA
ATOM     11  C   UNL     1      -4.985  11.590  17.390  0.00  0.00    +0.000 A 
ATOM     12  S   UNL     1      -3.286  11.271  17.412  0.00  0.00    +0.000 S 
ATOM     13  C   UNL     1      -3.254  11.890  18.959  0.00  0.00    +0.000 A 
ATOM     14  C   UNL     1      -2.098  11.941  19.672  0.00  0.00    +0.000 A 
ATOM     15  C   UNL     1      -0.661  11.550  19.504  0.00  0.00    +0.000 C 
ATOM     16  C   UNL     1      -0.010  10.967  18.493  0.00  0.00    +0.000 C 
ATOM     17  H   UNL     1      -0.799  12.810  22.528  0.00  0.00    +0.000 HD
ENDBRANCH   1  16
BRANCH   1  18
ATOM     18  C   UNL     1       1.826   9.285  18.636  0.00  0.00    +0.000 A 
ATOM     19  C   UNL     1       2.575   8.617  17.662  0.00  0.00    +0.000 A 
ATOM     20  C   UNL     1       3.064   7.327  17.887  0.00  0.00    +0.000 A 
ATOM     21  C   UNL     1       2.788   6.653  19.081  0.00  0.00    +0.000 A 
ATOM     22  C   UNL     1       1.971   7.286  20.027  0.00  0.00    +0.000 A 
ATOM     23  C   UNL     1       1.512   8.590  19.809  0.00  0.00    +0.000 A 
BRANCH  21  24
ATOM     24  C   UNL     1       3.395   5.295  19.339  0.00  0.00    +0.000 C 
BRANCH  24  25
ATOM     25  S   UNL     1       2.826   4.160  18.051  0.00  0.00    +0.000 S 
ATOM     26  O   UNL     1       1.415   4.378  17.815  0.00  0.00    +0.000 OA
ATOM     27  O   UNL     1       3.782   4.129  16.967  0.00  0.00    +0.000 OA
BRANCH  25  28
ATOM     28  N   UNL     1       2.935   2.641  18.795  0.00  0.00    +0.000 NA
ATOM     29  H   UNL     1       3.706   2.067  18.455  0.00  0.00    +0.000 HD
BRANCH  28  30
ATOM     30  C   UNL     1       2.907   2.678  20.295  0.00  0.00    +0.000 C 
BRANCH  30  31
ATOM     31  C   UNL     1       1.495   2.553  20.878  0.00  0.00    +0.000 C 
BRANCH  31  32
ATOM     32  O   UNL     1       1.561   2.527  22.301  0.00  0.00    +0.000 OA
ATOM     33  H   UNL     1       1.582   1.581  22.543  0.00  0.00    +0.000 HD
ENDBRANCH  31  32
ENDBRANCH  30  31
ENDBRANCH  28  30
ENDBRANCH  25  28
ENDBRANCH  24  25
ENDBRANCH  21  24
ENDBRANCH   1  18
TORSDOF 8
ENDMDL
MODEL 9
REMARK VINA RESULT:      -7.3      2.203      2.610
REMARK  Name = 
REMARK  8 active torsions:
REMARK  status: ('A' for Active; 'I' for Inactive)
REMARK    1  A    between atoms: C_14  and  N_15
REMARK    2  A    between atoms: N_15  and  C_16
REMARK    3  A    between atoms: C_19  and  C_20
REMARK    4  A    between atoms: C_20  and  S_21
REMARK    5  A    between atoms: S_21  and  N_24
REMARK    6  A    between atoms: N_24  and  C_25
REMARK    7  A    between atoms: C_25  and  C_26
REMARK    8  A    between atoms: C_26  and  O_27
REMARK                            x       y       z     vdW  Elec       q    Type
REMARK                         _______ _______ _______ _____ _____    ______ ____
ROOT
ATOM      1  N   UNL     1       1.603   9.661  18.359  0.00  0.00    +0.000 N 
ATOM      2  H   UNL     1       2.351  10.297  18.076  0.00  0.00    +0.000 HD
ENDROOT
BRANCH   1  16
ATOM      3  O   UNL     1       1.123  11.168  20.797  0.00  0.00    +0.000 OA
ATOM      4  C   UNL     1       0.025  11.328  20.298  0.00  0.00    +0.000 C 
ATOM      5  N   UNL     1      -1.060  12.006  20.845  0.00  0.00    +0.000 N 
ATOM      6  C   UNL     1      -2.178  11.995  20.029  0.00  0.00    +0.000 A 
ATOM      7  C   UNL     1      -3.410  12.564  20.323  0.00  0.00    +0.000 A 
ATOM      8  C   UNL     1      -4.417  12.413  19.345  0.00  0.00    +0.000 A 
ATOM      9  C   UNL     1      -4.161  11.721  18.137  0.00  0.00    +0.000 A 
ATOM     10  N   UNL     1      -5.015  11.470  17.077  0.00  0.00    +0.000 NA
ATOM     11  C   UNL     1      -4.366  10.782  16.154  0.00  0.00    +0.000 A 
ATOM     12  S   UNL     1      -2.714  10.404  16.496  0.00  0.00    +0.000 S 
ATOM     13  C   UNL     1      -2.899  11.199  17.949  0.00  0.00    +0.000 A 
ATOM     14  C   UNL     1      -1.874  11.290  18.836  0.00  0.00    +0.000 A 
ATOM     15  C   UNL     1      -0.453  10.827  18.956  0.00  0.00    +0.000 C 
ATOM     16  C   UNL     1       0.320  10.105  18.139  0.00  0.00    +0.000 C 
ATOM     17  H   UNL     1      -1.008  12.439  21.756  0.00  0.00    +0.000 HD
ENDBRANCH   1  16
BRANCH   1  18
ATOM     18  C   UNL     1       2.007   8.397  18.815  0.00  0.00    +0.000 A 
ATOM     19  C   UNL     1       1.759   7.944  20.116  0.00  0.00    +0.000 A 
ATOM     20  C   UNL     1       2.188   6.682  20.533  0.00  0.00    +0.000 A 
ATOM     21  C   UNL     1       2.908   5.847  19.673  0.00  0.00    +0.000 A 
ATOM     22  C   UNL     1       3.228   6.328  18.396  0.00  0.00    +0.000 A 
ATOM     23  C   UNL     1       2.769   7.580  17.973  0.00  0.00    +0.000 A 
BRANCH  21  24
ATOM     24  C   UNL     1       3.289   4.454  20.114  0.00  0.00    +0.000 C 
BRANCH  24  25
ATOM     25  S   UNL     1       1.793   3.599  20.662  0.00  0.00    +0.000 S 
ATOM     26  O   UNL     1       1.932   3.244  22.058  0.00  0.00    +0.000 OA
ATOM     27  O   UNL     1       0.623   4.290  20.168  0.00  0.00    +0.000 OA
BRANCH  25  28
ATOM     28  N   UNL     1       1.847   2.135  19.810  0.00  0.00    +0.000 NA
ATOM     29  H   UNL     1       0.972   1.612  19.829  0.00  0.00    +0.000 HD
BRANCH  28  30
ATOM     30  C   UNL     1       2.384   2.247  18.413  0.00  0.00    +0.000 C 
BRANCH  30  31
ATOM     31  C   UNL     1       3.581   1.329  18.149  0.00  0.00    +0.000 C 
BRANCH  31  32
ATOM     32  O   UNL     1       4.541   1.476  19.191  0.00  0.00    +0.000 OA
ATOM     33  H   UNL     1       4.029   1.448  20.022  0.00  0.00    +0.000 HD
ENDBRANCH  31  32
ENDBRANCH  30  31
ENDBRANCH  28  30
ENDBRANCH  25  28
ENDBRANCH  24  25
ENDBRANCH  21  24
ENDBRANCH   1  18
TORSDOF 8
ENDMDL
