MODEL 1
REMARK VINA RESULT:      -6.6      0.000      0.000
REMARK  Name = 
REMARK  7 active torsions:
REMARK  status: ('A' for Active; 'I' for Inactive)
REMARK    1  A    between atoms: C_1  and  C_2
REMARK    2  A    between atoms: C_2  and  S_3
REMARK    3  A    between atoms: S_3  and  N_6
REMARK    4  A    between atoms: C_12  and  C_13
REMARK    5  A    between atoms: C_13  and  N_14
REMARK    6  A    between atoms: N_14  and  C_15
REMARK    7  A    between atoms: N_14  and  C_16
REMARK                            x       y       z     vdW  Elec       q    Type
REMARK                         _______ _______ _______ _____ _____    ______ ____
ROOT
ATOM      1  N   UNL     1       4.347   3.946  17.903  0.00  0.00    +0.000 NA
ATOM      2  C   UNL     1       5.102   4.220  19.158  0.00  0.00    +0.000 C 
ATOM      3  C   UNL     1       6.332   5.089  18.923  0.00  0.00    +0.000 C 
ATOM      4  C   UNL     1       6.068   6.325  18.043  0.00  0.00    +0.000 C 
ATOM      5  C   UNL     1       7.345   6.771  17.343  0.00  0.00    +0.000 C 
ATOM      6  O   UNL     1       7.420   6.051  16.091  0.00  0.00    +0.000 OA
ATOM      7  C   UNL     1       6.207   5.279  15.958  0.00  0.00    +0.000 C 
ATOM      8  C   UNL     1       5.193   5.997  16.843  0.00  0.00    +0.000 C 
ATOM      9  C   UNL     1       3.955   5.195  17.190  0.00  0.00    +0.000 C 
ENDROOT
BRANCH   1  10
ATOM     10  S   UNL     1       3.066   2.816  18.065  0.00  0.00    +0.000 S 
ATOM     11  O   UNL     1       3.638   1.482  18.045  0.00  0.00    +0.000 OA
ATOM     12  O   UNL     1       2.026   3.217  17.144  0.00  0.00    +0.000 OA
BRANCH  10  14
ATOM     13  C   UNL     1       1.018   3.329  19.812  0.00  0.00    +0.000 C 
ATOM     14  C   UNL     1       2.521   3.148  19.737  0.00  0.00    +0.000 C 
ENDBRANCH  10  14
ENDBRANCH   1  10
BRANCH   7  15
ATOM     15  C   UNL     1       5.791   4.983  14.506  0.00  0.00    +0.000 C 
BRANCH  15  16
ATOM     16  N   UNL     1       6.702   4.169  13.677  0.00  0.00    +0.000 NA
ATOM     17  C   UNL     1       5.965   3.379  12.689  0.00  0.00    +0.000 C 
ATOM     18  C   UNL     1       7.630   5.069  12.977  0.00  0.00    +0.000 C 
ENDBRANCH  15  16
ENDBRANCH   7  15
TORSDOF 4
ENDMDL
MODEL 2
REMARK VINA RESULT:      -6.6      0.694      1.054
REMARK  Name = 
REMARK  7 active torsions:
REMARK  status: ('A' for Active; 'I' for Inactive)
REMARK    1  A    between atoms: C_1  and  C_2
REMARK    2  A    between atoms: C_2  and  S_3
REMARK    3  A    between atoms: S_3  and  N_6
REMARK    4  A    between atoms: C_12  and  C_13
REMARK    5  A    between atoms: C_13  and  N_14
REMARK    6  A    between atoms: N_14  and  C_15
REMARK    7  A    between atoms: N_14  and  C_16
REMARK                            x       y       z     vdW  Elec       q    Type
REMARK                         _______ _______ _______ _____ _____    ______ ____
ROOT
ATOM      1  N   UNL     1       4.234   3.534  18.137  0.00  0.00    +0.000 NA
ATOM      2  C   UNL     1       4.535   4.315  19.369  0.00  0.00    +0.000 C 
ATOM      3  C   UNL     1       5.694   5.288  19.176  0.00  0.00    +0.000 C 
ATOM      4  C   UNL     1       5.604   6.122  17.885  0.00  0.00    +0.000 C 
ATOM      5  C   UNL     1       6.989   6.566  17.433  0.00  0.00    +0.000 C 
ATOM      6  O   UNL     1       7.513   5.526  16.575  0.00  0.00    +0.000 OA
ATOM      7  C   UNL     1       6.476   4.534  16.408  0.00  0.00    +0.000 C 
ATOM      8  C   UNL     1       5.177   5.283  16.690  0.00  0.00    +0.000 C 
ATOM      9  C   UNL     1       3.971   4.407  16.958  0.00  0.00    +0.000 C 
ENDROOT
BRANCH   1  10
ATOM     10  S   UNL     1       3.073   2.286  18.341  0.00  0.00    +0.000 S 
ATOM     11  O   UNL     1       3.785   1.029  18.483  0.00  0.00    +0.000 OA
ATOM     12  O   UNL     1       2.057   2.481  17.331  0.00  0.00    +0.000 OA
BRANCH  10  14
ATOM     13  C   UNL     1       0.971   3.222  19.827  0.00  0.00    +0.000 C 
ATOM     14  C   UNL     1       2.391   2.707  19.941  0.00  0.00    +0.000 C 
ENDBRANCH  10  14
ENDBRANCH   1  10
BRANCH   7  15
ATOM     15  C   UNL     1       6.559   3.736  15.095  0.00  0.00    +0.000 C 
BRANCH  15  16
ATOM     16  N   UNL     1       6.345   4.462  13.827  0.00  0.00    +0.000 NA
ATOM     17  C   UNL     1       7.590   5.049  13.329  0.00  0.00    +0.000 C 
ATOM     18  C   UNL     1       5.825   3.518  12.827  0.00  0.00    +0.000 C 
ENDBRANCH  15  16
ENDBRANCH   7  15
TORSDOF 4
ENDMDL
MODEL 3
REMARK VINA RESULT:      -6.4      2.318      5.359
REMARK  Name = 
REMARK  7 active torsions:
REMARK  status: ('A' for Active; 'I' for Inactive)
REMARK    1  A    between atoms: C_1  and  C_2
REMARK    2  A    between atoms: C_2  and  S_3
REMARK    3  A    between atoms: S_3  and  N_6
REMARK    4  A    between atoms: C_12  and  C_13
REMARK    5  A    between atoms: C_13  and  N_14
REMARK    6  A    between atoms: N_14  and  C_15
REMARK    7  A    between atoms: N_14  and  C_16
REMARK                            x       y       z     vdW  Elec       q    Type
REMARK                         _______ _______ _______ _____ _____    ______ ____
ROOT
ATOM      1  N   UNL     1       5.632   5.363  17.271  0.00  0.00    +0.000 NA
ATOM      2  C   UNL     1       5.022   6.644  16.819  0.00  0.00    +0.000 C 
ATOM      3  C   UNL     1       3.716   6.957  17.541  0.00  0.00    +0.000 C 
ATOM      4  C   UNL     1       3.786   6.775  19.069  0.00  0.00    +0.000 C 
ATOM      5  C   UNL     1       2.405   6.481  19.640  0.00  0.00    +0.000 C 
ATOM      6  O   UNL     1       2.225   5.046  19.604  0.00  0.00    +0.000 OA
ATOM      7  C   UNL     1       3.461   4.462  19.139  0.00  0.00    +0.000 C 
ATOM      8  C   UNL     1       4.526   5.506  19.461  0.00  0.00    +0.000 C 
ATOM      9  C   UNL     1       5.848   5.323  18.745  0.00  0.00    +0.000 C 
ENDROOT
BRANCH   1  10
ATOM     10  S   UNL     1       6.997   4.855  16.363  0.00  0.00    +0.000 S 
ATOM     11  O   UNL     1       7.918   4.191  17.268  0.00  0.00    +0.000 OA
ATOM     12  O   UNL     1       7.403   5.975  15.543  0.00  0.00    +0.000 OA
BRANCH  10  14
ATOM     13  C   UNL     1       6.259   4.025  13.859  0.00  0.00    +0.000 C 
ATOM     14  C   UNL     1       6.268   3.602  15.314  0.00  0.00    +0.000 C 
ENDBRANCH  10  14
ENDBRANCH   1  10
BRANCH   7  15
ATOM     15  C   UNL     1       3.713   3.025  19.626  0.00  0.00    +0.000 C 
BRANCH  15  16
ATOM     16  N   UNL     1       3.007   1.926  18.937  0.00  0.00    +0.000 NA
ATOM     17  C   UNL     1       1.601   1.857  19.337  0.00  0.00    +0.000 C 
ATOM     18  C   UNL     1       3.083   2.155  17.486  0.00  0.00    +0.000 C 
ENDBRANCH  15  16
ENDBRANCH   7  15
TORSDOF 4
ENDMDL
MODEL 4
REMARK VINA RESULT:      -6.2      1.503      1.900
REMARK  Name = 
REMARK  7 active torsions:
REMARK  status: ('A' for Active; 'I' for Inactive)
REMARK    1  A    between atoms: C_1  and  C_2
REMARK    2  A    between atoms: C_2  and  S_3
REMARK    3  A    between atoms: S_3  and  N_6
REMARK    4  A    between atoms: C_12  and  C_13
REMARK    5  A    between atoms: C_13  and  N_14
REMARK    6  A    between atoms: N_14  and  C_15
REMARK    7  A    between atoms: N_14  and  C_16
REMARK                            x       y       z     vdW  Elec       q    Type
REMARK                         _______ _______ _______ _____ _____    ______ ____
ROOT
ATOM      1  N   UNL     1       3.647   4.396  18.259  0.00  0.00    +0.000 NA
ATOM      2  C   UNL     1       4.205   4.928  19.534  0.00  0.00    +0.000 C 
ATOM      3  C   UNL     1       5.687   5.266  19.427  0.00  0.00    +0.000 C 
ATOM      4  C   UNL     1       6.057   6.075  18.169  0.00  0.00    +0.000 C 
ATOM      5  C   UNL     1       7.515   5.845  17.790  0.00  0.00    +0.000 C 
ATOM      6  O   UNL     1       7.551   4.698  16.910  0.00  0.00    +0.000 OA
ATOM      7  C   UNL     1       6.186   4.295  16.661  0.00  0.00    +0.000 C 
ATOM      8  C   UNL     1       5.359   5.549  16.925  0.00  0.00    +0.000 C 
ATOM      9  C   UNL     1       3.874   5.317  17.109  0.00  0.00    +0.000 C 
ENDROOT
BRANCH   1  10
ATOM     10  S   UNL     1       2.036   3.814  18.366  0.00  0.00    +0.000 S 
ATOM     11  O   UNL     1       1.274   4.397  17.276  0.00  0.00    +0.000 OA
ATOM     12  O   UNL     1       1.625   3.950  19.746  0.00  0.00    +0.000 OA
BRANCH  10  14
ATOM     13  C   UNL     1       3.709   1.651  18.202  0.00  0.00    +0.000 C 
ATOM     14  C   UNL     1       2.269   2.079  17.997  0.00  0.00    +0.000 C 
ENDBRANCH  10  14
ENDBRANCH   1  10
BRANCH   7  15
ATOM     15  C   UNL     1       5.966   3.574  15.320  0.00  0.00    +0.000 C 
BRANCH  15  16
ATOM     16  N   UNL     1       5.993   4.382  14.085  0.00  0.00    +0.000 NA
ATOM     17  C   UNL     1       7.308   4.990  13.870  0.00  0.00    +0.000 C 
ATOM     18  C   UNL     1       5.675   3.510  12.945  0.00  0.00    +0.000 C 
ENDBRANCH  15  16
ENDBRANCH   7  15
TORSDOF 4
ENDMDL
MODEL 5
REMARK VINA RESULT:      -6.2      2.877      5.685
REMARK  Name = 
REMARK  7 active torsions:
REMARK  status: ('A' for Active; 'I' for Inactive)
REMARK    1  A    between atoms: C_1  and  C_2
REMARK    2  A    between atoms: C_2  and  S_3
REMARK    3  A    between atoms: S_3  and  N_6
REMARK    4  A    between atoms: C_12  and  C_13
REMARK    5  A    between atoms: C_13  and  N_14
REMARK    6  A    between atoms: N_14  and  C_15
REMARK    7  A    between atoms: N_14  and  C_16
REMARK                            x       y       z     vdW  Elec       q    Type
REMARK                         _______ _______ _______ _____ _____    ______ ____
ROOT
ATOM      1  N   UNL     1       5.262   4.341  18.627  0.00  0.00    +0.000 NA
ATOM      2  C   UNL     1       5.236   3.023  19.320  0.00  0.00    +0.000 C 
ATOM      3  C   UNL     1       3.824   2.464  19.461  0.00  0.00    +0.000 C 
ATOM      4  C   UNL     1       2.989   2.535  18.169  0.00  0.00    +0.000 C 
ATOM      5  C   UNL     1       1.501   2.576  18.490  0.00  0.00    +0.000 C 
ATOM      6  O   UNL     1       1.137   3.966  18.652  0.00  0.00    +0.000 OA
ATOM      7  C   UNL     1       2.303   4.762  18.343  0.00  0.00    +0.000 C 
ATOM      8  C   UNL     1       3.156   3.866  17.452  0.00  0.00    +0.000 C 
ATOM      9  C   UNL     1       4.600   4.298  17.293  0.00  0.00    +0.000 C 
ENDROOT
BRANCH   1  10
ATOM     10  S   UNL     1       6.794   5.114  18.609  0.00  0.00    +0.000 S 
ATOM     11  O   UNL     1       7.701   4.298  17.822  0.00  0.00    +0.000 OA
ATOM     12  O   UNL     1       7.094   5.496  19.971  0.00  0.00    +0.000 OA
BRANCH  10  14
ATOM     13  C   UNL     1       7.619   7.520  17.592  0.00  0.00    +0.000 C 
ATOM     14  C   UNL     1       6.428   6.587  17.661  0.00  0.00    +0.000 C 
ENDBRANCH  10  14
ENDBRANCH   1  10
BRANCH   7  15
ATOM     15  C   UNL     1       1.993   6.179  17.830  0.00  0.00    +0.000 C 
BRANCH  15  16
ATOM     16  N   UNL     1       2.645   7.318  18.505  0.00  0.00    +0.000 NA
ATOM     17  C   UNL     1       2.365   8.581  17.819  0.00  0.00    +0.000 C 
ATOM     18  C   UNL     1       2.141   7.398  19.884  0.00  0.00    +0.000 C 
ENDBRANCH  15  16
ENDBRANCH   7  15
TORSDOF 4
ENDMDL
MODEL 6
REMARK VINA RESULT:      -6.2      3.034      6.239
REMARK  Name = 
REMARK  7 active torsions:
REMARK  status: ('A' for Active; 'I' for Inactive)
REMARK    1  A    between atoms: C_1  and  C_2
REMARK    2  A    between atoms: C_2  and  S_3
REMARK    3  A    between atoms: S_3  and  N_6
REMARK    4  A    between atoms: C_12  and  C_13
REMARK    5  A    between atoms: C_13  and  N_14
REMARK    6  A    between atoms: N_14  and  C_15
REMARK    7  A    between atoms: N_14  and  C_16
REMARK                            x       y       z     vdW  Elec       q    Type
REMARK                         _______ _______ _______ _____ _____    ______ ____
ROOT
ATOM      1  N   UNL     1       4.601   4.461  18.306  0.00  0.00    +0.000 NA
ATOM      2  C   UNL     1       4.355   3.053  18.725  0.00  0.00    +0.000 C 
ATOM      3  C   UNL     1       3.114   2.912  19.601  0.00  0.00    +0.000 C 
ATOM      4  C   UNL     1       1.878   3.654  19.059  0.00  0.00    +0.000 C 
ATOM      5  C   UNL     1       0.925   4.011  20.193  0.00  0.00    +0.000 C 
ATOM      6  O   UNL     1       1.326   5.307  20.695  0.00  0.00    +0.000 OA
ATOM      7  C   UNL     1       2.399   5.787  19.857  0.00  0.00    +0.000 C 
ATOM      8  C   UNL     1       2.224   5.040  18.539  0.00  0.00    +0.000 C 
ATOM      9  C   UNL     1       3.426   5.064  17.617  0.00  0.00    +0.000 C 
ENDROOT
BRANCH   1  10
ATOM     10  S   UNL     1       6.086   4.717  17.484  0.00  0.00    +0.000 S 
ATOM     11  O   UNL     1       6.031   4.003  16.222  0.00  0.00    +0.000 OA
ATOM     12  O   UNL     1       7.146   4.497  18.442  0.00  0.00    +0.000 OA
BRANCH  10  14
ATOM     13  C   UNL     1       7.275   7.185  17.459  0.00  0.00    +0.000 C 
ATOM     14  C   UNL     1       5.984   6.467  17.122  0.00  0.00    +0.000 C 
ENDBRANCH  10  14
ENDBRANCH   1  10
BRANCH   7  15
ATOM     15  C   UNL     1       2.522   7.320  19.789  0.00  0.00    +0.000 C 
BRANCH  15  16
ATOM     16  N   UNL     1       1.312   8.124  20.051  0.00  0.00    +0.000 NA
ATOM     17  C   UNL     1       1.305   8.652  21.417  0.00  0.00    +0.000 C 
ATOM     18  C   UNL     1       1.279   9.247  19.102  0.00  0.00    +0.000 C 
ENDBRANCH  15  16
ENDBRANCH   7  15
TORSDOF 4
ENDMDL
MODEL 7
REMARK VINA RESULT:      -6.2      2.922      5.448
REMARK  Name = 
REMARK  7 active torsions:
REMARK  status: ('A' for Active; 'I' for Inactive)
REMARK    1  A    between atoms: C_1  and  C_2
REMARK    2  A    between atoms: C_2  and  S_3
REMARK    3  A    between atoms: S_3  and  N_6
REMARK    4  A    between atoms: C_12  and  C_13
REMARK    5  A    between atoms: C_13  and  N_14
REMARK    6  A    between atoms: N_14  and  C_15
REMARK    7  A    between atoms: N_14  and  C_16
REMARK                            x       y       z     vdW  Elec       q    Type
REMARK                         _______ _______ _______ _____ _____    ______ ____
ROOT
ATOM      1  N   UNL     1       4.378   5.637  17.673  0.00  0.00    +0.000 NA
ATOM      2  C   UNL     1       3.707   6.959  17.531  0.00  0.00    +0.000 C 
ATOM      3  C   UNL     1       2.493   7.100  18.443  0.00  0.00    +0.000 C 
ATOM      4  C   UNL     1       2.745   6.653  19.895  0.00  0.00    +0.000 C 
ATOM      5  C   UNL     1       1.444   6.221  20.559  0.00  0.00    +0.000 C 
ATOM      6  O   UNL     1       1.273   4.811  20.288  0.00  0.00    +0.000 OA
ATOM      7  C   UNL     1       2.451   4.355  19.587  0.00  0.00    +0.000 C 
ATOM      8  C   UNL     1       3.537   5.356  19.966  0.00  0.00    +0.000 C 
ATOM      9  C   UNL     1       4.767   5.343  19.081  0.00  0.00    +0.000 C 
ENDROOT
BRANCH   1  10
ATOM     10  S   UNL     1       5.629   5.339  16.537  0.00  0.00    +0.000 S 
ATOM     11  O   UNL     1       5.536   6.342  15.492  0.00  0.00    +0.000 OA
ATOM     12  O   UNL     1       5.610   3.923  16.243  0.00  0.00    +0.000 OA
BRANCH  10  14
ATOM     13  C   UNL     1       7.455   7.175  17.432  0.00  0.00    +0.000 C 
ATOM     14  C   UNL     1       7.081   5.709  17.517  0.00  0.00    +0.000 C 
ENDBRANCH  10  14
ENDBRANCH   1  10
BRANCH   7  15
ATOM     15  C   UNL     1       2.771   2.862  19.775  0.00  0.00    +0.000 C 
BRANCH  15  16
ATOM     16  N   UNL     1       2.649   1.974  18.602  0.00  0.00    +0.000 NA
ATOM     17  C   UNL     1       2.403   2.734  17.376  0.00  0.00    +0.000 C 
ATOM     18  C   UNL     1       3.901   1.216  18.454  0.00  0.00    +0.000 C 
ENDBRANCH  15  16
ENDBRANCH   7  15
TORSDOF 4
ENDMDL
MODEL 8
REMARK VINA RESULT:      -6.1      2.372      5.648
REMARK  Name = 
REMARK  7 active torsions:
REMARK  status: ('A' for Active; 'I' for Inactive)
REMARK    1  A    between atoms: C_1  and  C_2
REMARK    2  A    between atoms: C_2  and  S_3
REMARK    3  A    between atoms: S_3  and  N_6
REMARK    4  A    between atoms: C_12  and  C_13
REMARK    5  A    between atoms: C_13  and  N_14
REMARK    6  A    between atoms: N_14  and  C_15
REMARK    7  A    between atoms: N_14  and  C_16
REMARK                            x       y       z     vdW  Elec       q    Type
REMARK                         _______ _______ _______ _____ _____    ______ ____
ROOT
ATOM      1  N   UNL     1       5.596   5.469  17.283  0.00  0.00    +0.000 NA
ATOM      2  C   UNL     1       5.095   6.808  16.868  0.00  0.00    +0.000 C 
ATOM      3  C   UNL     1       3.730   7.134  17.465  0.00  0.00    +0.000 C 
ATOM      4  C   UNL     1       3.619   6.839  18.973  0.00  0.00    +0.000 C 
ATOM      5  C   UNL     1       2.172   6.574  19.365  0.00  0.00    +0.000 C 
ATOM      6  O   UNL     1       1.937   5.156  19.199  0.00  0.00    +0.000 OA
ATOM      7  C   UNL     1       3.192   4.546  18.828  0.00  0.00    +0.000 C 
ATOM      8  C   UNL     1       4.257   5.509  19.344  0.00  0.00    +0.000 C 
ATOM      9  C   UNL     1       5.642   5.312  18.765  0.00  0.00    +0.000 C 
ENDROOT
BRANCH   1  10
ATOM     10  S   UNL     1       7.032   4.960  16.493  0.00  0.00    +0.000 S 
ATOM     11  O   UNL     1       7.889   4.330  17.481  0.00  0.00    +0.000 OA
ATOM     12  O   UNL     1       7.485   6.067  15.681  0.00  0.00    +0.000 OA
BRANCH  10  14
ATOM     13  C   UNL     1       5.756   4.246  14.176  0.00  0.00    +0.000 C 
ATOM     14  C   UNL     1       6.400   3.673  15.422  0.00  0.00    +0.000 C 
ENDBRANCH  10  14
ENDBRANCH   1  10
BRANCH   7  15
ATOM     15  C   UNL     1       3.327   3.066  19.227  0.00  0.00    +0.000 C 
BRANCH  15  16
ATOM     16  N   UNL     1       3.776   2.755  20.598  0.00  0.00    +0.000 NA
ATOM     17  C   UNL     1       2.647   2.435  21.473  0.00  0.00    +0.000 C 
ATOM     18  C   UNL     1       4.685   1.601  20.545  0.00  0.00    +0.000 C 
ENDBRANCH  15  16
ENDBRANCH   7  15
TORSDOF 4
ENDMDL
MODEL 9
REMARK VINA RESULT:      -6.1      2.611      3.795
REMARK  Name = 
REMARK  7 active torsions:
REMARK  status: ('A' for Active; 'I' for Inactive)
REMARK    1  A    between atoms: C_1  and  C_2
REMARK    2  A    between atoms: C_2  and  S_3
REMARK    3  A    between atoms: S_3  and  N_6
REMARK    4  A    between atoms: C_12  and  C_13
REMARK    5  A    between atoms: C_13  and  N_14
REMARK    6  A    between atoms: N_14  and  C_15
REMARK    7  A    between atoms: N_14  and  C_16
REMARK                            x       y       z     vdW  Elec       q    Type
REMARK                         _______ _______ _______ _____ _____    ______ ____
ROOT
ATOM      1  N   UNL     1       2.448   4.434  19.828  0.00  0.00    +0.000 NA
ATOM      2  C   UNL     1       1.920   5.542  20.671  0.00  0.00    +0.000 C 
ATOM      3  C   UNL     1       2.208   6.917  20.079  0.00  0.00    +0.000 C 
ATOM      4  C   UNL     1       1.884   7.034  18.578  0.00  0.00    +0.000 C 
ATOM      5  C   UNL     1       2.730   8.121  17.928  0.00  0.00    +0.000 C 
ATOM      6  O   UNL     1       3.958   7.498  17.485  0.00  0.00    +0.000 OA
ATOM      7  C   UNL     1       3.848   6.081  17.743  0.00  0.00    +0.000 C 
ATOM      8  C   UNL     1       2.347   5.814  17.796  0.00  0.00    +0.000 C 
ATOM      9  C   UNL     1       1.946   4.496  18.426  0.00  0.00    +0.000 C 
ENDROOT
BRANCH   1  10
ATOM     10  S   UNL     1       2.330   2.873  20.531  0.00  0.00    +0.000 S 
ATOM     11  O   UNL     1       1.240   2.169  19.882  0.00  0.00    +0.000 OA
ATOM     12  O   UNL     1       2.381   3.048  21.966  0.00  0.00    +0.000 OA
BRANCH  10  14
ATOM     13  C   UNL     1       3.711   1.476  18.623  0.00  0.00    +0.000 C 
ATOM     14  C   UNL     1       3.862   2.129  19.982  0.00  0.00    +0.000 C 
ENDBRANCH  10  14
ENDBRANCH   1  10
BRANCH   7  15
ATOM     15  C   UNL     1       4.690   5.193  16.812  0.00  0.00    +0.000 C 
BRANCH  15  16
ATOM     16  N   UNL     1       6.021   4.760  17.283  0.00  0.00    +0.000 NA
ATOM     17  C   UNL     1       7.084   5.610  16.746  0.00  0.00    +0.000 C 
ATOM     18  C   UNL     1       6.045   4.830  18.752  0.00  0.00    +0.000 C 
ENDBRANCH  15  16
ENDBRANCH   7  15
TORSDOF 4
ENDMDL
