MODEL 1
REMARK VINA RESULT:      -7.7      0.000      0.000
REMARK  Name = 
REMARK  4 active torsions:
REMARK  status: ('A' for Active; 'I' for Inactive)
REMARK    1  A    between atoms: C_1  and  C_2
REMARK    2  A    between atoms: C_2  and  C_3
REMARK    3  A    between atoms: C_3  and  N_4
REMARK    4  A    between atoms: C_10  and  C_12
REMARK                            x       y       z     vdW  Elec       q    Type
REMARK                         _______ _______ _______ _____ _____    ______ ____
ROOT
ATOM      1  N   UNL     1       6.091   4.428  14.228  0.00  0.00    +0.000 N 
ATOM      2  N   UNL     1       7.213   4.783  13.577  0.00  0.00    +0.000 NA
ATOM      3  N   UNL     1       7.889   5.528  14.435  0.00  0.00    +0.000 NA
ATOM      4  N   UNL     1       7.201   5.665  15.608  0.00  0.00    +0.000 NA
ATOM      5  C   UNL     1       6.073   4.995  15.483  0.00  0.00    +0.000 A 
ATOM      6  N   UNL     1       5.054   4.879  16.414  0.00  0.00    +0.000 N 
ATOM      7  C   UNL     1       5.145   5.536  17.632  0.00  0.00    +0.000 C 
ATOM      8  O   UNL     1       6.113   6.165  18.039  0.00  0.00    +0.000 OA
ATOM      9  H   UNL     1       4.207   4.384  16.172  0.00  0.00    +0.000 HD
ENDROOT
BRANCH   7  10
ATOM     10  C   UNL     1       3.972   5.461  18.554  0.00  0.00    +0.000 A 
ATOM     11  C   UNL     1       3.875   4.289  19.339  0.00  0.00    +0.000 A 
ATOM     12  C   UNL     1       2.890   4.166  20.317  0.00  0.00    +0.000 A 
ATOM     13 CL   UNL     1       2.795   2.739  21.270  0.00  0.00    +0.000 Cl
ATOM     14  C   UNL     1       1.988   5.201  20.536  0.00  0.00    +0.000 A 
ATOM     15  C   UNL     1       2.061   6.358  19.757  0.00  0.00    +0.000 A 
ATOM     16  C   UNL     1       3.044   6.490  18.764  0.00  0.00    +0.000 A 
ATOM     17 CL   UNL     1       3.043   7.971  17.875  0.00  0.00    +0.000 Cl
ENDBRANCH   7  10
BRANCH   1  18
ATOM     18  C   UNL     1       5.166   3.542  13.562  0.00  0.00    +0.000 C 
BRANCH  18  20
ATOM     19  C   UNL     1       4.210   3.188  11.231  0.00  0.00    +0.000 C 
ATOM     20  C   UNL     1       5.468   3.358  12.070  0.00  0.00    +0.000 C 
ENDBRANCH  18  20
ENDBRANCH   1  18
TORSDOF 3
ENDMDL
MODEL 2
REMARK VINA RESULT:      -7.6      1.640      2.466
REMARK  Name = 
REMARK  4 active torsions:
REMARK  status: ('A' for Active; 'I' for Inactive)
REMARK    1  A    between atoms: C_1  and  C_2
REMARK    2  A    between atoms: C_2  and  C_3
REMARK    3  A    between atoms: C_3  and  N_4
REMARK    4  A    between atoms: C_10  and  C_12
REMARK                            x       y       z     vdW  Elec       q    Type
REMARK                         _______ _______ _______ _____ _____    ______ ____
ROOT
ATOM      1  N   UNL     1       6.183   4.441  15.087  0.00  0.00    +0.000 N 
ATOM      2  N   UNL     1       7.451   4.730  14.744  0.00  0.00    +0.000 NA
ATOM      3  N   UNL     1       8.101   4.846  15.888  0.00  0.00    +0.000 NA
ATOM      4  N   UNL     1       7.259   4.657  16.948  0.00  0.00    +0.000 NA
ATOM      5  C   UNL     1       6.059   4.418  16.459  0.00  0.00    +0.000 A 
ATOM      6  N   UNL     1       4.889   4.195  17.166  0.00  0.00    +0.000 N 
ATOM      7  C   UNL     1       4.895   4.237  18.552  0.00  0.00    +0.000 C 
ATOM      8  O   UNL     1       5.882   4.364  19.264  0.00  0.00    +0.000 OA
ATOM      9  H   UNL     1       4.016   4.085  16.670  0.00  0.00    +0.000 HD
ENDROOT
BRANCH   7  10
ATOM     10  C   UNL     1       3.587   4.093  19.260  0.00  0.00    +0.000 A 
ATOM     11  C   UNL     1       3.061   5.272  19.836  0.00  0.00    +0.000 A 
ATOM     12  C   UNL     1       1.793   5.278  20.415  0.00  0.00    +0.000 A 
ATOM     13 CL   UNL     1       1.166   6.724  21.100  0.00  0.00    +0.000 Cl
ATOM     14  C   UNL     1       1.025   4.119  20.430  0.00  0.00    +0.000 A 
ATOM     15  C   UNL     1       1.537   2.943  19.880  0.00  0.00    +0.000 A 
ATOM     16  C   UNL     1       2.816   2.922  19.300  0.00  0.00    +0.000 A 
ATOM     17 CL   UNL     1       3.336   1.413  18.640  0.00  0.00    +0.000 Cl
ENDBRANCH   7  10
BRANCH   1  18
ATOM     18  C   UNL     1       5.231   4.187  14.033  0.00  0.00    +0.000 C 
BRANCH  18  20
ATOM     19  C   UNL     1       4.824   3.154  11.743  0.00  0.00    +0.000 C 
ATOM     20  C   UNL     1       5.857   3.542  12.791  0.00  0.00    +0.000 C 
ENDBRANCH  18  20
ENDBRANCH   1  18
TORSDOF 3
ENDMDL
MODEL 3
REMARK VINA RESULT:      -7.6      1.309      1.421
REMARK  Name = 
REMARK  4 active torsions:
REMARK  status: ('A' for Active; 'I' for Inactive)
REMARK    1  A    between atoms: C_1  and  C_2
REMARK    2  A    between atoms: C_2  and  C_3
REMARK    3  A    between atoms: C_3  and  N_4
REMARK    4  A    between atoms: C_10  and  C_12
REMARK                            x       y       z     vdW  Elec       q    Type
REMARK                         _______ _______ _______ _____ _____    ______ ____
ROOT
ATOM      1  N   UNL     1       6.556   4.214  13.076  0.00  0.00    +0.000 N 
ATOM      2  N   UNL     1       7.667   4.705  12.499  0.00  0.00    +0.000 NA
ATOM      3  N   UNL     1       8.214   5.489  13.412  0.00  0.00    +0.000 NA
ATOM      4  N   UNL     1       7.454   5.517  14.548  0.00  0.00    +0.000 NA
ATOM      5  C   UNL     1       6.411   4.737  14.343  0.00  0.00    +0.000 A 
ATOM      6  N   UNL     1       5.362   4.486  15.212  0.00  0.00    +0.000 N 
ATOM      7  C   UNL     1       5.318   5.110  16.449  0.00  0.00    +0.000 C 
ATOM      8  O   UNL     1       6.190   5.823  16.926  0.00  0.00    +0.000 OA
ATOM      9  H   UNL     1       4.586   3.914  14.909  0.00  0.00    +0.000 HD
ENDROOT
BRANCH   7  10
ATOM     10  C   UNL     1       4.112   4.884  17.301  0.00  0.00    +0.000 A 
ATOM     11  C   UNL     1       3.821   3.538  17.619  0.00  0.00    +0.000 A 
ATOM     12  C   UNL     1       2.792   3.221  18.504  0.00  0.00    +0.000 A 
ATOM     13 CL   UNL     1       2.461   1.579  18.889  0.00  0.00    +0.000 Cl
ATOM     14  C   UNL     1       2.037   4.231  19.090  0.00  0.00    +0.000 A 
ATOM     15  C   UNL     1       2.301   5.564  18.773  0.00  0.00    +0.000 A 
ATOM     16  C   UNL     1       3.330   5.896  17.877  0.00  0.00    +0.000 A 
ATOM     17 CL   UNL     1       3.571   7.579  17.573  0.00  0.00    +0.000 Cl
ENDBRANCH   7  10
BRANCH   1  18
ATOM     18  C   UNL     1       5.767   3.258  12.337  0.00  0.00    +0.000 C 
BRANCH  18  20
ATOM     19  C   UNL     1       3.672   2.854  10.951  0.00  0.00    +0.000 C 
ATOM     20  C   UNL     1       4.574   3.887  11.609  0.00  0.00    +0.000 C 
ENDBRANCH  18  20
ENDBRANCH   1  18
TORSDOF 3
ENDMDL
MODEL 4
REMARK VINA RESULT:      -7.3      2.214      2.486
REMARK  Name = 
REMARK  4 active torsions:
REMARK  status: ('A' for Active; 'I' for Inactive)
REMARK    1  A    between atoms: C_1  and  C_2
REMARK    2  A    between atoms: C_2  and  C_3
REMARK    3  A    between atoms: C_3  and  N_4
REMARK    4  A    between atoms: C_10  and  C_12
REMARK                            x       y       z     vdW  Elec       q    Type
REMARK                         _______ _______ _______ _____ _____    ______ ____
ROOT
ATOM      1  N   UNL     1       6.709   4.121  12.670  0.00  0.00    +0.000 N 
ATOM      2  N   UNL     1       7.542   4.761  11.830  0.00  0.00    +0.000 NA
ATOM      3  N   UNL     1       8.221   5.601  12.590  0.00  0.00    +0.000 NA
ATOM      4  N   UNL     1       7.815   5.517  13.893  0.00  0.00    +0.000 NA
ATOM      5  C   UNL     1       6.864   4.607  13.949  0.00  0.00    +0.000 A 
ATOM      6  N   UNL     1       6.141   4.210  15.063  0.00  0.00    +0.000 N 
ATOM      7  C   UNL     1       6.371   4.811  16.292  0.00  0.00    +0.000 C 
ATOM      8  O   UNL     1       7.246   5.629  16.540  0.00  0.00    +0.000 OA
ATOM      9  H   UNL     1       5.390   3.543  14.962  0.00  0.00    +0.000 HD
ENDROOT
BRANCH   7  10
ATOM     10  C   UNL     1       5.492   4.418  17.435  0.00  0.00    +0.000 A 
ATOM     11  C   UNL     1       4.368   3.626  17.108  0.00  0.00    +0.000 A 
ATOM     12  C   UNL     1       3.549   3.104  18.109  0.00  0.00    +0.000 A 
ATOM     13 CL   UNL     1       2.194   2.133  17.693  0.00  0.00    +0.000 Cl
ATOM     14  C   UNL     1       3.832   3.355  19.446  0.00  0.00    +0.000 A 
ATOM     15  C   UNL     1       4.929   4.149  19.784  0.00  0.00    +0.000 A 
ATOM     16  C   UNL     1       5.757   4.687  18.785  0.00  0.00    +0.000 A 
ATOM     17 CL   UNL     1       7.091   5.642  19.324  0.00  0.00    +0.000 Cl
ENDBRANCH   7  10
BRANCH   1  18
ATOM     18  C   UNL     1       5.870   3.076  12.135  0.00  0.00    +0.000 C 
BRANCH  18  20
ATOM     19  C   UNL     1       3.776   3.235  10.697  0.00  0.00    +0.000 C 
ATOM     20  C   UNL     1       4.386   3.458  12.073  0.00  0.00    +0.000 C 
ENDBRANCH  18  20
ENDBRANCH   1  18
TORSDOF 3
ENDMDL
MODEL 5
REMARK VINA RESULT:      -7.2      1.343      2.563
REMARK  Name = 
REMARK  4 active torsions:
REMARK  status: ('A' for Active; 'I' for Inactive)
REMARK    1  A    between atoms: C_1  and  C_2
REMARK    2  A    between atoms: C_2  and  C_3
REMARK    3  A    between atoms: C_3  and  N_4
REMARK    4  A    between atoms: C_10  and  C_12
REMARK                            x       y       z     vdW  Elec       q    Type
REMARK                         _______ _______ _______ _____ _____    ______ ____
ROOT
ATOM      1  N   UNL     1       6.286   4.318  13.522  0.00  0.00    +0.000 N 
ATOM      2  N   UNL     1       7.369   4.435  12.734  0.00  0.00    +0.000 NA
ATOM      3  N   UNL     1       8.171   5.271  13.370  0.00  0.00    +0.000 NA
ATOM      4  N   UNL     1       7.601   5.699  14.536  0.00  0.00    +0.000 NA
ATOM      5  C   UNL     1       6.421   5.121  14.632  0.00  0.00    +0.000 A 
ATOM      6  N   UNL     1       5.482   5.284  15.638  0.00  0.00    +0.000 N 
ATOM      7  C   UNL     1       5.728   6.159  16.685  0.00  0.00    +0.000 C 
ATOM      8  O   UNL     1       6.771   6.767  16.884  0.00  0.00    +0.000 OA
ATOM      9  H   UNL     1       4.583   4.830  15.563  0.00  0.00    +0.000 HD
ENDROOT
BRANCH   7  10
ATOM     10  C   UNL     1       4.638   6.374  17.685  0.00  0.00    +0.000 A 
ATOM     11  C   UNL     1       3.763   7.453  17.425  0.00  0.00    +0.000 A 
ATOM     12  C   UNL     1       2.643   7.671  18.225  0.00  0.00    +0.000 A 
ATOM     13 CL   UNL     1       1.584   8.981  17.886  0.00  0.00    +0.000 Cl
ATOM     14  C   UNL     1       2.371   6.823  19.293  0.00  0.00    +0.000 A 
ATOM     15  C   UNL     1       3.235   5.763  19.572  0.00  0.00    +0.000 A 
ATOM     16  C   UNL     1       4.371   5.538  18.777  0.00  0.00    +0.000 A 
ATOM     17 CL   UNL     1       5.357   4.188  19.212  0.00  0.00    +0.000 Cl
ENDBRANCH   7  10
BRANCH   1  18
ATOM     18  C   UNL     1       5.244   3.404  13.120  0.00  0.00    +0.000 C 
BRANCH  18  20
ATOM     19  C   UNL     1       3.823   3.152  11.024  0.00  0.00    +0.000 C 
ATOM     20  C   UNL     1       5.226   3.128  11.612  0.00  0.00    +0.000 C 
ENDBRANCH  18  20
ENDBRANCH   1  18
TORSDOF 3
ENDMDL
MODEL 6
REMARK VINA RESULT:      -7.2      2.741      4.316
REMARK  Name = 
REMARK  4 active torsions:
REMARK  status: ('A' for Active; 'I' for Inactive)
REMARK    1  A    between atoms: C_1  and  C_2
REMARK    2  A    between atoms: C_2  and  C_3
REMARK    3  A    between atoms: C_3  and  N_4
REMARK    4  A    between atoms: C_10  and  C_12
REMARK                            x       y       z     vdW  Elec       q    Type
REMARK                         _______ _______ _______ _____ _____    ______ ____
ROOT
ATOM      1  N   UNL     1       7.203   6.229  16.961  0.00  0.00    +0.000 N 
ATOM      2  N   UNL     1       7.910   6.158  15.819  0.00  0.00    +0.000 NA
ATOM      3  N   UNL     1       7.202   5.376  15.022  0.00  0.00    +0.000 NA
ATOM      4  N   UNL     1       6.071   4.936  15.651  0.00  0.00    +0.000 NA
ATOM      5  C   UNL     1       6.070   5.452  16.864  0.00  0.00    +0.000 A 
ATOM      6  N   UNL     1       5.130   5.255  17.863  0.00  0.00    +0.000 N 
ATOM      7  C   UNL     1       4.051   4.411  17.647  0.00  0.00    +0.000 C 
ATOM      8  O   UNL     1       3.767   3.863  16.591  0.00  0.00    +0.000 OA
ATOM      9  H   UNL     1       5.277   5.660  18.776  0.00  0.00    +0.000 HD
ENDROOT
BRANCH   7  10
ATOM     10  C   UNL     1       3.127   4.154  18.793  0.00  0.00    +0.000 A 
ATOM     11  C   UNL     1       2.594   5.299  19.427  0.00  0.00    +0.000 A 
ATOM     12  C   UNL     1       1.631   5.176  20.427  0.00  0.00    +0.000 A 
ATOM     13 CL   UNL     1       0.984   6.580  21.179  0.00  0.00    +0.000 Cl
ATOM     14  C   UNL     1       1.179   3.919  20.813  0.00  0.00    +0.000 A 
ATOM     15  C   UNL     1       1.708   2.778  20.207  0.00  0.00    +0.000 A 
ATOM     16  C   UNL     1       2.685   2.889  19.203  0.00  0.00    +0.000 A 
ATOM     17 CL   UNL     1       3.254   1.409  18.519  0.00  0.00    +0.000 Cl
ENDBRANCH   7  10
BRANCH   1  18
ATOM     18  C   UNL     1       7.695   7.080  18.017  0.00  0.00    +0.000 C 
BRANCH  18  20
ATOM     19  C   UNL     1       8.680   9.356  18.589  0.00  0.00    +0.000 C 
ATOM     20  C   UNL     1       7.875   8.541  17.588  0.00  0.00    +0.000 C 
ENDBRANCH  18  20
ENDBRANCH   1  18
TORSDOF 3
ENDMDL
MODEL 7
REMARK VINA RESULT:      -7.0      2.266      2.624
REMARK  Name = 
REMARK  4 active torsions:
REMARK  status: ('A' for Active; 'I' for Inactive)
REMARK    1  A    between atoms: C_1  and  C_2
REMARK    2  A    between atoms: C_2  and  C_3
REMARK    3  A    between atoms: C_3  and  N_4
REMARK    4  A    between atoms: C_10  and  C_12
REMARK                            x       y       z     vdW  Elec       q    Type
REMARK                         _______ _______ _______ _____ _____    ______ ____
ROOT
ATOM      1  N   UNL     1       6.760   4.060  12.687  0.00  0.00    +0.000 N 
ATOM      2  N   UNL     1       7.575   4.716  11.843  0.00  0.00    +0.000 NA
ATOM      3  N   UNL     1       8.209   5.601  12.592  0.00  0.00    +0.000 NA
ATOM      4  N   UNL     1       7.792   5.527  13.891  0.00  0.00    +0.000 NA
ATOM      5  C   UNL     1       6.879   4.579  13.957  0.00  0.00    +0.000 A 
ATOM      6  N   UNL     1       6.161   4.175  15.072  0.00  0.00    +0.000 N 
ATOM      7  C   UNL     1       6.350   4.811  16.289  0.00  0.00    +0.000 C 
ATOM      8  O   UNL     1       7.187   5.671  16.529  0.00  0.00    +0.000 OA
ATOM      9  H   UNL     1       5.440   3.475  14.977  0.00  0.00    +0.000 HD
ENDROOT
BRANCH   7  10
ATOM     10  C   UNL     1       5.476   4.406  17.431  0.00  0.00    +0.000 A 
ATOM     11  C   UNL     1       4.354   3.612  17.101  0.00  0.00    +0.000 A 
ATOM     12  C   UNL     1       3.539   3.080  18.099  0.00  0.00    +0.000 A 
ATOM     13 CL   UNL     1       2.186   2.107  17.678  0.00  0.00    +0.000 Cl
ATOM     14  C   UNL     1       3.824   3.321  19.438  0.00  0.00    +0.000 A 
ATOM     15  C   UNL     1       4.919   4.116  19.779  0.00  0.00    +0.000 A 
ATOM     16  C   UNL     1       5.743   4.665  18.783  0.00  0.00    +0.000 A 
ATOM     17 CL   UNL     1       7.075   5.620  19.327  0.00  0.00    +0.000 Cl
ENDBRANCH   7  10
BRANCH   1  18
ATOM     18  C   UNL     1       5.972   2.968  12.167  0.00  0.00    +0.000 C 
BRANCH  18  20
ATOM     19  C   UNL     1       6.163   0.634  11.172  0.00  0.00    +0.000 C 
ATOM     20  C   UNL     1       6.765   2.029  11.250  0.00  0.00    +0.000 C 
ENDBRANCH  18  20
ENDBRANCH   1  18
TORSDOF 3
ENDMDL
MODEL 8
REMARK VINA RESULT:      -7.0      0.994      1.111
REMARK  Name = 
REMARK  4 active torsions:
REMARK  status: ('A' for Active; 'I' for Inactive)
REMARK    1  A    between atoms: C_1  and  C_2
REMARK    2  A    between atoms: C_2  and  C_3
REMARK    3  A    between atoms: C_3  and  N_4
REMARK    4  A    between atoms: C_10  and  C_12
REMARK                            x       y       z     vdW  Elec       q    Type
REMARK                         _______ _______ _______ _____ _____    ______ ____
ROOT
ATOM      1  N   UNL     1       6.394   4.238  13.437  0.00  0.00    +0.000 N 
ATOM      2  N   UNL     1       7.426   4.678  12.695  0.00  0.00    +0.000 NA
ATOM      3  N   UNL     1       8.119   5.465  13.498  0.00  0.00    +0.000 NA
ATOM      4  N   UNL     1       7.529   5.547  14.728  0.00  0.00    +0.000 NA
ATOM      5  C   UNL     1       6.446   4.796  14.695  0.00  0.00    +0.000 A 
ATOM      6  N   UNL     1       5.524   4.602  15.711  0.00  0.00    +0.000 N 
ATOM      7  C   UNL     1       5.674   5.258  16.922  0.00  0.00    +0.000 C 
ATOM      8  O   UNL     1       6.625   5.954  17.251  0.00  0.00    +0.000 OA
ATOM      9  H   UNL     1       4.697   4.048  15.538  0.00  0.00    +0.000 HD
ENDROOT
BRANCH   7  10
ATOM     10  C   UNL     1       4.595   5.093  17.943  0.00  0.00    +0.000 A 
ATOM     11  C   UNL     1       4.633   3.898  18.696  0.00  0.00    +0.000 A 
ATOM     12  C   UNL     1       3.748   3.694  19.754  0.00  0.00    +0.000 A 
ATOM     13 CL   UNL     1       3.817   2.239  20.667  0.00  0.00    +0.000 Cl
ATOM     14  C   UNL     1       2.816   4.671  20.085  0.00  0.00    +0.000 A 
ATOM     15  C   UNL     1       2.756   5.850  19.340  0.00  0.00    +0.000 A 
ATOM     16  C   UNL     1       3.637   6.064  18.267  0.00  0.00    +0.000 A 
ATOM     17 CL   UNL     1       3.476   7.565  17.429  0.00  0.00    +0.000 Cl
ENDBRANCH   7  10
BRANCH   1  18
ATOM     18  C   UNL     1       5.481   3.290  12.845  0.00  0.00    +0.000 C 
BRANCH  18  20
ATOM     19  C   UNL     1       6.010   1.321  11.322  0.00  0.00    +0.000 C 
ATOM     20  C   UNL     1       5.903   2.834  11.443  0.00  0.00    +0.000 C 
ENDBRANCH  18  20
ENDBRANCH   1  18
TORSDOF 3
ENDMDL
MODEL 9
REMARK VINA RESULT:      -7.0      1.590      2.640
REMARK  Name = 
REMARK  4 active torsions:
REMARK  status: ('A' for Active; 'I' for Inactive)
REMARK    1  A    between atoms: C_1  and  C_2
REMARK    2  A    between atoms: C_2  and  C_3
REMARK    3  A    between atoms: C_3  and  N_4
REMARK    4  A    between atoms: C_10  and  C_12
REMARK                            x       y       z     vdW  Elec       q    Type
REMARK                         _______ _______ _______ _____ _____    ______ ____
ROOT
ATOM      1  N   UNL     1       6.598   4.211  12.962  0.00  0.00    +0.000 N 
ATOM      2  N   UNL     1       7.719   4.507  12.280  0.00  0.00    +0.000 NA
ATOM      3  N   UNL     1       8.377   5.358  13.049  0.00  0.00    +0.000 NA
ATOM      4  N   UNL     1       7.678   5.620  14.194  0.00  0.00    +0.000 NA
ATOM      5  C   UNL     1       6.562   4.920  14.143  0.00  0.00    +0.000 A 
ATOM      6  N   UNL     1       5.538   4.897  15.075  0.00  0.00    +0.000 N 
ATOM      7  C   UNL     1       5.610   5.692  16.208  0.00  0.00    +0.000 C 
ATOM      8  O   UNL     1       6.564   6.381  16.545  0.00  0.00    +0.000 OA
ATOM      9  H   UNL     1       4.702   4.363  14.888  0.00  0.00    +0.000 HD
ENDROOT
BRANCH   7  10
ATOM     10  C   UNL     1       4.431   5.706  17.127  0.00  0.00    +0.000 A 
ATOM     11  C   UNL     1       3.877   6.976  17.405  0.00  0.00    +0.000 A 
ATOM     12  C   UNL     1       2.706   7.094  18.152  0.00  0.00    +0.000 A 
ATOM     13 CL   UNL     1       2.041   8.647  18.470  0.00  0.00    +0.000 Cl
ATOM     14  C   UNL     1       2.065   5.959  18.632  0.00  0.00    +0.000 A 
ATOM     15  C   UNL     1       2.609   4.698  18.380  0.00  0.00    +0.000 A 
ATOM     16  C   UNL     1       3.792   4.566  17.635  0.00  0.00    +0.000 A 
ATOM     17 CL   UNL     1       4.362   2.956  17.376  0.00  0.00    +0.000 Cl
ENDBRANCH   7  10
BRANCH   1  18
ATOM     18  C   UNL     1       5.693   3.238  12.400  0.00  0.00    +0.000 C 
BRANCH  18  20
ATOM     19  C   UNL     1       3.701   2.939  10.844  0.00  0.00    +0.000 C 
ATOM     20  C   UNL     1       4.414   3.858  11.826  0.00  0.00    +0.000 C 
ENDBRANCH  18  20
ENDBRANCH   1  18
TORSDOF 3
ENDMDL
