MODEL 1
REMARK VINA RESULT:      -9.0      0.000      0.000
REMARK  Name = 
REMARK  6 active torsions:
REMARK  status: ('A' for Active; 'I' for Inactive)
REMARK    1  A    between atoms: C_1  and  C_2
REMARK    2  A    between atoms: C_2  and  O_3
REMARK    3  A    between atoms: C_2  and  C_4
REMARK    4  A    between atoms: C_2  and  C_23
REMARK    5  A    between atoms: C_5  and  C_6
REMARK    6  A    between atoms: C_11  and  C_12
REMARK                            x       y       z     vdW  Elec       q    Type
REMARK                         _______ _______ _______ _____ _____    ______ ____
ROOT
ATOM      1  C   UNL     1       2.878   6.166  18.095  0.00  0.00    +0.000 A 
ATOM      2  C   UNL     1       2.236   5.032  18.550  0.00  0.00    +0.000 A 
ATOM      3  C   UNL     1       2.715   3.756  18.162  0.00  0.00    +0.000 A 
ATOM      4 CL   UNL     1       1.898   2.353  18.749  0.00  0.00    +0.000 Cl
ATOM      5  C   UNL     1       3.821   3.584  17.297  0.00  0.00    +0.000 A 
ATOM      6  C   UNL     1       4.489   4.703  16.832  0.00  0.00    +0.000 A 
ATOM      7  C   UNL     1       3.986   5.985  17.237  0.00  0.00    +0.000 A 
ENDROOT
BRANCH   6   8
ATOM      8  C   UNL     1       5.625   4.669  15.889  0.00  0.00    +0.000 A 
ATOM      9  C   UNL     1       6.876   5.032  16.378  0.00  0.00    +0.000 A 
ATOM     10  N   UNL     1       7.498   5.630  15.325  0.00  0.00    +0.000 N 
ATOM     11  C   UNL     1       7.109   4.966  14.204  0.00  0.00    +0.000 A 
ATOM     12  C   UNL     1       7.682   4.897  12.957  0.00  0.00    +0.000 A 
ATOM     13  N   UNL     1       7.135   4.060  12.071  0.00  0.00    +0.000 NA
ATOM     14  C   UNL     1       6.023   3.396  12.424  0.00  0.00    +0.000 A 
ATOM     15  N   UNL     1       5.642   2.451  11.486  0.00  0.00    +0.000 N 
ATOM     16  N   UNL     1       5.298   3.544  13.562  0.00  0.00    +0.000 NA
ATOM     17  C   UNL     1       5.916   4.307  14.509  0.00  0.00    +0.000 A 
ATOM     18  H   UNL     1       8.236   6.318  15.389  0.00  0.00    +0.000 HD
ATOM     19  H   UNL     1       6.125   2.653  10.616  0.00  0.00    +0.000 HD
ATOM     20  H   UNL     1       4.639   2.359  11.456  0.00  0.00    +0.000 HD
ENDBRANCH   6   8
BRANCH   1  22
ATOM     21  C   UNL     1       1.847   8.663  18.527  0.00  0.00    +0.000 C 
ATOM     22  C   UNL     1       2.464   7.516  18.455  0.00  0.00    +0.000 C 
BRANCH  21  24
ATOM     23  C   UNL     1       2.087  11.118  18.199  0.00  0.00    +0.000 C 
ATOM     24  C   UNL     1       1.128  10.000  18.609  0.00  0.00    +0.000 C 
BRANCH  24  25
ATOM     25  C   UNL     1       0.606  10.209  20.021  0.00  0.00    +0.000 A 
ATOM     26  N   UNL     1       0.937   9.458  21.060  0.00  0.00    +0.000 NA
ATOM     27  C   UNL     1       0.273   9.884  22.191  0.00  0.00    +0.000 A 
ATOM     28  C   UNL     1      -0.567  10.960  22.017  0.00  0.00    +0.000 A 
ATOM     29  S   UNL     1      -0.541  11.455  20.379  0.00  0.00    +0.000 S 
ENDBRANCH  24  25
BRANCH  24  30
ATOM     30  O   UNL     1       0.033  10.000  17.688  0.00  0.00    +0.000 OA
ATOM     31  H   UNL     1       0.016  10.882  17.282  0.00  0.00    +0.000 HD
ENDBRANCH  24  30
ENDBRANCH  21  24
ENDBRANCH   1  22
TORSDOF 5
ENDMDL
MODEL 2
REMARK VINA RESULT:      -8.6      1.994      2.868
REMARK  Name = 
REMARK  6 active torsions:
REMARK  status: ('A' for Active; 'I' for Inactive)
REMARK    1  A    between atoms: C_1  and  C_2
REMARK    2  A    between atoms: C_2  and  O_3
REMARK    3  A    between atoms: C_2  and  C_4
REMARK    4  A    between atoms: C_2  and  C_23
REMARK    5  A    between atoms: C_5  and  C_6
REMARK    6  A    between atoms: C_11  and  C_12
REMARK                            x       y       z     vdW  Elec       q    Type
REMARK                         _______ _______ _______ _____ _____    ______ ____
ROOT
ATOM      1  C   UNL     1       1.769   5.606  20.101  0.00  0.00    +0.000 A 
ATOM      2  C   UNL     1       1.033   4.452  19.913  0.00  0.00    +0.000 A 
ATOM      3  C   UNL     1       1.579   3.392  19.150  0.00  0.00    +0.000 A 
ATOM      4 CL   UNL     1       0.640   1.959  18.934  0.00  0.00    +0.000 Cl
ATOM      5  C   UNL     1       2.853   3.466  18.538  0.00  0.00    +0.000 A 
ATOM      6  C   UNL     1       3.616   4.606  18.716  0.00  0.00    +0.000 A 
ATOM      7  C   UNL     1       3.043   5.668  19.492  0.00  0.00    +0.000 A 
ENDROOT
BRANCH   6   8
ATOM      8  C   UNL     1       4.937   4.834  18.097  0.00  0.00    +0.000 A 
ATOM      9  C   UNL     1       5.986   5.195  18.937  0.00  0.00    +0.000 A 
ATOM     10  N   UNL     1       6.761   6.024  18.185  0.00  0.00    +0.000 N 
ATOM     11  C   UNL     1       6.730   5.550  16.911  0.00  0.00    +0.000 A 
ATOM     12  C   UNL     1       7.583   5.757  15.854  0.00  0.00    +0.000 A 
ATOM     13  N   UNL     1       7.364   5.059  14.736  0.00  0.00    +0.000 NA
ATOM     14  C   UNL     1       6.288   4.258  14.687  0.00  0.00    +0.000 A 
ATOM     15  N   UNL     1       6.253   3.477  13.544  0.00  0.00    +0.000 N 
ATOM     16  N   UNL     1       5.303   4.137  15.613  0.00  0.00    +0.000 NA
ATOM     17  C   UNL     1       5.586   4.757  16.796  0.00  0.00    +0.000 A 
ATOM     18  H   UNL     1       7.376   6.742  18.542  0.00  0.00    +0.000 HD
ATOM     19  H   UNL     1       6.899   3.872  12.867  0.00  0.00    +0.000 HD
ATOM     20  H   UNL     1       5.304   3.315  13.247  0.00  0.00    +0.000 HD
ENDBRANCH   6   8
BRANCH   1  22
ATOM     21  C   UNL     1       1.158   7.906  21.449  0.00  0.00    +0.000 C 
ATOM     22  C   UNL     1       1.292   6.738  20.884  0.00  0.00    +0.000 C 
BRANCH  21  24
ATOM     23  C   UNL     1      -0.276   9.282  22.948  0.00  0.00    +0.000 C 
ATOM     24  C   UNL     1       1.003   9.266  22.109  0.00  0.00    +0.000 C 
BRANCH  24  25
ATOM     25  C   UNL     1       0.978  10.348  21.042  0.00  0.00    +0.000 A 
ATOM     26  N   UNL     1       1.213  11.631  21.271  0.00  0.00    +0.000 NA
ATOM     27  C   UNL     1       1.082  12.359  20.106  0.00  0.00    +0.000 A 
ATOM     28  C   UNL     1       0.747  11.632  18.987  0.00  0.00    +0.000 A 
ATOM     29  S   UNL     1       0.572   9.981  19.399  0.00  0.00    +0.000 S 
ENDBRANCH  24  25
BRANCH  24  30
ATOM     30  O   UNL     1       2.109   9.488  22.990  0.00  0.00    +0.000 OA
ATOM     31  H   UNL     1       2.807   9.904  22.457  0.00  0.00    +0.000 HD
ENDBRANCH  24  30
ENDBRANCH  21  24
ENDBRANCH   1  22
TORSDOF 5
ENDMDL
MODEL 3
REMARK VINA RESULT:      -8.6      1.571      1.893
REMARK  Name = 
REMARK  6 active torsions:
REMARK  status: ('A' for Active; 'I' for Inactive)
REMARK    1  A    between atoms: C_1  and  C_2
REMARK    2  A    between atoms: C_2  and  O_3
REMARK    3  A    between atoms: C_2  and  C_4
REMARK    4  A    between atoms: C_2  and  C_23
REMARK    5  A    between atoms: C_5  and  C_6
REMARK    6  A    between atoms: C_11  and  C_12
REMARK                            x       y       z     vdW  Elec       q    Type
REMARK                         _______ _______ _______ _____ _____    ______ ____
ROOT
ATOM      1  C   UNL     1       2.733   6.810  17.953  0.00  0.00    +0.000 A 
ATOM      2  C   UNL     1       2.133   5.752  18.605  0.00  0.00    +0.000 A 
ATOM      3  C   UNL     1       2.669   4.449  18.463  0.00  0.00    +0.000 A 
ATOM      4 CL   UNL     1       1.902   3.143  19.294  0.00  0.00    +0.000 Cl
ATOM      5  C   UNL     1       3.794   4.168  17.652  0.00  0.00    +0.000 A 
ATOM      6  C   UNL     1       4.421   5.210  16.993  0.00  0.00    +0.000 A 
ATOM      7  C   UNL     1       3.860   6.521  17.150  0.00  0.00    +0.000 A 
ENDROOT
BRANCH   6   8
ATOM      8  C   UNL     1       5.570   5.051  16.079  0.00  0.00    +0.000 A 
ATOM      9  C   UNL     1       6.833   5.354  16.578  0.00  0.00    +0.000 A 
ATOM     10  N   UNL     1       7.516   5.855  15.512  0.00  0.00    +0.000 N 
ATOM     11  C   UNL     1       7.106   5.162  14.417  0.00  0.00    +0.000 A 
ATOM     12  C   UNL     1       7.697   4.990  13.189  0.00  0.00    +0.000 A 
ATOM     13  N   UNL     1       7.113   4.148  12.333  0.00  0.00    +0.000 NA
ATOM     14  C   UNL     1       5.952   3.579  12.692  0.00  0.00    +0.000 A 
ATOM     15  N   UNL     1       5.526   2.615  11.794  0.00  0.00    +0.000 N 
ATOM     16  N   UNL     1       5.215   3.833  13.804  0.00  0.00    +0.000 NA
ATOM     17  C   UNL     1       5.865   4.601  14.727  0.00  0.00    +0.000 A 
ATOM     18  H   UNL     1       8.297   6.494  15.559  0.00  0.00    +0.000 HD
ATOM     19  H   UNL     1       6.039   2.739  10.926  0.00  0.00    +0.000 HD
ATOM     20  H   UNL     1       4.520   2.588  11.745  0.00  0.00    +0.000 HD
ENDBRANCH   6   8
BRANCH   1  22
ATOM     21  C   UNL     1       1.642   9.275  18.413  0.00  0.00    +0.000 C 
ATOM     22  C   UNL     1       2.259   8.184  18.055  0.00  0.00    +0.000 C 
BRANCH  21  24
ATOM     23  C   UNL     1       0.980  10.690  20.351  0.00  0.00    +0.000 C 
ATOM     24  C   UNL     1       0.921  10.547  18.829  0.00  0.00    +0.000 C 
BRANCH  24  25
ATOM     25  C   UNL     1      -0.514  10.502  18.333  0.00  0.00    +0.000 A 
ATOM     26  N   UNL     1      -0.961   9.663  17.411  0.00  0.00    +0.000 NA
ATOM     27  C   UNL     1      -2.298   9.896  17.158  0.00  0.00    +0.000 A 
ATOM     28  C   UNL     1      -2.872  10.912  17.886  0.00  0.00    +0.000 A 
ATOM     29  S   UNL     1      -1.703  11.619  18.916  0.00  0.00    +0.000 S 
ENDBRANCH  24  25
BRANCH  24  30
ATOM     30  O   UNL     1       1.591  11.674  18.257  0.00  0.00    +0.000 OA
ATOM     31  H   UNL     1       2.003  12.153  18.994  0.00  0.00    +0.000 HD
ENDBRANCH  24  30
ENDBRANCH  21  24
ENDBRANCH   1  22
TORSDOF 5
ENDMDL
MODEL 4
REMARK VINA RESULT:      -8.5      3.446      8.595
REMARK  Name = 
REMARK  6 active torsions:
REMARK  status: ('A' for Active; 'I' for Inactive)
REMARK    1  A    between atoms: C_1  and  C_2
REMARK    2  A    between atoms: C_2  and  O_3
REMARK    3  A    between atoms: C_2  and  C_4
REMARK    4  A    between atoms: C_2  and  C_23
REMARK    5  A    between atoms: C_5  and  C_6
REMARK    6  A    between atoms: C_11  and  C_12
REMARK                            x       y       z     vdW  Elec       q    Type
REMARK                         _______ _______ _______ _____ _____    ______ ____
ROOT
ATOM      1  C   UNL     1       3.567   5.005  19.189  0.00  0.00    +0.000 A 
ATOM      2  C   UNL     1       3.007   3.930  19.849  0.00  0.00    +0.000 A 
ATOM      3  C   UNL     1       1.889   4.134  20.694  0.00  0.00    +0.000 A 
ATOM      4 CL   UNL     1       1.205   2.771  21.504  0.00  0.00    +0.000 Cl
ATOM      5  C   UNL     1       1.323   5.411  20.920  0.00  0.00    +0.000 A 
ATOM      6  C   UNL     1       1.858   6.506  20.265  0.00  0.00    +0.000 A 
ATOM      7  C   UNL     1       2.991   6.276  19.415  0.00  0.00    +0.000 A 
ENDROOT
BRANCH   6   8
ATOM      8  C   UNL     1       1.397   7.897  20.446  0.00  0.00    +0.000 A 
ATOM      9  C   UNL     1       0.870   8.242  21.687  0.00  0.00    +0.000 A 
ATOM     10  N   UNL     1      -0.090   9.167  21.409  0.00  0.00    +0.000 N 
ATOM     11  C   UNL     1       0.365   9.913  20.368  0.00  0.00    +0.000 A 
ATOM     12  C   UNL     1      -0.000  11.163  19.931  0.00  0.00    +0.000 A 
ATOM     13  N   UNL     1       0.711  11.703  18.937  0.00  0.00    +0.000 NA
ATOM     14  C   UNL     1       1.685  10.968  18.380  0.00  0.00    +0.000 A 
ATOM     15  N   UNL     1       2.446  11.686  17.472  0.00  0.00    +0.000 N 
ATOM     16  N   UNL     1       1.987   9.669  18.629  0.00  0.00    +0.000 NA
ATOM     17  C   UNL     1       1.343   9.157  19.718  0.00  0.00    +0.000 A 
ATOM     18  H   UNL     1      -0.901   9.366  21.981  0.00  0.00    +0.000 HD
ATOM     19  H   UNL     1       1.936  12.529  17.225  0.00  0.00    +0.000 HD
ATOM     20  H   UNL     1       2.766  11.094  16.723  0.00  0.00    +0.000 HD
ENDBRANCH   6   8
BRANCH   1  22
ATOM     21  C   UNL     1       5.843   5.057  17.673  0.00  0.00    +0.000 C 
ATOM     22  C   UNL     1       4.706   4.885  18.289  0.00  0.00    +0.000 C 
BRANCH  21  24
ATOM     23  C   UNL     1       7.619   6.710  17.118  0.00  0.00    +0.000 C 
ATOM     24  C   UNL     1       7.167   5.257  16.955  0.00  0.00    +0.000 C 
BRANCH  24  25
ATOM     25  C   UNL     1       7.011   4.889  15.489  0.00  0.00    +0.000 A 
ATOM     26  N   UNL     1       7.700   5.439  14.502  0.00  0.00    +0.000 NA
ATOM     27  C   UNL     1       7.304   4.913  13.289  0.00  0.00    +0.000 A 
ATOM     28  C   UNL     1       6.313   3.962  13.350  0.00  0.00    +0.000 A 
ATOM     29  S   UNL     1       5.842   3.719  14.976  0.00  0.00    +0.000 S 
ENDBRANCH  24  25
BRANCH  24  30
ATOM     30  O   UNL     1       8.158   4.420  17.557  0.00  0.00    +0.000 OA
ATOM     31  H   UNL     1       7.973   3.515  17.257  0.00  0.00    +0.000 HD
ENDBRANCH  24  30
ENDBRANCH  21  24
ENDBRANCH   1  22
TORSDOF 5
ENDMDL
MODEL 5
REMARK VINA RESULT:      -8.5      1.671      2.146
REMARK  Name = 
REMARK  6 active torsions:
REMARK  status: ('A' for Active; 'I' for Inactive)
REMARK    1  A    between atoms: C_1  and  C_2
REMARK    2  A    between atoms: C_2  and  O_3
REMARK    3  A    between atoms: C_2  and  C_4
REMARK    4  A    between atoms: C_2  and  C_23
REMARK    5  A    between atoms: C_5  and  C_6
REMARK    6  A    between atoms: C_11  and  C_12
REMARK                            x       y       z     vdW  Elec       q    Type
REMARK                         _______ _______ _______ _____ _____    ______ ____
ROOT
ATOM      1  C   UNL     1       2.518   5.753  19.211  0.00  0.00    +0.000 A 
ATOM      2  C   UNL     1       1.672   4.662  19.227  0.00  0.00    +0.000 A 
ATOM      3  C   UNL     1       2.006   3.508  18.477  0.00  0.00    +0.000 A 
ATOM      4 CL   UNL     1       0.934   2.155  18.519  0.00  0.00    +0.000 Cl
ATOM      5  C   UNL     1       3.171   3.424  17.678  0.00  0.00    +0.000 A 
ATOM      6  C   UNL     1       4.041   4.500  17.649  0.00  0.00    +0.000 A 
ATOM      7  C   UNL     1       3.683   5.659  18.415  0.00  0.00    +0.000 A 
ENDROOT
BRANCH   6   8
ATOM      8  C   UNL     1       5.264   4.564  16.823  0.00  0.00    +0.000 A 
ATOM      9  C   UNL     1       6.469   4.799  17.478  0.00  0.00    +0.000 A 
ATOM     10  N   UNL     1       7.207   5.525  16.594  0.00  0.00    +0.000 N 
ATOM     11  C   UNL     1       6.915   5.056  15.352  0.00  0.00    +0.000 A 
ATOM     12  C   UNL     1       7.607   5.154  14.169  0.00  0.00    +0.000 A 
ATOM     13  N   UNL     1       7.130   4.485  13.116  0.00  0.00    +0.000 NA
ATOM     14  C   UNL     1       5.973   3.820  13.256  0.00  0.00    +0.000 A 
ATOM     15  N   UNL     1       5.663   3.045  12.150  0.00  0.00    +0.000 N 
ATOM     16  N   UNL     1       5.142   3.821  14.329  0.00  0.00    +0.000 NA
ATOM     17  C   UNL     1       5.682   4.406  15.437  0.00  0.00    +0.000 A 
ATOM     18  H   UNL     1       7.952   6.166  16.833  0.00  0.00    +0.000 HD
ATOM     19  H   UNL     1       6.235   3.357  11.371  0.00  0.00    +0.000 HD
ATOM     20  H   UNL     1       4.666   2.998  12.012  0.00  0.00    +0.000 HD
ENDBRANCH   6   8
BRANCH   1  22
ATOM     21  C   UNL     1       1.705   7.926  20.659  0.00  0.00    +0.000 C 
ATOM     22  C   UNL     1       2.262   6.974  19.963  0.00  0.00    +0.000 C 
BRANCH  21  24
ATOM     23  C   UNL     1      -0.351   8.604  21.888  0.00  0.00    +0.000 C 
ATOM     24  C   UNL     1       1.055   9.037  21.467  0.00  0.00    +0.000 C 
BRANCH  24  25
ATOM     25  C   UNL     1       1.017  10.311  20.641  0.00  0.00    +0.000 A 
ATOM     26  N   UNL     1       1.146  11.531  21.140  0.00  0.00    +0.000 NA
ATOM     27  C   UNL     1       1.035  12.474  20.139  0.00  0.00    +0.000 A 
ATOM     28  C   UNL     1       0.820  11.975  18.875  0.00  0.00    +0.000 A 
ATOM     29  S   UNL     1       0.739  10.267  18.932  0.00  0.00    +0.000 S 
ENDBRANCH  24  25
BRANCH  24  30
ATOM     30  O   UNL     1       1.819   9.259  22.656  0.00  0.00    +0.000 OA
ATOM     31  H   UNL     1       2.003   8.383  23.033  0.00  0.00    +0.000 HD
ENDBRANCH  24  30
ENDBRANCH  21  24
ENDBRANCH   1  22
TORSDOF 5
ENDMDL
MODEL 6
REMARK VINA RESULT:      -8.4      1.441      1.909
REMARK  Name = 
REMARK  6 active torsions:
REMARK  status: ('A' for Active; 'I' for Inactive)
REMARK    1  A    between atoms: C_1  and  C_2
REMARK    2  A    between atoms: C_2  and  O_3
REMARK    3  A    between atoms: C_2  and  C_4
REMARK    4  A    between atoms: C_2  and  C_23
REMARK    5  A    between atoms: C_5  and  C_6
REMARK    6  A    between atoms: C_11  and  C_12
REMARK                            x       y       z     vdW  Elec       q    Type
REMARK                         _______ _______ _______ _____ _____    ______ ____
ROOT
ATOM      1  C   UNL     1       2.787   6.488  18.179  0.00  0.00    +0.000 A 
ATOM      2  C   UNL     1       2.237   5.377  18.786  0.00  0.00    +0.000 A 
ATOM      3  C   UNL     1       2.818   4.104  18.568  0.00  0.00    +0.000 A 
ATOM      4 CL   UNL     1       2.115   2.730  19.343  0.00  0.00    +0.000 Cl
ATOM      5  C   UNL     1       3.938   3.906  17.726  0.00  0.00    +0.000 A 
ATOM      6  C   UNL     1       4.515   5.004  17.111  0.00  0.00    +0.000 A 
ATOM      7  C   UNL     1       3.909   6.283  17.344  0.00  0.00    +0.000 A 
ENDROOT
BRANCH   6   8
ATOM      8  C   UNL     1       5.653   4.935  16.173  0.00  0.00    +0.000 A 
ATOM      9  C   UNL     1       6.901   5.323  16.648  0.00  0.00    +0.000 A 
ATOM     10  N   UNL     1       7.524   5.879  15.573  0.00  0.00    +0.000 N 
ATOM     11  C   UNL     1       7.141   5.167  14.479  0.00  0.00    +0.000 A 
ATOM     12  C   UNL     1       7.717   5.048  13.238  0.00  0.00    +0.000 A 
ATOM     13  N   UNL     1       7.176   4.173  12.386  0.00  0.00    +0.000 NA
ATOM     14  C   UNL     1       6.066   3.520  12.765  0.00  0.00    +0.000 A 
ATOM     15  N   UNL     1       5.690   2.535  11.866  0.00  0.00    +0.000 N 
ATOM     16  N   UNL     1       5.337   3.712  13.894  0.00  0.00    +0.000 NA
ATOM     17  C   UNL     1       5.950   4.516  14.810  0.00  0.00    +0.000 A 
ATOM     18  H   UNL     1       8.259   6.573  15.609  0.00  0.00    +0.000 HD
ATOM     19  H   UNL     1       6.175   2.702  10.989  0.00  0.00    +0.000 HD
ATOM     20  H   UNL     1       4.688   2.437  11.838  0.00  0.00    +0.000 HD
ENDBRANCH   6   8
BRANCH   1  22
ATOM     21  C   UNL     1       1.515   8.864  18.644  0.00  0.00    +0.000 C 
ATOM     22  C   UNL     1       2.265   7.837  18.358  0.00  0.00    +0.000 C 
BRANCH  21  24
ATOM     23  C   UNL     1      -0.540  10.115  18.002  0.00  0.00    +0.000 C 
ATOM     24  C   UNL     1       0.639  10.062  18.975  0.00  0.00    +0.000 C 
BRANCH  24  25
ATOM     25  C   UNL     1       1.470  11.332  18.906  0.00  0.00    +0.000 A 
ATOM     26  N   UNL     1       2.308  11.625  17.923  0.00  0.00    +0.000 NA
ATOM     27  C   UNL     1       2.933  12.831  18.169  0.00  0.00    +0.000 A 
ATOM     28  C   UNL     1       2.573  13.459  19.339  0.00  0.00    +0.000 A 
ATOM     29  S   UNL     1       1.423  12.508  20.176  0.00  0.00    +0.000 S 
ENDBRANCH  24  25
BRANCH  24  30
ATOM     30  O   UNL     1       0.112   9.906  20.296  0.00  0.00    +0.000 OA
ATOM     31  H   UNL     1       0.871   9.742  20.878  0.00  0.00    +0.000 HD
ENDBRANCH  24  30
ENDBRANCH  21  24
ENDBRANCH   1  22
TORSDOF 5
ENDMDL
MODEL 7
REMARK VINA RESULT:      -8.3      2.435      3.673
REMARK  Name = 
REMARK  6 active torsions:
REMARK  status: ('A' for Active; 'I' for Inactive)
REMARK    1  A    between atoms: C_1  and  C_2
REMARK    2  A    between atoms: C_2  and  O_3
REMARK    3  A    between atoms: C_2  and  C_4
REMARK    4  A    between atoms: C_2  and  C_23
REMARK    5  A    between atoms: C_5  and  C_6
REMARK    6  A    between atoms: C_11  and  C_12
REMARK                            x       y       z     vdW  Elec       q    Type
REMARK                         _______ _______ _______ _____ _____    ______ ____
ROOT
ATOM      1  C   UNL     1       1.896   6.408  20.537  0.00  0.00    +0.000 A 
ATOM      2  C   UNL     1       1.339   5.301  21.147  0.00  0.00    +0.000 A 
ATOM      3  C   UNL     1       1.724   4.005  20.726  0.00  0.00    +0.000 A 
ATOM      4 CL   UNL     1       1.017   2.637  21.509  0.00  0.00    +0.000 Cl
ATOM      5  C   UNL     1       2.649   3.782  19.679  0.00  0.00    +0.000 A 
ATOM      6  C   UNL     1       3.229   4.872  19.055  0.00  0.00    +0.000 A 
ATOM      7  C   UNL     1       2.823   6.176  19.495  0.00  0.00    +0.000 A 
ENDROOT
BRANCH   6   8
ATOM      8  C   UNL     1       4.169   4.784  17.919  0.00  0.00    +0.000 A 
ATOM      9  C   UNL     1       3.850   3.906  16.889  0.00  0.00    +0.000 A 
ATOM     10  N   UNL     1       5.051   3.449  16.440  0.00  0.00    +0.000 N 
ATOM     11  C   UNL     1       5.927   4.485  16.522  0.00  0.00    +0.000 A 
ATOM     12  C   UNL     1       7.127   4.700  15.888  0.00  0.00    +0.000 A 
ATOM     13  N   UNL     1       7.723   5.881  16.076  0.00  0.00    +0.000 NA
ATOM     14  C   UNL     1       7.156   6.752  16.924  0.00  0.00    +0.000 A 
ATOM     15  N   UNL     1       7.778   7.989  16.918  0.00  0.00    +0.000 N 
ATOM     16  N   UNL     1       6.077   6.547  17.722  0.00  0.00    +0.000 NA
ATOM     17  C   UNL     1       5.404   5.393  17.446  0.00  0.00    +0.000 A 
ATOM     18  H   UNL     1       5.210   2.565  15.976  0.00  0.00    +0.000 HD
ATOM     19  H   UNL     1       8.689   7.886  16.480  0.00  0.00    +0.000 HD
ATOM     20  H   UNL     1       7.743   8.415  17.830  0.00  0.00    +0.000 HD
ENDBRANCH   6   8
BRANCH   1  22
ATOM     21  C   UNL     1       0.953   8.903  21.141  0.00  0.00    +0.000 C 
ATOM     22  C   UNL     1       1.570   7.776  20.915  0.00  0.00    +0.000 C 
BRANCH  21  24
ATOM     23  C   UNL     1      -0.638  10.080  22.650  0.00  0.00    +0.000 C 
ATOM     24  C   UNL     1       0.236  10.217  21.402  0.00  0.00    +0.000 C 
BRANCH  24  25
ATOM     25  C   UNL     1      -0.593  10.593  20.185  0.00  0.00    +0.000 A 
ATOM     26  N   UNL     1      -0.594   9.921  19.044  0.00  0.00    +0.000 NA
ATOM     27  C   UNL     1      -1.424  10.534  18.127  0.00  0.00    +0.000 A 
ATOM     28  C   UNL     1      -2.056  11.674  18.567  0.00  0.00    +0.000 A 
ATOM     29  S   UNL     1      -1.592  12.008  20.180  0.00  0.00    +0.000 S 
ENDBRANCH  24  25
BRANCH  24  30
ATOM     30  O   UNL     1       1.205  11.238  21.656  0.00  0.00    +0.000 OA
ATOM     31  H   UNL     1       1.365  11.234  22.614  0.00  0.00    +0.000 HD
ENDBRANCH  24  30
ENDBRANCH  21  24
ENDBRANCH   1  22
TORSDOF 5
ENDMDL
MODEL 8
REMARK VINA RESULT:      -8.3      2.494      3.718
REMARK  Name = 
REMARK  6 active torsions:
REMARK  status: ('A' for Active; 'I' for Inactive)
REMARK    1  A    between atoms: C_1  and  C_2
REMARK    2  A    between atoms: C_2  and  O_3
REMARK    3  A    between atoms: C_2  and  C_4
REMARK    4  A    between atoms: C_2  and  C_23
REMARK    5  A    between atoms: C_5  and  C_6
REMARK    6  A    between atoms: C_11  and  C_12
REMARK                            x       y       z     vdW  Elec       q    Type
REMARK                         _______ _______ _______ _____ _____    ______ ____
ROOT
ATOM      1  C   UNL     1       1.864   5.823  20.520  0.00  0.00    +0.000 A 
ATOM      2  C   UNL     1       1.528   4.664  21.191  0.00  0.00    +0.000 A 
ATOM      3  C   UNL     1       2.124   3.438  20.807  0.00  0.00    +0.000 A 
ATOM      4 CL   UNL     1       1.691   2.003  21.665  0.00  0.00    +0.000 Cl
ATOM      5  C   UNL     1       3.044   3.335  19.737  0.00  0.00    +0.000 A 
ATOM      6  C   UNL     1       3.405   4.482  19.052  0.00  0.00    +0.000 A 
ATOM      7  C   UNL     1       2.788   5.712  19.456  0.00  0.00    +0.000 A 
ENDROOT
BRANCH   6   8
ATOM      8  C   UNL     1       4.314   4.510  17.888  0.00  0.00    +0.000 A 
ATOM      9  C   UNL     1       4.017   3.668  16.821  0.00  0.00    +0.000 A 
ATOM     10  N   UNL     1       5.229   3.309  16.317  0.00  0.00    +0.000 N 
ATOM     11  C   UNL     1       6.044   4.391  16.430  0.00  0.00    +0.000 A 
ATOM     12  C   UNL     1       7.209   4.711  15.777  0.00  0.00    +0.000 A 
ATOM     13  N   UNL     1       7.740   5.915  16.011  0.00  0.00    +0.000 NA
ATOM     14  C   UNL     1       7.147   6.705  16.920  0.00  0.00    +0.000 A 
ATOM     15  N   UNL     1       7.694   7.977  16.963  0.00  0.00    +0.000 N 
ATOM     16  N   UNL     1       6.107   6.394  17.734  0.00  0.00    +0.000 NA
ATOM     17  C   UNL     1       5.496   5.217  17.415  0.00  0.00    +0.000 A 
ATOM     18  H   UNL     1       5.427   2.462  15.802  0.00  0.00    +0.000 HD
ATOM     19  H   UNL     1       8.596   7.952  16.495  0.00  0.00    +0.000 HD
ATOM     20  H   UNL     1       7.661   8.352  17.897  0.00  0.00    +0.000 HD
ENDBRANCH   6   8
BRANCH   1  22
ATOM     21  C   UNL     1       1.022   8.255  21.448  0.00  0.00    +0.000 C 
ATOM     22  C   UNL     1       1.312   7.129  20.856  0.00  0.00    +0.000 C 
BRANCH  21  24
ATOM     23  C   UNL     1      -0.727   9.482  22.724  0.00  0.00    +0.000 C 
ATOM     24  C   UNL     1       0.684   9.566  22.138  0.00  0.00    +0.000 C 
BRANCH  24  25
ATOM     25  C   UNL     1       0.802  10.708  21.144  0.00  0.00    +0.000 A 
ATOM     26  N   UNL     1       0.959  11.979  21.480  0.00  0.00    +0.000 NA
ATOM     27  C   UNL     1       1.001  12.773  20.352  0.00  0.00    +0.000 A 
ATOM     28  C   UNL     1       0.876  12.109  19.154  0.00  0.00    +0.000 A 
ATOM     29  S   UNL     1       0.684  10.432  19.438  0.00  0.00    +0.000 S 
ENDBRANCH  24  25
BRANCH  24  30
ATOM     30  O   UNL     1       1.596   9.775  23.220  0.00  0.00    +0.000 OA
ATOM     31  H   UNL     1       2.424   9.332  22.972  0.00  0.00    +0.000 HD
ENDBRANCH  24  30
ENDBRANCH  21  24
ENDBRANCH   1  22
TORSDOF 5
ENDMDL
MODEL 9
REMARK VINA RESULT:      -8.2      3.379      9.082
REMARK  Name = 
REMARK  6 active torsions:
REMARK  status: ('A' for Active; 'I' for Inactive)
REMARK    1  A    between atoms: C_1  and  C_2
REMARK    2  A    between atoms: C_2  and  O_3
REMARK    3  A    between atoms: C_2  and  C_4
REMARK    4  A    between atoms: C_2  and  C_23
REMARK    5  A    between atoms: C_5  and  C_6
REMARK    6  A    between atoms: C_11  and  C_12
REMARK                            x       y       z     vdW  Elec       q    Type
REMARK                         _______ _______ _______ _____ _____    ______ ____
ROOT
ATOM      1  C   UNL     1       3.309   6.015  19.231  0.00  0.00    +0.000 A 
ATOM      2  C   UNL     1       2.779   4.815  19.660  0.00  0.00    +0.000 A 
ATOM      3  C   UNL     1       1.627   4.815  20.484  0.00  0.00    +0.000 A 
ATOM      4 CL   UNL     1       0.981   3.300  21.004  0.00  0.00    +0.000 Cl
ATOM      5  C   UNL     1       0.996   6.005  20.918  0.00  0.00    +0.000 A 
ATOM      6  C   UNL     1       1.500   7.222  20.497  0.00  0.00    +0.000 A 
ATOM      7  C   UNL     1       2.668   7.199  19.663  0.00  0.00    +0.000 A 
ENDROOT
BRANCH   6   8
ATOM      8  C   UNL     1       0.970   8.537  20.911  0.00  0.00    +0.000 A 
ATOM      9  C   UNL     1       1.279   8.978  22.194  0.00  0.00    +0.000 A 
ATOM     10  N   UNL     1       0.188   9.691  22.587  0.00  0.00    +0.000 N 
ATOM     11  C   UNL     1      -0.285  10.334  21.486  0.00  0.00    +0.000 A 
ATOM     12  C   UNL     1      -1.100  11.433  21.368  0.00  0.00    +0.000 A 
ATOM     13  N   UNL     1      -1.306  11.922  20.142  0.00  0.00    +0.000 NA
ATOM     14  C   UNL     1      -0.768  11.271  19.099  0.00  0.00    +0.000 A 
ATOM     15  N   UNL     1      -0.921  11.954  17.904  0.00  0.00    +0.000 N 
ATOM     16  N   UNL     1      -0.107  10.086  19.115  0.00  0.00    +0.000 NA
ATOM     17  C   UNL     1       0.203   9.650  20.370  0.00  0.00    +0.000 A 
ATOM     18  H   UNL     1      -0.104   9.846  23.542  0.00  0.00    +0.000 HD
ATOM     19  H   UNL     1      -1.639  12.662  18.031  0.00  0.00    +0.000 HD
ATOM     20  H   UNL     1      -1.024  11.314  17.134  0.00  0.00    +0.000 HD
ENDBRANCH   6   8
BRANCH   1  22
ATOM     21  C   UNL     1       5.660   5.959  17.834  0.00  0.00    +0.000 C 
ATOM     22  C   UNL     1       4.480   6.109  18.369  0.00  0.00    +0.000 C 
BRANCH  21  24
ATOM     23  C   UNL     1       7.739   7.144  17.148  0.00  0.00    +0.000 C 
ATOM     24  C   UNL     1       7.036   5.786  17.212  0.00  0.00    +0.000 C 
BRANCH  24  25
ATOM     25  C   UNL     1       6.895   5.170  15.831  0.00  0.00    +0.000 A 
ATOM     26  N   UNL     1       7.592   5.546  14.769  0.00  0.00    +0.000 NA
ATOM     27  C   UNL     1       7.210   4.818  13.662  0.00  0.00    +0.000 A 
ATOM     28  C   UNL     1       6.220   3.886  13.876  0.00  0.00    +0.000 A 
ATOM     29  S   UNL     1       5.734   3.925  15.516  0.00  0.00    +0.000 S 
ENDBRANCH  24  25
BRANCH  24  30
ATOM     30  O   UNL     1       7.821   4.925  18.043  0.00  0.00    +0.000 OA
ATOM     31  H   UNL     1       7.195   4.439  18.605  0.00  0.00    +0.000 HD
ENDBRANCH  24  30
ENDBRANCH  21  24
ENDBRANCH   1  22
TORSDOF 5
ENDMDL
