MODEL 1
REMARK VINA RESULT:      -6.8      0.000      0.000
REMARK  Name = 
REMARK  7 active torsions:
REMARK  status: ('A' for Active; 'I' for Inactive)
REMARK    1  A    between atoms: C_1  and  C_2
REMARK    2  A    between atoms: C_5  and  C_6
REMARK    3  A    between atoms: C_6  and  N_7
REMARK    4  A    between atoms: C_8  and  C_10
REMARK    5  A    between atoms: C_10  and  S_11
REMARK    6  A    between atoms: S_11  and  C_12
REMARK    7  A    between atoms: C_16  and  N_17
REMARK                            x       y       z     vdW  Elec       q    Type
REMARK                         _______ _______ _______ _____ _____    ______ ____
ROOT
ATOM      1  N   UNL     1       6.524   5.699  16.880  0.00  0.00    +0.000 N 
ATOM      2  C   UNL     1       6.728   5.025  18.062  0.00  0.00    +0.000 C 
ATOM      3  O   UNL     1       7.753   4.395  18.315  0.00  0.00    +0.000 OA
ATOM      4  H   UNL     1       5.607   6.080  16.681  0.00  0.00    +0.000 HD
ENDROOT
BRANCH   1   5
ATOM      5  C   UNL     1       7.441   5.587  15.768  0.00  0.00    +0.000 C 
BRANCH   5  10
ATOM      6  C   UNL     1       5.110   2.685  11.288  0.00  0.00    +0.000 C 
ATOM      7  C   UNL     1       5.700   3.461  12.427  0.00  0.00    +0.000 A 
ATOM      8  C   UNL     1       6.964   4.049  12.318  0.00  0.00    +0.000 A 
ATOM      9  C   UNL     1       7.513   4.751  13.395  0.00  0.00    +0.000 A 
ATOM     10  C   UNL     1       6.815   4.868  14.603  0.00  0.00    +0.000 A 
ATOM     11  C   UNL     1       5.538   4.299  14.705  0.00  0.00    +0.000 A 
ATOM     12  C   UNL     1       4.988   3.598  13.625  0.00  0.00    +0.000 A 
ENDBRANCH   5  10
ENDBRANCH   1   5
BRANCH   2  13
ATOM     13  C   UNL     1       5.611   5.154  19.082  0.00  0.00    +0.000 C 
BRANCH  13  14
ATOM     14  S   UNL     1       3.969   5.159  18.310  0.00  0.00    +0.000 S 
BRANCH  14  15
ATOM     15  C   UNL     1       2.960   4.366  19.520  0.00  0.00    +0.000 A 
ATOM     16  C   UNL     1       1.849   5.002  20.155  0.00  0.00    +0.000 A 
ATOM     17  C   UNL     1       1.161   4.145  20.993  0.00  0.00    +0.000 A 
ATOM     18  S   UNL     1       1.861   2.580  21.020  0.00  0.00    +0.000 S 
ATOM     19  C   UNL     1       3.051   3.048  19.905  0.00  0.00    +0.000 A 
BRANCH  19  20
ATOM     20  N   UNL     1       4.008   2.075  19.491  0.00  0.00    +0.000 N 
ATOM     21  O   UNL     1       5.001   1.925  20.215  0.00  0.00    +0.000 OA
ATOM     22  O   UNL     1       3.778   1.469  18.437  0.00  0.00    +0.000 OA
ENDBRANCH  19  20
ENDBRANCH  14  15
ENDBRANCH  13  14
ENDBRANCH   2  13
TORSDOF 6
ENDMDL
MODEL 2
REMARK VINA RESULT:      -6.7      1.810      2.332
REMARK  Name = 
REMARK  7 active torsions:
REMARK  status: ('A' for Active; 'I' for Inactive)
REMARK    1  A    between atoms: C_1  and  C_2
REMARK    2  A    between atoms: C_5  and  C_6
REMARK    3  A    between atoms: C_6  and  N_7
REMARK    4  A    between atoms: C_8  and  C_10
REMARK    5  A    between atoms: C_10  and  S_11
REMARK    6  A    between atoms: S_11  and  C_12
REMARK    7  A    between atoms: C_16  and  N_17
REMARK                            x       y       z     vdW  Elec       q    Type
REMARK                         _______ _______ _______ _____ _____    ______ ____
ROOT
ATOM      1  N   UNL     1       6.369   5.658  17.167  0.00  0.00    +0.000 N 
ATOM      2  C   UNL     1       6.836   5.016  18.291  0.00  0.00    +0.000 C 
ATOM      3  O   UNL     1       8.010   4.683  18.442  0.00  0.00    +0.000 OA
ATOM      4  H   UNL     1       5.370   5.779  17.048  0.00  0.00    +0.000 HD
ENDROOT
BRANCH   1   5
ATOM      5  C   UNL     1       7.195   5.850  15.997  0.00  0.00    +0.000 C 
BRANCH   5  10
ATOM      6  C   UNL     1       5.251   2.739  11.473  0.00  0.00    +0.000 C 
ATOM      7  C   UNL     1       5.763   3.511  12.652  0.00  0.00    +0.000 A 
ATOM      8  C   UNL     1       5.022   3.594  13.834  0.00  0.00    +0.000 A 
ATOM      9  C   UNL     1       5.499   4.336  14.919  0.00  0.00    +0.000 A 
ATOM     10  C   UNL     1       6.718   5.018  14.837  0.00  0.00    +0.000 A 
ATOM     11  C   UNL     1       7.474   4.916  13.660  0.00  0.00    +0.000 A 
ATOM     12  C   UNL     1       6.996   4.171  12.575  0.00  0.00    +0.000 A 
ENDBRANCH   5  10
ENDBRANCH   1   5
BRANCH   2  13
ATOM     13  C   UNL     1       5.806   4.788  19.382  0.00  0.00    +0.000 C 
BRANCH  13  14
ATOM     14  S   UNL     1       4.200   5.533  18.982  0.00  0.00    +0.000 S 
BRANCH  14  15
ATOM     15  C   UNL     1       3.158   4.129  18.751  0.00  0.00    +0.000 A 
ATOM     16  C   UNL     1       3.246   3.265  17.617  0.00  0.00    +0.000 A 
ATOM     17  C   UNL     1       2.389   2.184  17.713  0.00  0.00    +0.000 A 
ATOM     18  S   UNL     1       1.474   2.220  19.162  0.00  0.00    +0.000 S 
ATOM     19  C   UNL     1       2.240   3.651  19.658  0.00  0.00    +0.000 A 
BRANCH  19  20
ATOM     20  N   UNL     1       1.870   4.213  20.915  0.00  0.00    +0.000 N 
ATOM     21  O   UNL     1       1.290   5.307  20.889  0.00  0.00    +0.000 OA
ATOM     22  O   UNL     1       2.169   3.573  21.930  0.00  0.00    +0.000 OA
ENDBRANCH  19  20
ENDBRANCH  14  15
ENDBRANCH  13  14
ENDBRANCH   2  13
TORSDOF 6
ENDMDL
MODEL 3
REMARK VINA RESULT:      -6.7      4.821      6.872
REMARK  Name = 
REMARK  7 active torsions:
REMARK  status: ('A' for Active; 'I' for Inactive)
REMARK    1  A    between atoms: C_1  and  C_2
REMARK    2  A    between atoms: C_5  and  C_6
REMARK    3  A    between atoms: C_6  and  N_7
REMARK    4  A    between atoms: C_8  and  C_10
REMARK    5  A    between atoms: C_10  and  S_11
REMARK    6  A    between atoms: S_11  and  C_12
REMARK    7  A    between atoms: C_16  and  N_17
REMARK                            x       y       z     vdW  Elec       q    Type
REMARK                         _______ _______ _______ _____ _____    ______ ____
ROOT
ATOM      1  N   UNL     1       8.127   8.320  18.310  0.00  0.00    +0.000 N 
ATOM      2  C   UNL     1       7.746   7.136  17.721  0.00  0.00    +0.000 C 
ATOM      3  O   UNL     1       7.639   6.988  16.505  0.00  0.00    +0.000 OA
ATOM      4  H   UNL     1       8.061   8.413  19.317  0.00  0.00    +0.000 HD
ENDROOT
BRANCH   1   5
ATOM      5  C   UNL     1       8.279   9.539  17.549  0.00  0.00    +0.000 C 
BRANCH   5  10
ATOM      6  C   UNL     1      10.584  13.797  20.787  0.00  0.00    +0.000 C 
ATOM      7  C   UNL     1       9.960  12.706  19.968  0.00  0.00    +0.000 A 
ATOM      8  C   UNL     1       9.794  11.420  20.491  0.00  0.00    +0.000 A 
ATOM      9  C   UNL     1       9.233  10.405  19.711  0.00  0.00    +0.000 A 
ATOM     10  C   UNL     1       8.838  10.654  18.391  0.00  0.00    +0.000 A 
ATOM     11  C   UNL     1       8.982  11.949  17.874  0.00  0.00    +0.000 A 
ATOM     12  C   UNL     1       9.543  12.965  18.657  0.00  0.00    +0.000 A 
ENDBRANCH   5  10
ENDBRANCH   1   5
BRANCH   2  13
ATOM     13  C   UNL     1       7.513   5.982  18.678  0.00  0.00    +0.000 C 
BRANCH  13  14
ATOM     14  S   UNL     1       6.635   4.601  17.893  0.00  0.00    +0.000 S 
BRANCH  14  15
ATOM     15  C   UNL     1       4.942   4.972  18.217  0.00  0.00    +0.000 A 
ATOM     16  C   UNL     1       4.341   6.230  17.906  0.00  0.00    +0.000 A 
ATOM     17  C   UNL     1       2.984   6.243  18.167  0.00  0.00    +0.000 A 
ATOM     18  S   UNL     1       2.440   4.743  18.795  0.00  0.00    +0.000 S 
ATOM     19  C   UNL     1       4.001   4.087  18.693  0.00  0.00    +0.000 A 
BRANCH  19  20
ATOM     20  N   UNL     1       4.193   2.735  19.102  0.00  0.00    +0.000 N 
ATOM     21  O   UNL     1       3.667   1.860  18.402  0.00  0.00    +0.000 OA
ATOM     22  O   UNL     1       4.856   2.544  20.130  0.00  0.00    +0.000 OA
ENDBRANCH  19  20
ENDBRANCH  14  15
ENDBRANCH  13  14
ENDBRANCH   2  13
TORSDOF 6
ENDMDL
MODEL 4
REMARK VINA RESULT:      -6.7      1.784      2.028
REMARK  Name = 
REMARK  7 active torsions:
REMARK  status: ('A' for Active; 'I' for Inactive)
REMARK    1  A    between atoms: C_1  and  C_2
REMARK    2  A    between atoms: C_5  and  C_6
REMARK    3  A    between atoms: C_6  and  N_7
REMARK    4  A    between atoms: C_8  and  C_10
REMARK    5  A    between atoms: C_10  and  S_11
REMARK    6  A    between atoms: S_11  and  C_12
REMARK    7  A    between atoms: C_16  and  N_17
REMARK                            x       y       z     vdW  Elec       q    Type
REMARK                         _______ _______ _______ _____ _____    ______ ____
ROOT
ATOM      1  N   UNL     1       6.683   5.565  16.837  0.00  0.00    +0.000 N 
ATOM      2  C   UNL     1       6.939   4.915  18.022  0.00  0.00    +0.000 C 
ATOM      3  O   UNL     1       7.973   4.286  18.240  0.00  0.00    +0.000 OA
ATOM      4  H   UNL     1       5.759   5.946  16.673  0.00  0.00    +0.000 HD
ENDROOT
BRANCH   1   5
ATOM      5  C   UNL     1       7.545   5.424  15.685  0.00  0.00    +0.000 C 
BRANCH   5  10
ATOM      6  C   UNL     1       4.853   2.775  11.252  0.00  0.00    +0.000 C 
ATOM      7  C   UNL     1       5.540   3.487  12.378  0.00  0.00    +0.000 A 
ATOM      8  C   UNL     1       6.871   3.899  12.263  0.00  0.00    +0.000 A 
ATOM      9  C   UNL     1       7.508   4.542  13.328  0.00  0.00    +0.000 A 
ATOM     10  C   UNL     1       6.830   4.773  14.531  0.00  0.00    +0.000 A 
ATOM     11  C   UNL     1       5.489   4.382  14.639  0.00  0.00    +0.000 A 
ATOM     12  C   UNL     1       4.851   3.740  13.571  0.00  0.00    +0.000 A 
ENDBRANCH   5  10
ENDBRANCH   1   5
BRANCH   2  13
ATOM     13  C   UNL     1       5.873   5.070  19.090  0.00  0.00    +0.000 C 
BRANCH  13  14
ATOM     14  S   UNL     1       4.288   5.632  18.407  0.00  0.00    +0.000 S 
BRANCH  14  15
ATOM     15  C   UNL     1       3.286   4.182  18.487  0.00  0.00    +0.000 A 
ATOM     16  C   UNL     1       3.316   3.152  17.498  0.00  0.00    +0.000 A 
ATOM     17  C   UNL     1       2.511   2.079  17.833  0.00  0.00    +0.000 A 
ATOM     18  S   UNL     1       1.715   2.320  19.332  0.00  0.00    +0.000 S 
ATOM     19  C   UNL     1       2.462   3.831  19.532  0.00  0.00    +0.000 A 
BRANCH  19  20
ATOM     20  N   UNL     1       2.172   4.576  20.712  0.00  0.00    +0.000 N 
ATOM     21  O   UNL     1       2.422   4.028  21.794  0.00  0.00    +0.000 OA
ATOM     22  O   UNL     1       1.682   5.703  20.564  0.00  0.00    +0.000 OA
ENDBRANCH  19  20
ENDBRANCH  14  15
ENDBRANCH  13  14
ENDBRANCH   2  13
TORSDOF 6
ENDMDL
MODEL 5
REMARK VINA RESULT:      -6.5      3.210      4.616
REMARK  Name = 
REMARK  7 active torsions:
REMARK  status: ('A' for Active; 'I' for Inactive)
REMARK    1  A    between atoms: C_1  and  C_2
REMARK    2  A    between atoms: C_5  and  C_6
REMARK    3  A    between atoms: C_6  and  N_7
REMARK    4  A    between atoms: C_8  and  C_10
REMARK    5  A    between atoms: C_10  and  S_11
REMARK    6  A    between atoms: S_11  and  C_12
REMARK    7  A    between atoms: C_16  and  N_17
REMARK                            x       y       z     vdW  Elec       q    Type
REMARK                         _______ _______ _______ _____ _____    ______ ____
ROOT
ATOM      1  N   UNL     1       4.999   3.408  19.447  0.00  0.00    +0.000 N 
ATOM      2  C   UNL     1       4.183   2.338  19.732  0.00  0.00    +0.000 C 
ATOM      3  O   UNL     1       3.959   1.426  18.939  0.00  0.00    +0.000 OA
ATOM      4  H   UNL     1       5.031   4.190  20.091  0.00  0.00    +0.000 HD
ENDROOT
BRANCH   1   5
ATOM      5  C   UNL     1       5.536   3.629  18.123  0.00  0.00    +0.000 C 
BRANCH   5  10
ATOM      6  C   UNL     1       8.155   8.823  17.820  0.00  0.00    +0.000 C 
ATOM      7  C   UNL     1       7.498   7.476  17.870  0.00  0.00    +0.000 A 
ATOM      8  C   UNL     1       6.386   7.187  17.073  0.00  0.00    +0.000 A 
ATOM      9  C   UNL     1       5.768   5.936  17.145  0.00  0.00    +0.000 A 
ATOM     10  C   UNL     1       6.242   4.955  18.024  0.00  0.00    +0.000 A 
ATOM     11  C   UNL     1       7.371   5.234  18.806  0.00  0.00    +0.000 A 
ATOM     12  C   UNL     1       7.990   6.487  18.732  0.00  0.00    +0.000 A 
ENDBRANCH   5  10
ENDBRANCH   1   5
BRANCH   2  13
ATOM     13  C   UNL     1       3.605   2.320  21.135  0.00  0.00    +0.000 C 
BRANCH  13  14
ATOM     14  S   UNL     1       1.893   2.922  21.186  0.00  0.00    +0.000 S 
BRANCH  14  15
ATOM     15  C   UNL     1       1.960   4.389  20.209  0.00  0.00    +0.000 A 
ATOM     16  C   UNL     1       2.317   5.667  20.736  0.00  0.00    +0.000 A 
ATOM     17  C   UNL     1       2.389   6.639  19.755  0.00  0.00    +0.000 A 
ATOM     18  S   UNL     1       2.017   6.009  18.204  0.00  0.00    +0.000 S 
ATOM     19  C   UNL     1       1.788   4.455  18.845  0.00  0.00    +0.000 A 
BRANCH  19  20
ATOM     20  N   UNL     1       1.442   3.401  17.949  0.00  0.00    +0.000 N 
ATOM     21  O   UNL     1       0.481   2.688  18.270  0.00  0.00    +0.000 OA
ATOM     22  O   UNL     1       2.135   3.273  16.932  0.00  0.00    +0.000 OA
ENDBRANCH  19  20
ENDBRANCH  14  15
ENDBRANCH  13  14
ENDBRANCH   2  13
TORSDOF 6
ENDMDL
MODEL 6
REMARK VINA RESULT:      -6.5      3.473      6.521
REMARK  Name = 
REMARK  7 active torsions:
REMARK  status: ('A' for Active; 'I' for Inactive)
REMARK    1  A    between atoms: C_1  and  C_2
REMARK    2  A    between atoms: C_5  and  C_6
REMARK    3  A    between atoms: C_6  and  N_7
REMARK    4  A    between atoms: C_8  and  C_10
REMARK    5  A    between atoms: C_10  and  S_11
REMARK    6  A    between atoms: S_11  and  C_12
REMARK    7  A    between atoms: C_16  and  N_17
REMARK                            x       y       z     vdW  Elec       q    Type
REMARK                         _______ _______ _______ _____ _____    ______ ____
ROOT
ATOM      1  N   UNL     1       3.866   6.958  18.043  0.00  0.00    +0.000 N 
ATOM      2  C   UNL     1       4.733   6.375  17.148  0.00  0.00    +0.000 C 
ATOM      3  O   UNL     1       4.785   6.679  15.958  0.00  0.00    +0.000 OA
ATOM      4  H   UNL     1       3.779   6.566  18.973  0.00  0.00    +0.000 HD
ENDROOT
BRANCH   1   5
ATOM      5  C   UNL     1       2.828   7.870  17.618  0.00  0.00    +0.000 C 
BRANCH   5  10
ATOM      6  C   UNL     1      -0.379   9.835  22.065  0.00  0.00    +0.000 C 
ATOM      7  C   UNL     1       0.472   9.350  20.930  0.00  0.00    +0.000 A 
ATOM      8  C   UNL     1       0.553  10.069  19.734  0.00  0.00    +0.000 A 
ATOM      9  C   UNL     1       1.331   9.596  18.674  0.00  0.00    +0.000 A 
ATOM     10  C   UNL     1       2.032   8.389  18.785  0.00  0.00    +0.000 A 
ATOM     11  C   UNL     1       1.970   7.679  19.992  0.00  0.00    +0.000 A 
ATOM     12  C   UNL     1       1.192   8.156  21.054  0.00  0.00    +0.000 A 
ENDBRANCH   5  10
ENDBRANCH   1   5
BRANCH   2  13
ATOM     13  C   UNL     1       5.682   5.349  17.740  0.00  0.00    +0.000 C 
BRANCH  13  14
ATOM     14  S   UNL     1       5.098   4.707  19.334  0.00  0.00    +0.000 S 
BRANCH  14  15
ATOM     15  C   UNL     1       3.743   3.677  18.874  0.00  0.00    +0.000 A 
ATOM     16  C   UNL     1       3.567   3.152  17.557  0.00  0.00    +0.000 A 
ATOM     17  C   UNL     1       2.484   2.298  17.471  0.00  0.00    +0.000 A 
ATOM     18  S   UNL     1       1.676   2.138  18.975  0.00  0.00    +0.000 S 
ATOM     19  C   UNL     1       2.782   3.182  19.727  0.00  0.00    +0.000 A 
BRANCH  19  20
ATOM     20  N   UNL     1       2.618   3.451  21.117  0.00  0.00    +0.000 N 
ATOM     21  O   UNL     1       2.190   4.572  21.423  0.00  0.00    +0.000 OA
ATOM     22  O   UNL     1       2.928   2.551  21.907  0.00  0.00    +0.000 OA
ENDBRANCH  19  20
ENDBRANCH  14  15
ENDBRANCH  13  14
ENDBRANCH   2  13
TORSDOF 6
ENDMDL
MODEL 7
REMARK VINA RESULT:      -6.5      3.249      4.609
REMARK  Name = 
REMARK  7 active torsions:
REMARK  status: ('A' for Active; 'I' for Inactive)
REMARK    1  A    between atoms: C_1  and  C_2
REMARK    2  A    between atoms: C_5  and  C_6
REMARK    3  A    between atoms: C_6  and  N_7
REMARK    4  A    between atoms: C_8  and  C_10
REMARK    5  A    between atoms: C_10  and  S_11
REMARK    6  A    between atoms: S_11  and  C_12
REMARK    7  A    between atoms: C_16  and  N_17
REMARK                            x       y       z     vdW  Elec       q    Type
REMARK                         _______ _______ _______ _____ _____    ______ ____
ROOT
ATOM      1  N   UNL     1       5.019   3.371  19.427  0.00  0.00    +0.000 N 
ATOM      2  C   UNL     1       4.216   2.282  19.676  0.00  0.00    +0.000 C 
ATOM      3  O   UNL     1       3.999   1.398  18.851  0.00  0.00    +0.000 OA
ATOM      4  H   UNL     1       5.045   4.129  20.098  0.00  0.00    +0.000 HD
ENDROOT
BRANCH   1   5
ATOM      5  C   UNL     1       5.547   3.647  18.109  0.00  0.00    +0.000 C 
BRANCH   5  10
ATOM      6  C   UNL     1       8.219   8.812  17.784  0.00  0.00    +0.000 C 
ATOM      7  C   UNL     1       7.515   7.493  17.896  0.00  0.00    +0.000 A 
ATOM      8  C   UNL     1       7.982   6.499  18.761  0.00  0.00    +0.000 A 
ATOM      9  C   UNL     1       7.331   5.265  18.840  0.00  0.00    +0.000 A 
ATOM     10  C   UNL     1       6.209   4.997  18.047  0.00  0.00    +0.000 A 
ATOM     11  C   UNL     1       5.725   6.001  17.197  0.00  0.00    +0.000 A 
ATOM     12  C   UNL     1       6.377   7.238  17.120  0.00  0.00    +0.000 A 
ENDBRANCH   5  10
ENDBRANCH   1   5
BRANCH   2  13
ATOM     13  C   UNL     1       3.646   2.206  21.080  0.00  0.00    +0.000 C 
BRANCH  13  14
ATOM     14  S   UNL     1       1.932   2.797  21.163  0.00  0.00    +0.000 S 
BRANCH  14  15
ATOM     15  C   UNL     1       1.978   4.282  20.213  0.00  0.00    +0.000 A 
ATOM     16  C   UNL     1       2.344   5.551  20.757  0.00  0.00    +0.000 A 
ATOM     17  C   UNL     1       2.396   6.540  19.793  0.00  0.00    +0.000 A 
ATOM     18  S   UNL     1       1.994   5.940  18.238  0.00  0.00    +0.000 S 
ATOM     19  C   UNL     1       1.779   4.373  18.854  0.00  0.00    +0.000 A 
BRANCH  19  20
ATOM     20  N   UNL     1       1.416   3.336  17.946  0.00  0.00    +0.000 N 
ATOM     21  O   UNL     1       2.123   3.203  16.938  0.00  0.00    +0.000 OA
ATOM     22  O   UNL     1       0.418   2.661  18.229  0.00  0.00    +0.000 OA
ENDBRANCH  19  20
ENDBRANCH  14  15
ENDBRANCH  13  14
ENDBRANCH   2  13
TORSDOF 6
ENDMDL
MODEL 8
REMARK VINA RESULT:      -6.4      6.168      7.916
REMARK  Name = 
REMARK  7 active torsions:
REMARK  status: ('A' for Active; 'I' for Inactive)
REMARK    1  A    between atoms: C_1  and  C_2
REMARK    2  A    between atoms: C_5  and  C_6
REMARK    3  A    between atoms: C_6  and  N_7
REMARK    4  A    between atoms: C_8  and  C_10
REMARK    5  A    between atoms: C_10  and  S_11
REMARK    6  A    between atoms: S_11  and  C_12
REMARK    7  A    between atoms: C_16  and  N_17
REMARK                            x       y       z     vdW  Elec       q    Type
REMARK                         _______ _______ _______ _____ _____    ______ ____
ROOT
ATOM      1  N   UNL     1       1.708   8.447  19.434  0.00  0.00    +0.000 N 
ATOM      2  C   UNL     1       1.499   9.343  18.411  0.00  0.00    +0.000 C 
ATOM      3  O   UNL     1       2.078   9.283  17.328  0.00  0.00    +0.000 OA
ATOM      4  H   UNL     1       1.305   8.633  20.344  0.00  0.00    +0.000 HD
ENDROOT
BRANCH   1   5
ATOM      5  C   UNL     1       2.751   7.447  19.373  0.00  0.00    +0.000 C 
BRANCH   5  10
ATOM      6  C   UNL     1       0.698   2.018  18.888  0.00  0.00    +0.000 C 
ATOM      7  C   UNL     1       1.197   3.428  19.002  0.00  0.00    +0.000 A 
ATOM      8  C   UNL     1       1.648   4.125  17.878  0.00  0.00    +0.000 A 
ATOM      9  C   UNL     1       2.132   5.431  18.001  0.00  0.00    +0.000 A 
ATOM     10  C   UNL     1       2.184   6.058  19.251  0.00  0.00    +0.000 A 
ATOM     11  C   UNL     1       1.710   5.369  20.375  0.00  0.00    +0.000 A 
ATOM     12  C   UNL     1       1.223   4.062  20.251  0.00  0.00    +0.000 A 
ENDBRANCH   5  10
ENDBRANCH   1   5
BRANCH   2  13
ATOM     13  C   UNL     1       0.449  10.403  18.684  0.00  0.00    +0.000 C 
BRANCH  13  14
ATOM     14  S   UNL     1       1.101  11.789  19.658  0.00  0.00    +0.000 S 
BRANCH  14  15
ATOM     15  C   UNL     1      -0.031  11.894  21.006  0.00  0.00    +0.000 A 
ATOM     16  C   UNL     1      -0.920  12.995  21.200  0.00  0.00    +0.000 A 
ATOM     17  C   UNL     1      -1.771  12.800  22.271  0.00  0.00    +0.000 A 
ATOM     18  S   UNL     1      -1.490  11.297  23.046  0.00  0.00    +0.000 S 
ATOM     19  C   UNL     1      -0.261  10.911  21.941  0.00  0.00    +0.000 A 
BRANCH  19  20
ATOM     20  N   UNL     1       0.402   9.657  22.081  0.00  0.00    +0.000 N 
ATOM     21  O   UNL     1       1.590   9.689  22.431  0.00  0.00    +0.000 OA
ATOM     22  O   UNL     1      -0.254   8.639  21.829  0.00  0.00    +0.000 OA
ENDBRANCH  19  20
ENDBRANCH  14  15
ENDBRANCH  13  14
ENDBRANCH   2  13
TORSDOF 6
ENDMDL
MODEL 9
REMARK VINA RESULT:      -6.4      5.268      8.162
REMARK  Name = 
REMARK  7 active torsions:
REMARK  status: ('A' for Active; 'I' for Inactive)
REMARK    1  A    between atoms: C_1  and  C_2
REMARK    2  A    between atoms: C_5  and  C_6
REMARK    3  A    between atoms: C_6  and  N_7
REMARK    4  A    between atoms: C_8  and  C_10
REMARK    5  A    between atoms: C_10  and  S_11
REMARK    6  A    between atoms: S_11  and  C_12
REMARK    7  A    between atoms: C_16  and  N_17
REMARK                            x       y       z     vdW  Elec       q    Type
REMARK                         _______ _______ _______ _____ _____    ______ ____
ROOT
ATOM      1  N   UNL     1       1.571   9.379  18.406  0.00  0.00    +0.000 N 
ATOM      2  C   UNL     1       2.187   8.214  18.801  0.00  0.00    +0.000 C 
ATOM      3  O   UNL     1       1.977   7.670  19.883  0.00  0.00    +0.000 OA
ATOM      4  H   UNL     1       1.890   9.845  17.565  0.00  0.00    +0.000 HD
ENDROOT
BRANCH   1   5
ATOM      5  C   UNL     1       0.742  10.149  19.306  0.00  0.00    +0.000 C 
BRANCH   5  10
ATOM      6  C   UNL     1      -4.469  11.306  16.976  0.00  0.00    +0.000 C 
ATOM      7  C   UNL     1      -3.113  11.028  17.552  0.00  0.00    +0.000 A 
ATOM      8  C   UNL     1      -2.274  10.065  16.985  0.00  0.00    +0.000 A 
ATOM      9  C   UNL     1      -1.021   9.799  17.544  0.00  0.00    +0.000 A 
ATOM     10  C   UNL     1      -0.590  10.481  18.688  0.00  0.00    +0.000 A 
ATOM     11  C   UNL     1      -1.420  11.464  19.244  0.00  0.00    +0.000 A 
ATOM     12  C   UNL     1      -2.674  11.732  18.681  0.00  0.00    +0.000 A 
ENDBRANCH   5  10
ENDBRANCH   1   5
BRANCH   2  13
ATOM     13  C   UNL     1       3.119   7.595  17.776  0.00  0.00    +0.000 C 
BRANCH  13  14
ATOM     14  S   UNL     1       3.174   5.785  17.897  0.00  0.00    +0.000 S 
BRANCH  14  15
ATOM     15  C   UNL     1       4.722   5.385  17.153  0.00  0.00    +0.000 A 
ATOM     16  C   UNL     1       5.026   5.650  15.782  0.00  0.00    +0.000 A 
ATOM     17  C   UNL     1       6.333   5.332  15.463  0.00  0.00    +0.000 A 
ATOM     18  S   UNL     1       7.186   4.705  16.811  0.00  0.00    +0.000 S 
ATOM     19  C   UNL     1       5.824   4.884  17.808  0.00  0.00    +0.000 A 
BRANCH  19  20
ATOM     20  N   UNL     1       5.936   4.505  19.178  0.00  0.00    +0.000 N 
ATOM     21  O   UNL     1       6.642   5.222  19.900  0.00  0.00    +0.000 OA
ATOM     22  O   UNL     1       5.333   3.484  19.533  0.00  0.00    +0.000 OA
ENDBRANCH  19  20
ENDBRANCH  14  15
ENDBRANCH  13  14
ENDBRANCH   2  13
TORSDOF 6
ENDMDL
