MODEL 1
REMARK VINA RESULT:      -9.1      0.000      0.000
REMARK  Name = 
REMARK  7 active torsions:
REMARK  status: ('A' for Active; 'I' for Inactive)
REMARK    1  A    between atoms: C_1  and  N_2
REMARK    2  A    between atoms: N_2  and  C_3
REMARK    3  A    between atoms: N_2  and  C_4
REMARK    4  A    between atoms: C_7  and  C_8
REMARK    5  A    between atoms: C_15  and  C_16
REMARK    6  A    between atoms: C_21  and  N_22
REMARK    7  A    between atoms: C_23  and  C_25
REMARK                            x       y       z     vdW  Elec       q    Type
REMARK                         _______ _______ _______ _____ _____    ______ ____
ROOT
ATOM      1  C   UNL     1       0.110  11.559  21.018  0.00  0.00    +0.000 C 
ATOM      2  C   UNL     1       0.400  10.290  20.687  0.00  0.00    +0.000 A 
ATOM      3  S   UNL     1       0.193   8.955  21.785  0.00  0.00    +0.000 S 
ATOM      4  C   UNL     1       1.241   7.929  20.840  0.00  0.00    +0.000 A 
ATOM      5  N   UNL     1       1.607   6.751  21.207  0.00  0.00    +0.000 NA
ATOM      6  C   UNL     1       2.422   6.104  20.303  0.00  0.00    +0.000 A 
ATOM      7  O   UNL     1       2.786   4.945  20.469  0.00  0.00    +0.000 OA
ATOM      8  C   UNL     1       2.859   6.789  19.005  0.00  0.00    +0.000 A 
ATOM      9  N   UNL     1       2.425   7.990  18.748  0.00  0.00    +0.000 NA
ATOM     10  N   UNL     1       1.605   8.558  19.682  0.00  0.00    +0.000 N 
ATOM     11  C   UNL     1       1.047   9.798  19.431  0.00  0.00    +0.000 A 
ATOM     12  O   UNL     1       1.032  10.380  18.357  0.00  0.00    +0.000 OA
ENDROOT
BRANCH   1  16
ATOM     13  C   UNL     1       1.109  15.160  18.810  0.00  0.00    +0.000 A 
ATOM     14  C   UNL     1       2.051  14.471  19.590  0.00  0.00    +0.000 A 
ATOM     15  C   UNL     1       1.721  13.310  20.312  0.00  0.00    +0.000 A 
ATOM     16  C   UNL     1       0.434  12.775  20.252  0.00  0.00    +0.000 A 
ATOM     17  C   UNL     1      -0.473  13.377  19.378  0.00  0.00    +0.000 A 
ATOM     18  C   UNL     1      -0.150  14.558  18.697  0.00  0.00    +0.000 A 
BRANCH  13  20
ATOM     19  C   UNL     1       2.763  16.636  17.735  0.00  0.00    +0.000 C 
ATOM     20  N   UNL     1       1.390  16.365  18.148  0.00  0.00    +0.000 N 
ATOM     21  C   UNL     1       0.625  17.531  18.603  0.00  0.00    +0.000 C 
ENDBRANCH  13  20
ENDBRANCH   1  16
BRANCH   8  22
ATOM     22  C   UNL     1       3.772   6.148  18.015  0.00  0.00    +0.000 A 
ATOM     23  C   UNL     1       4.591   7.052  17.300  0.00  0.00    +0.000 A 
ATOM     24  C   UNL     1       5.371   6.625  16.228  0.00  0.00    +0.000 A 
ATOM     25  C   UNL     1       5.345   5.290  15.860  0.00  0.00    +0.000 A 
ATOM     26  C   UNL     1       4.537   4.386  16.556  0.00  0.00    +0.000 A 
ATOM     27  C   UNL     1       3.729   4.789  17.633  0.00  0.00    +0.000 A 
BRANCH  27  28
ATOM     28  N   UNL     1       2.898   3.850  18.294  0.00  0.00    +0.000 N 
ATOM     29  C   UNL     1       1.565   3.549  18.005  0.00  0.00    +0.000 C 
ATOM     30  O   UNL     1       0.881   4.139  17.167  0.00  0.00    +0.000 OA
ATOM     31  H   UNL     1       3.325   3.286  19.032  0.00  0.00    +0.000 HD
BRANCH  29  32
ATOM     32  C   UNL     1       0.984   2.423  18.882  0.00  0.00    +0.000 C 
ATOM     33  F   UNL     1       1.934   1.521  19.261  0.00  0.00    +0.000 F 
ATOM     34  F   UNL     1       0.435   2.898  20.035  0.00  0.00    +0.000 F 
ATOM     35  F   UNL     1       0.011   1.717  18.246  0.00  0.00    +0.000 F 
ENDBRANCH  29  32
ENDBRANCH  27  28
ENDBRANCH   8  22
TORSDOF 5
ENDMDL
MODEL 2
REMARK VINA RESULT:      -9.0      0.117      1.050
REMARK  Name = 
REMARK  7 active torsions:
REMARK  status: ('A' for Active; 'I' for Inactive)
REMARK    1  A    between atoms: C_1  and  N_2
REMARK    2  A    between atoms: N_2  and  C_3
REMARK    3  A    between atoms: N_2  and  C_4
REMARK    4  A    between atoms: C_7  and  C_8
REMARK    5  A    between atoms: C_15  and  C_16
REMARK    6  A    between atoms: C_21  and  N_22
REMARK    7  A    between atoms: C_23  and  C_25
REMARK                            x       y       z     vdW  Elec       q    Type
REMARK                         _______ _______ _______ _____ _____    ______ ____
ROOT
ATOM      1  C   UNL     1       0.165  11.555  21.120  0.00  0.00    +0.000 C 
ATOM      2  C   UNL     1       0.444  10.289  20.766  0.00  0.00    +0.000 A 
ATOM      3  S   UNL     1       0.229   8.938  21.843  0.00  0.00    +0.000 S 
ATOM      4  C   UNL     1       1.265   7.919  20.876  0.00  0.00    +0.000 A 
ATOM      5  N   UNL     1       1.621   6.731  21.222  0.00  0.00    +0.000 NA
ATOM      6  C   UNL     1       2.427   6.093  20.304  0.00  0.00    +0.000 A 
ATOM      7  O   UNL     1       2.782   4.928  20.449  0.00  0.00    +0.000 OA
ATOM      8  C   UNL     1       2.865   6.795  19.016  0.00  0.00    +0.000 A 
ATOM      9  N   UNL     1       2.440   8.004  18.781  0.00  0.00    +0.000 NA
ATOM     10  N   UNL     1       1.629   8.564  19.727  0.00  0.00    +0.000 N 
ATOM     11  C   UNL     1       1.080   9.813  19.499  0.00  0.00    +0.000 A 
ATOM     12  O   UNL     1       1.066  10.412  18.435  0.00  0.00    +0.000 OA
ENDROOT
BRANCH   1  16
ATOM     13  C   UNL     1       1.094  15.149  18.870  0.00  0.00    +0.000 A 
ATOM     14  C   UNL     1      -0.192  14.588  18.892  0.00  0.00    +0.000 A 
ATOM     15  C   UNL     1      -0.487  13.418  19.615  0.00  0.00    +0.000 A 
ATOM     16  C   UNL     1       0.497  12.781  20.372  0.00  0.00    +0.000 A 
ATOM     17  C   UNL     1       1.743  13.402  20.461  0.00  0.00    +0.000 A 
ATOM     18  C   UNL     1       2.042  14.542  19.704  0.00  0.00    +0.000 A 
BRANCH  13  20
ATOM     19  C   UNL     1       2.844  16.594  17.911  0.00  0.00    +0.000 C 
ATOM     20  N   UNL     1       1.434  16.266  18.092  0.00  0.00    +0.000 N 
ATOM     21  C   UNL     1       0.527  17.414  18.202  0.00  0.00    +0.000 C 
ENDBRANCH  13  20
ENDBRANCH   1  16
BRANCH   8  22
ATOM     22  C   UNL     1       3.767   6.164  18.011  0.00  0.00    +0.000 A 
ATOM     23  C   UNL     1       4.577   7.074  17.294  0.00  0.00    +0.000 A 
ATOM     24  C   UNL     1       5.347   6.656  16.211  0.00  0.00    +0.000 A 
ATOM     25  C   UNL     1       5.318   5.324  15.833  0.00  0.00    +0.000 A 
ATOM     26  C   UNL     1       4.520   4.413  16.532  0.00  0.00    +0.000 A 
ATOM     27  C   UNL     1       3.723   4.807  17.620  0.00  0.00    +0.000 A 
BRANCH  27  28
ATOM     28  N   UNL     1       2.900   3.862  18.283  0.00  0.00    +0.000 N 
ATOM     29  C   UNL     1       1.568   3.553  17.999  0.00  0.00    +0.000 C 
ATOM     30  O   UNL     1       0.877   4.139  17.165  0.00  0.00    +0.000 OA
ATOM     31  H   UNL     1       3.334   3.299  19.018  0.00  0.00    +0.000 HD
BRANCH  29  32
ATOM     32  C   UNL     1       0.998   2.422  18.877  0.00  0.00    +0.000 C 
ATOM     33  F   UNL     1       0.425   2.895  20.021  0.00  0.00    +0.000 F 
ATOM     34  F   UNL     1       0.028   1.711  18.237  0.00  0.00    +0.000 F 
ATOM     35  F   UNL     1       1.951   1.531  19.261  0.00  0.00    +0.000 F 
ENDBRANCH  29  32
ENDBRANCH  27  28
ENDBRANCH   8  22
TORSDOF 5
ENDMDL
MODEL 3
REMARK VINA RESULT:      -8.8      3.625      5.095
REMARK  Name = 
REMARK  7 active torsions:
REMARK  status: ('A' for Active; 'I' for Inactive)
REMARK    1  A    between atoms: C_1  and  N_2
REMARK    2  A    between atoms: N_2  and  C_3
REMARK    3  A    between atoms: N_2  and  C_4
REMARK    4  A    between atoms: C_7  and  C_8
REMARK    5  A    between atoms: C_15  and  C_16
REMARK    6  A    between atoms: C_21  and  N_22
REMARK    7  A    between atoms: C_23  and  C_25
REMARK                            x       y       z     vdW  Elec       q    Type
REMARK                         _______ _______ _______ _____ _____    ______ ____
ROOT
ATOM      1  C   UNL     1       0.133  12.260  19.668  0.00  0.00    +0.000 C 
ATOM      2  C   UNL     1       0.943  11.212  19.443  0.00  0.00    +0.000 A 
ATOM      3  S   UNL     1       1.874  11.033  17.983  0.00  0.00    +0.000 S 
ATOM      4  C   UNL     1       2.120   9.329  18.271  0.00  0.00    +0.000 A 
ATOM      5  N   UNL     1       2.692   8.539  17.431  0.00  0.00    +0.000 NA
ATOM      6  C   UNL     1       2.801   7.235  17.866  0.00  0.00    +0.000 A 
ATOM      7  O   UNL     1       3.395   6.381  17.216  0.00  0.00    +0.000 OA
ATOM      8  C   UNL     1       2.239   6.807  19.224  0.00  0.00    +0.000 A 
ATOM      9  N   UNL     1       1.676   7.703  19.985  0.00  0.00    +0.000 NA
ATOM     10  N   UNL     1       1.622   8.977  19.494  0.00  0.00    +0.000 N 
ATOM     11  C   UNL     1       1.110   9.988  20.287  0.00  0.00    +0.000 A 
ATOM     12  O   UNL     1       0.877   9.921  21.484  0.00  0.00    +0.000 OA
ENDROOT
BRANCH   1  16
ATOM     13  C   UNL     1      -2.789  12.731  22.843  0.00  0.00    +0.000 A 
ATOM     14  C   UNL     1      -3.154  12.394  21.530  0.00  0.00    +0.000 A 
ATOM     15  C   UNL     1      -2.204  12.252  20.502  0.00  0.00    +0.000 A 
ATOM     16  C   UNL     1      -0.843  12.412  20.762  0.00  0.00    +0.000 A 
ATOM     17  C   UNL     1      -0.461  12.618  22.088  0.00  0.00    +0.000 A 
ATOM     18  C   UNL     1      -1.414  12.802  23.098  0.00  0.00    +0.000 A 
BRANCH  13  20
ATOM     19  C   UNL     1      -5.142  12.820  23.568  0.00  0.00    +0.000 C 
ATOM     20  N   UNL     1      -3.721  12.960  23.867  0.00  0.00    +0.000 N 
ATOM     21  C   UNL     1      -3.376  14.031  24.809  0.00  0.00    +0.000 C 
ENDBRANCH  13  20
ENDBRANCH   1  16
BRANCH   8  22
ATOM     22  C   UNL     1       2.296   5.403  19.722  0.00  0.00    +0.000 A 
ATOM     23  C   UNL     1       1.045   4.859  20.093  0.00  0.00    +0.000 A 
ATOM     24  C   UNL     1       0.956   3.624  20.731  0.00  0.00    +0.000 A 
ATOM     25  C   UNL     1       2.115   2.916  21.002  0.00  0.00    +0.000 A 
ATOM     26  C   UNL     1       3.359   3.443  20.642  0.00  0.00    +0.000 A 
ATOM     27  C   UNL     1       3.482   4.692  20.010  0.00  0.00    +0.000 A 
BRANCH  27  28
ATOM     28  N   UNL     1       4.763   5.208  19.691  0.00  0.00    +0.000 N 
ATOM     29  C   UNL     1       5.623   4.771  18.680  0.00  0.00    +0.000 C 
ATOM     30  O   UNL     1       5.418   3.791  17.963  0.00  0.00    +0.000 OA
ATOM     31  H   UNL     1       5.082   6.025  20.216  0.00  0.00    +0.000 HD
BRANCH  29  32
ATOM     32  C   UNL     1       6.914   5.606  18.568  0.00  0.00    +0.000 C 
ATOM     33  F   UNL     1       7.881   4.966  17.850  0.00  0.00    +0.000 F 
ATOM     34  F   UNL     1       6.705   6.797  17.940  0.00  0.00    +0.000 F 
ATOM     35  F   UNL     1       7.457   5.891  19.781  0.00  0.00    +0.000 F 
ENDBRANCH  29  32
ENDBRANCH  27  28
ENDBRANCH   8  22
TORSDOF 5
ENDMDL
MODEL 4
REMARK VINA RESULT:      -8.7      3.626      5.046
REMARK  Name = 
REMARK  7 active torsions:
REMARK  status: ('A' for Active; 'I' for Inactive)
REMARK    1  A    between atoms: C_1  and  N_2
REMARK    2  A    between atoms: N_2  and  C_3
REMARK    3  A    between atoms: N_2  and  C_4
REMARK    4  A    between atoms: C_7  and  C_8
REMARK    5  A    between atoms: C_15  and  C_16
REMARK    6  A    between atoms: C_21  and  N_22
REMARK    7  A    between atoms: C_23  and  C_25
REMARK                            x       y       z     vdW  Elec       q    Type
REMARK                         _______ _______ _______ _____ _____    ______ ____
ROOT
ATOM      1  C   UNL     1       0.179  12.289  19.622  0.00  0.00    +0.000 C 
ATOM      2  C   UNL     1       0.989  11.238  19.412  0.00  0.00    +0.000 A 
ATOM      3  S   UNL     1       1.947  11.056  17.971  0.00  0.00    +0.000 S 
ATOM      4  C   UNL     1       2.181   9.351  18.262  0.00  0.00    +0.000 A 
ATOM      5  N   UNL     1       2.765   8.559  17.433  0.00  0.00    +0.000 NA
ATOM      6  C   UNL     1       2.860   7.255  17.868  0.00  0.00    +0.000 A 
ATOM      7  O   UNL     1       3.463   6.399  17.228  0.00  0.00    +0.000 OA
ATOM      8  C   UNL     1       2.269   6.828  19.213  0.00  0.00    +0.000 A 
ATOM      9  N   UNL     1       1.695   7.725  19.964  0.00  0.00    +0.000 NA
ATOM     10  N   UNL     1       1.656   8.999  19.474  0.00  0.00    +0.000 N 
ATOM     11  C   UNL     1       1.133  10.012  20.257  0.00  0.00    +0.000 A 
ATOM     12  O   UNL     1       0.876   9.945  21.450  0.00  0.00    +0.000 OA
ENDROOT
BRANCH   1  16
ATOM     13  C   UNL     1      -2.711  12.725  22.831  0.00  0.00    +0.000 A 
ATOM     14  C   UNL     1      -1.341  12.971  23.016  0.00  0.00    +0.000 A 
ATOM     15  C   UNL     1      -0.407  12.819  21.975  0.00  0.00    +0.000 A 
ATOM     16  C   UNL     1      -0.818  12.444  20.696  0.00  0.00    +0.000 A 
ATOM     17  C   UNL     1      -2.191  12.324  20.471  0.00  0.00    +0.000 A 
ATOM     18  C   UNL     1      -3.111  12.434  21.522  0.00  0.00    +0.000 A 
BRANCH  13  20
ATOM     19  C   UNL     1      -5.069  12.682  23.544  0.00  0.00    +0.000 C 
ATOM     20  N   UNL     1      -3.651  12.788  23.871  0.00  0.00    +0.000 N 
ATOM     21  C   UNL     1      -3.323  13.706  24.968  0.00  0.00    +0.000 C 
ENDBRANCH  13  20
ENDBRANCH   1  16
BRANCH   8  22
ATOM     22  C   UNL     1       2.310   5.422  19.710  0.00  0.00    +0.000 A 
ATOM     23  C   UNL     1       1.049   4.885  20.059  0.00  0.00    +0.000 A 
ATOM     24  C   UNL     1       0.942   3.650  20.694  0.00  0.00    +0.000 A 
ATOM     25  C   UNL     1       2.093   2.936  20.985  0.00  0.00    +0.000 A 
ATOM     26  C   UNL     1       3.346   3.456  20.648  0.00  0.00    +0.000 A 
ATOM     27  C   UNL     1       3.487   4.705  20.019  0.00  0.00    +0.000 A 
BRANCH  27  28
ATOM     28  N   UNL     1       4.776   5.215  19.723  0.00  0.00    +0.000 N 
ATOM     29  C   UNL     1       5.650   4.776  18.726  0.00  0.00    +0.000 C 
ATOM     30  O   UNL     1       5.452   3.800  18.001  0.00  0.00    +0.000 OA
ATOM     31  H   UNL     1       5.091   6.028  20.257  0.00  0.00    +0.000 HD
BRANCH  29  32
ATOM     32  C   UNL     1       6.948   5.604  18.638  0.00  0.00    +0.000 C 
ATOM     33  F   UNL     1       7.459   5.895  19.868  0.00  0.00    +0.000 F 
ATOM     34  F   UNL     1       7.934   4.947  17.966  0.00  0.00    +0.000 F 
ATOM     35  F   UNL     1       6.764   6.793  18.004  0.00  0.00    +0.000 F 
ENDBRANCH  29  32
ENDBRANCH  27  28
ENDBRANCH   8  22
TORSDOF 5
ENDMDL
MODEL 5
REMARK VINA RESULT:      -8.5      0.804      1.002
REMARK  Name = 
REMARK  7 active torsions:
REMARK  status: ('A' for Active; 'I' for Inactive)
REMARK    1  A    between atoms: C_1  and  N_2
REMARK    2  A    between atoms: N_2  and  C_3
REMARK    3  A    between atoms: N_2  and  C_4
REMARK    4  A    between atoms: C_7  and  C_8
REMARK    5  A    between atoms: C_15  and  C_16
REMARK    6  A    between atoms: C_21  and  N_22
REMARK    7  A    between atoms: C_23  and  C_25
REMARK                            x       y       z     vdW  Elec       q    Type
REMARK                         _______ _______ _______ _____ _____    ______ ____
ROOT
ATOM      1  C   UNL     1       0.247  12.019  21.127  0.00  0.00    +0.000 C 
ATOM      2  C   UNL     1       0.448  10.732  20.798  0.00  0.00    +0.000 A 
ATOM      3  S   UNL     1       0.154   9.417  21.900  0.00  0.00    +0.000 S 
ATOM      4  C   UNL     1       1.125   8.319  20.953  0.00  0.00    +0.000 A 
ATOM      5  N   UNL     1       1.410   7.119  21.321  0.00  0.00    +0.000 NA
ATOM      6  C   UNL     1       2.175   6.416  20.415  0.00  0.00    +0.000 A 
ATOM      7  O   UNL     1       2.459   5.235  20.583  0.00  0.00    +0.000 OA
ATOM      8  C   UNL     1       2.652   7.066  19.114  0.00  0.00    +0.000 A 
ATOM      9  N   UNL     1       2.300   8.294  18.856  0.00  0.00    +0.000 NA
ATOM     10  N   UNL     1       1.526   8.919  19.792  0.00  0.00    +0.000 N 
ATOM     11  C   UNL     1       1.053  10.194  19.540  0.00  0.00    +0.000 A 
ATOM     12  O   UNL     1       1.073  10.773  18.464  0.00  0.00    +0.000 OA
ENDROOT
BRANCH   1  16
ATOM     13  C   UNL     1       1.481  15.538  18.906  0.00  0.00    +0.000 A 
ATOM     14  C   UNL     1       2.371  14.806  19.707  0.00  0.00    +0.000 A 
ATOM     15  C   UNL     1       1.964  13.671  20.433  0.00  0.00    +0.000 A 
ATOM     16  C   UNL     1       0.651  13.209  20.356  0.00  0.00    +0.000 A 
ATOM     17  C   UNL     1      -0.207  13.852  19.461  0.00  0.00    +0.000 A 
ATOM     18  C   UNL     1       0.193  15.006  18.776  0.00  0.00    +0.000 A 
BRANCH  13  20
ATOM     19  C   UNL     1       0.795  17.677  17.895  0.00  0.00    +0.000 C 
ATOM     20  N   UNL     1       1.840  16.719  18.239  0.00  0.00    +0.000 N 
ATOM     21  C   UNL     1       2.925  16.590  17.260  0.00  0.00    +0.000 C 
ENDBRANCH  13  20
ENDBRANCH   1  16
BRANCH   8  22
ATOM     22  C   UNL     1       3.514   6.362  18.122  0.00  0.00    +0.000 A 
ATOM     23  C   UNL     1       4.509   7.171  17.528  0.00  0.00    +0.000 A 
ATOM     24  C   UNL     1       5.280   6.705  16.466  0.00  0.00    +0.000 A 
ATOM     25  C   UNL     1       5.067   5.424  15.986  0.00  0.00    +0.000 A 
ATOM     26  C   UNL     1       4.084   4.613  16.561  0.00  0.00    +0.000 A 
ATOM     27  C   UNL     1       3.282   5.060  17.624  0.00  0.00    +0.000 A 
BRANCH  27  28
ATOM     28  N   UNL     1       2.272   4.222  18.160  0.00  0.00    +0.000 N 
ATOM     29  C   UNL     1       2.425   2.926  18.659  0.00  0.00    +0.000 C 
ATOM     30  O   UNL     1       3.474   2.281  18.621  0.00  0.00    +0.000 OA
ATOM     31  H   UNL     1       1.333   4.617  18.245  0.00  0.00    +0.000 HD
BRANCH  29  32
ATOM     32  C   UNL     1       1.124   2.328  19.229  0.00  0.00    +0.000 C 
ATOM     33  F   UNL     1       1.363   1.415  20.213  0.00  0.00    +0.000 F 
ATOM     34  F   UNL     1       0.320   3.278  19.784  0.00  0.00    +0.000 F 
ATOM     35  F   UNL     1       0.385   1.692  18.282  0.00  0.00    +0.000 F 
ENDBRANCH  29  32
ENDBRANCH  27  28
ENDBRANCH   8  22
TORSDOF 5
ENDMDL
MODEL 6
REMARK VINA RESULT:      -8.2      5.898     10.304
REMARK  Name = 
REMARK  7 active torsions:
REMARK  status: ('A' for Active; 'I' for Inactive)
REMARK    1  A    between atoms: C_1  and  N_2
REMARK    2  A    between atoms: N_2  and  C_3
REMARK    3  A    between atoms: N_2  and  C_4
REMARK    4  A    between atoms: C_7  and  C_8
REMARK    5  A    between atoms: C_15  and  C_16
REMARK    6  A    between atoms: C_21  and  N_22
REMARK    7  A    between atoms: C_23  and  C_25
REMARK                            x       y       z     vdW  Elec       q    Type
REMARK                         _______ _______ _______ _____ _____    ______ ____
ROOT
ATOM      1  C   UNL     1       1.377  11.618  18.782  0.00  0.00    +0.000 C 
ATOM      2  C   UNL     1       0.246  12.304  19.014  0.00  0.00    +0.000 A 
ATOM      3  S   UNL     1       0.190  14.043  19.066  0.00  0.00    +0.000 S 
ATOM      4  C   UNL     1      -1.342  14.035  19.902  0.00  0.00    +0.000 A 
ATOM      5  N   UNL     1      -1.913  15.095  20.355  0.00  0.00    +0.000 NA
ATOM      6  C   UNL     1      -3.127  14.866  20.967  0.00  0.00    +0.000 A 
ATOM      7  O   UNL     1      -3.833  15.783  21.375  0.00  0.00    +0.000 OA
ATOM      8  C   UNL     1      -3.684  13.447  21.106  0.00  0.00    +0.000 A 
ATOM      9  N   UNL     1      -3.006  12.451  20.609  0.00  0.00    +0.000 NA
ATOM     10  N   UNL     1      -1.823  12.759  20.001  0.00  0.00    +0.000 N 
ATOM     11  C   UNL     1      -1.096  11.757  19.383  0.00  0.00    +0.000 A 
ATOM     12  O   UNL     1      -1.491  10.629  19.130  0.00  0.00    +0.000 OA
ENDROOT
BRANCH   1  16
ATOM     13  C   UNL     1       1.993   7.346  19.244  0.00  0.00    +0.000 A 
ATOM     14  C   UNL     1       1.581   8.164  20.307  0.00  0.00    +0.000 A 
ATOM     15  C   UNL     1       1.391   9.550  20.155  0.00  0.00    +0.000 A 
ATOM     16  C   UNL     1       1.580  10.164  18.917  0.00  0.00    +0.000 A 
ATOM     17  C   UNL     1       1.863   9.340  17.827  0.00  0.00    +0.000 A 
ATOM     18  C   UNL     1       2.093   7.968  17.994  0.00  0.00    +0.000 A 
BRANCH  13  20
ATOM     19  C   UNL     1       2.446   5.166  18.189  0.00  0.00    +0.000 C 
ATOM     20  N   UNL     1       2.270   5.978  19.388  0.00  0.00    +0.000 N 
ATOM     21  C   UNL     1       1.599   5.311  20.510  0.00  0.00    +0.000 C 
ENDBRANCH  13  20
ENDBRANCH   1  16
BRANCH   8  22
ATOM     22  C   UNL     1      -4.971  13.142  21.794  0.00  0.00    +0.000 A 
ATOM     23  C   UNL     1      -4.915  13.217  23.205  0.00  0.00    +0.000 A 
ATOM     24  C   UNL     1      -5.985  12.799  23.993  0.00  0.00    +0.000 A 
ATOM     25  C   UNL     1      -7.125  12.304  23.380  0.00  0.00    +0.000 A 
ATOM     26  C   UNL     1      -7.193  12.223  21.986  0.00  0.00    +0.000 A 
ATOM     27  C   UNL     1      -6.125  12.624  21.166  0.00  0.00    +0.000 A 
BRANCH  27  28
ATOM     28  N   UNL     1      -6.218  12.495  19.757  0.00  0.00    +0.000 N 
ATOM     29  C   UNL     1      -6.304  13.525  18.817  0.00  0.00    +0.000 C 
ATOM     30  O   UNL     1      -6.402  14.721  19.097  0.00  0.00    +0.000 OA
ATOM     31  H   UNL     1      -6.164  11.550  19.370  0.00  0.00    +0.000 HD
BRANCH  29  32
ATOM     32  C   UNL     1      -6.323  13.027  17.359  0.00  0.00    +0.000 C 
ATOM     33  F   UNL     1      -7.214  12.012  17.171  0.00  0.00    +0.000 F 
ATOM     34  F   UNL     1      -6.679  14.007  16.483  0.00  0.00    +0.000 F 
ATOM     35  F   UNL     1      -5.112  12.558  16.954  0.00  0.00    +0.000 F 
ENDBRANCH  29  32
ENDBRANCH  27  28
ENDBRANCH   8  22
TORSDOF 5
ENDMDL
MODEL 7
REMARK VINA RESULT:      -8.1      5.319     10.046
REMARK  Name = 
REMARK  7 active torsions:
REMARK  status: ('A' for Active; 'I' for Inactive)
REMARK    1  A    between atoms: C_1  and  N_2
REMARK    2  A    between atoms: N_2  and  C_3
REMARK    3  A    between atoms: N_2  and  C_4
REMARK    4  A    between atoms: C_7  and  C_8
REMARK    5  A    between atoms: C_15  and  C_16
REMARK    6  A    between atoms: C_21  and  N_22
REMARK    7  A    between atoms: C_23  and  C_25
REMARK                            x       y       z     vdW  Elec       q    Type
REMARK                         _______ _______ _______ _____ _____    ______ ____
ROOT
ATOM      1  C   UNL     1       2.019   9.947  18.455  0.00  0.00    +0.000 C 
ATOM      2  C   UNL     1       1.047  10.841  18.703  0.00  0.00    +0.000 A 
ATOM      3  S   UNL     1       1.235  12.547  18.414  0.00  0.00    +0.000 S 
ATOM      4  C   UNL     1      -0.119  12.937  19.443  0.00  0.00    +0.000 A 
ATOM      5  N   UNL     1      -0.457  14.140  19.751  0.00  0.00    +0.000 NA
ATOM      6  C   UNL     1      -1.569  14.225  20.563  0.00  0.00    +0.000 A 
ATOM      7  O   UNL     1      -2.065  15.303  20.875  0.00  0.00    +0.000 OA
ATOM      8  C   UNL     1      -2.280  12.964  21.059  0.00  0.00    +0.000 A 
ATOM      9  N   UNL     1      -1.837  11.799  20.680  0.00  0.00    +0.000 NA
ATOM     10  N   UNL     1      -0.744  11.796  19.862  0.00  0.00    +0.000 N 
ATOM     11  C   UNL     1      -0.274  10.595  19.360  0.00  0.00    +0.000 A 
ATOM     12  O   UNL     1      -0.855   9.521  19.396  0.00  0.00    +0.000 OA
ENDROOT
BRANCH   1  16
ATOM     13  C   UNL     1       2.072   5.746  19.546  0.00  0.00    +0.000 A 
ATOM     14  C   UNL     1       2.411   6.192  18.259  0.00  0.00    +0.000 A 
ATOM     15  C   UNL     1       2.384   7.554  17.907  0.00  0.00    +0.000 A 
ATOM     16  C   UNL     1       2.043   8.527  18.848  0.00  0.00    +0.000 A 
ATOM     17  C   UNL     1       1.831   8.105  20.161  0.00  0.00    +0.000 A 
ATOM     18  C   UNL     1       1.818   6.745  20.494  0.00  0.00    +0.000 A 
BRANCH  13  20
ATOM     19  C   UNL     1       1.115   3.510  19.158  0.00  0.00    +0.000 C 
ATOM     20  N   UNL     1       2.011   4.390  19.899  0.00  0.00    +0.000 N 
ATOM     21  C   UNL     1       2.136   4.102  21.332  0.00  0.00    +0.000 C 
ENDBRANCH  13  20
ENDBRANCH   1  16
BRANCH   8  22
ATOM     22  C   UNL     1      -3.460  13.001  21.970  0.00  0.00    +0.000 A 
ATOM     23  C   UNL     1      -3.152  12.837  23.340  0.00  0.00    +0.000 A 
ATOM     24  C   UNL     1      -4.156  12.681  24.292  0.00  0.00    +0.000 A 
ATOM     25  C   UNL     1      -5.481  12.692  23.887  0.00  0.00    +0.000 A 
ATOM     26  C   UNL     1      -5.800  12.851  22.536  0.00  0.00    +0.000 A 
ATOM     27  C   UNL     1      -4.809  12.996  21.551  0.00  0.00    +0.000 A 
BRANCH  27  28
ATOM     28  N   UNL     1      -5.171  13.122  20.186  0.00  0.00    +0.000 N 
ATOM     29  C   UNL     1      -5.938  12.233  19.428  0.00  0.00    +0.000 C 
ATOM     30  O   UNL     1      -6.345  11.143  19.831  0.00  0.00    +0.000 OA
ATOM     31  H   UNL     1      -4.890  13.979  19.705  0.00  0.00    +0.000 HD
BRANCH  29  32
ATOM     32  C   UNL     1      -6.197  12.717  17.988  0.00  0.00    +0.000 C 
ATOM     33  F   UNL     1      -7.301  12.135  17.438  0.00  0.00    +0.000 F 
ATOM     34  F   UNL     1      -6.409  14.061  17.926  0.00  0.00    +0.000 F 
ATOM     35  F   UNL     1      -5.159  12.444  17.153  0.00  0.00    +0.000 F 
ENDBRANCH  29  32
ENDBRANCH  27  28
ENDBRANCH   8  22
TORSDOF 5
ENDMDL
MODEL 8
REMARK VINA RESULT:      -8.1      5.610     10.201
REMARK  Name = 
REMARK  7 active torsions:
REMARK  status: ('A' for Active; 'I' for Inactive)
REMARK    1  A    between atoms: C_1  and  N_2
REMARK    2  A    between atoms: N_2  and  C_3
REMARK    3  A    between atoms: N_2  and  C_4
REMARK    4  A    between atoms: C_7  and  C_8
REMARK    5  A    between atoms: C_15  and  C_16
REMARK    6  A    between atoms: C_21  and  N_22
REMARK    7  A    between atoms: C_23  and  C_25
REMARK                            x       y       z     vdW  Elec       q    Type
REMARK                         _______ _______ _______ _____ _____    ______ ____
ROOT
ATOM      1  C   UNL     1       1.762  10.647  18.398  0.00  0.00    +0.000 C 
ATOM      2  C   UNL     1       0.738  11.451  18.729  0.00  0.00    +0.000 A 
ATOM      3  S   UNL     1       0.781  13.177  18.507  0.00  0.00    +0.000 S 
ATOM      4  C   UNL     1      -0.547  13.419  19.613  0.00  0.00    +0.000 A 
ATOM      5  N   UNL     1      -0.960  14.579  19.988  0.00  0.00    +0.000 NA
ATOM      6  C   UNL     1      -2.034  14.544  20.853  0.00  0.00    +0.000 A 
ATOM      7  O   UNL     1      -2.594  15.566  21.234  0.00  0.00    +0.000 OA
ATOM      8  C   UNL     1      -2.622  13.212  21.325  0.00  0.00    +0.000 A 
ATOM      9  N   UNL     1      -2.111  12.101  20.876  0.00  0.00    +0.000 NA
ATOM     10  N   UNL     1      -1.062  12.216  20.009  0.00  0.00    +0.000 N 
ATOM     11  C   UNL     1      -0.527  11.078  19.434  0.00  0.00    +0.000 A 
ATOM     12  O   UNL     1      -1.022   9.960  19.449  0.00  0.00    +0.000 OA
ENDROOT
BRANCH   1  16
ATOM     13  C   UNL     1       2.190   6.423  19.299  0.00  0.00    +0.000 A 
ATOM     14  C   UNL     1       2.474   6.953  18.031  0.00  0.00    +0.000 A 
ATOM     15  C   UNL     1       2.325   8.321  17.741  0.00  0.00    +0.000 A 
ATOM     16  C   UNL     1       1.913   9.218  18.726  0.00  0.00    +0.000 A 
ATOM     17  C   UNL     1       1.753   8.723  20.021  0.00  0.00    +0.000 A 
ATOM     18  C   UNL     1       1.861   7.353  20.293  0.00  0.00    +0.000 A 
BRANCH  13  20
ATOM     19  C   UNL     1       1.444   4.531  20.691  0.00  0.00    +0.000 C 
ATOM     20  N   UNL     1       2.250   5.052  19.592  0.00  0.00    +0.000 N 
ATOM     21  C   UNL     1       3.565   4.425  19.421  0.00  0.00    +0.000 C 
ENDBRANCH  13  20
ENDBRANCH   1  16
BRANCH   8  22
ATOM     22  C   UNL     1      -3.756  13.121  22.290  0.00  0.00    +0.000 A 
ATOM     23  C   UNL     1      -3.380  12.776  23.608  0.00  0.00    +0.000 A 
ATOM     24  C   UNL     1      -4.336  12.489  24.579  0.00  0.00    +0.000 A 
ATOM     25  C   UNL     1      -5.679  12.546  24.245  0.00  0.00    +0.000 A 
ATOM     26  C   UNL     1      -6.065  12.882  22.945  0.00  0.00    +0.000 A 
ATOM     27  C   UNL     1      -5.124  13.164  21.940  0.00  0.00    +0.000 A 
BRANCH  27  28
ATOM     28  N   UNL     1      -5.552  13.469  20.624  0.00  0.00    +0.000 N 
ATOM     29  C   UNL     1      -6.083  12.585  19.681  0.00  0.00    +0.000 C 
ATOM     30  O   UNL     1      -6.172  11.366  19.837  0.00  0.00    +0.000 OA
ATOM     31  H   UNL     1      -5.525  14.450  20.339  0.00  0.00    +0.000 HD
BRANCH  29  32
ATOM     32  C   UNL     1      -6.509  13.270  18.367  0.00  0.00    +0.000 C 
ATOM     33  F   UNL     1      -6.431  14.629  18.445  0.00  0.00    +0.000 F 
ATOM     34  F   UNL     1      -5.721  12.907  17.317  0.00  0.00    +0.000 F 
ATOM     35  F   UNL     1      -7.790  12.975  18.019  0.00  0.00    +0.000 F 
ENDBRANCH  29  32
ENDBRANCH  27  28
ENDBRANCH   8  22
TORSDOF 5
ENDMDL
MODEL 9
REMARK VINA RESULT:      -8.0      4.778      9.823
REMARK  Name = 
REMARK  7 active torsions:
REMARK  status: ('A' for Active; 'I' for Inactive)
REMARK    1  A    between atoms: C_1  and  N_2
REMARK    2  A    between atoms: N_2  and  C_3
REMARK    3  A    between atoms: N_2  and  C_4
REMARK    4  A    between atoms: C_7  and  C_8
REMARK    5  A    between atoms: C_15  and  C_16
REMARK    6  A    between atoms: C_21  and  N_22
REMARK    7  A    between atoms: C_23  and  C_25
REMARK                            x       y       z     vdW  Elec       q    Type
REMARK                         _______ _______ _______ _____ _____    ______ ____
ROOT
ATOM      1  C   UNL     1       2.445   8.892  18.200  0.00  0.00    +0.000 C 
ATOM      2  C   UNL     1       1.650   9.960  18.378  0.00  0.00    +0.000 A 
ATOM      3  S   UNL     1       2.130  11.578  17.949  0.00  0.00    +0.000 S 
ATOM      4  C   UNL     1       0.886  12.283  18.950  0.00  0.00    +0.000 A 
ATOM      5  N   UNL     1       0.770  13.547  19.160  0.00  0.00    +0.000 NA
ATOM      6  C   UNL     1      -0.293  13.892  19.967  0.00  0.00    +0.000 A 
ATOM      7  O   UNL     1      -0.586  15.061  20.192  0.00  0.00    +0.000 OA
ATOM      8  C   UNL     1      -1.205  12.820  20.569  0.00  0.00    +0.000 A 
ATOM      9  N   UNL     1      -0.982  11.568  20.285  0.00  0.00    +0.000 NA
ATOM     10  N   UNL     1       0.078  11.306  19.464  0.00  0.00    +0.000 N 
ATOM     11  C   UNL     1       0.320  10.006  19.060  0.00  0.00    +0.000 A 
ATOM     12  O   UNL     1      -0.440   9.057  19.186  0.00  0.00    +0.000 OA
ENDROOT
BRANCH   1  16
ATOM     13  C   UNL     1       1.773   4.850  19.634  0.00  0.00    +0.000 A 
ATOM     14  C   UNL     1       2.047   5.134  18.286  0.00  0.00    +0.000 A 
ATOM     15  C   UNL     1       2.255   6.446  17.825  0.00  0.00    +0.000 A 
ATOM     16  C   UNL     1       2.227   7.526  18.708  0.00  0.00    +0.000 A 
ATOM     17  C   UNL     1       2.085   7.242  20.067  0.00  0.00    +0.000 A 
ATOM     18  C   UNL     1       1.835   5.938  20.514  0.00  0.00    +0.000 A 
BRANCH  13  20
ATOM     19  C   UNL     1       2.056   3.130  21.374  0.00  0.00    +0.000 C 
ATOM     20  N   UNL     1       1.481   3.562  20.105  0.00  0.00    +0.000 N 
ATOM     21  C   UNL     1       1.366   2.521  19.077  0.00  0.00    +0.000 C 
ENDBRANCH  13  20
ENDBRANCH   1  16
BRANCH   8  22
ATOM     22  C   UNL     1      -2.343  13.138  21.479  0.00  0.00    +0.000 A 
ATOM     23  C   UNL     1      -1.976  13.346  22.828  0.00  0.00    +0.000 A 
ATOM     24  C   UNL     1      -2.939  13.485  23.825  0.00  0.00    +0.000 A 
ATOM     25  C   UNL     1      -4.280  13.422  23.484  0.00  0.00    +0.000 A 
ATOM     26  C   UNL     1      -4.657  13.214  22.155  0.00  0.00    +0.000 A 
ATOM     27  C   UNL     1      -3.709  13.056  21.130  0.00  0.00    +0.000 A 
BRANCH  27  28
ATOM     28  N   UNL     1      -4.129  12.814  19.798  0.00  0.00    +0.000 N 
ATOM     29  C   UNL     1      -5.267  12.116  19.383  0.00  0.00    +0.000 C 
ATOM     30  O   UNL     1      -6.037  11.523  20.139  0.00  0.00    +0.000 OA
ATOM     31  H   UNL     1      -3.576  13.236  19.049  0.00  0.00    +0.000 HD
BRANCH  29  32
ATOM     32  C   UNL     1      -5.456  12.102  17.853  0.00  0.00    +0.000 C 
ATOM     33  F   UNL     1      -6.324  11.131  17.450  0.00  0.00    +0.000 F 
ATOM     34  F   UNL     1      -5.961  13.277  17.385  0.00  0.00    +0.000 F 
ATOM     35  F   UNL     1      -4.291  11.881  17.187  0.00  0.00    +0.000 F 
ENDBRANCH  29  32
ENDBRANCH  27  28
ENDBRANCH   8  22
TORSDOF 5
ENDMDL
