MODEL 1
REMARK VINA RESULT:      -8.3      0.000      0.000
REMARK  Name = 
REMARK  6 active torsions:
REMARK  status: ('A' for Active; 'I' for Inactive)
REMARK    1  A    between atoms: C_5  and  C_6
REMARK    2  A    between atoms: C_6  and  N_7
REMARK    3  A    between atoms: N_7  and  C_8
REMARK    4  A    between atoms: N_16  and  C_17
REMARK    5  A    between atoms: C_17  and  C_18
REMARK    6  A    between atoms: C_18  and  C_20
REMARK                            x       y       z     vdW  Elec       q    Type
REMARK                         _______ _______ _______ _____ _____    ______ ____
ROOT
ATOM      1  C   UNL     1       7.661   7.165  17.917  0.00  0.00    +0.000 A 
ATOM      2  N   UNL     1       8.155   6.703  19.093  0.00  0.00    +0.000 NA
ATOM      3  C   UNL     1       7.674   5.559  19.609  0.00  0.00    +0.000 A 
ATOM      4  N   UNL     1       6.668   4.802  19.137  0.00  0.00    +0.000 NA
ATOM      5  C   UNL     1       6.161   5.319  18.006  0.00  0.00    +0.000 A 
ATOM      6  C   UNL     1       6.589   6.460  17.353  0.00  0.00    +0.000 A 
ATOM      7  C   UNL     1       5.720   6.571  16.249  0.00  0.00    +0.000 A 
ATOM      8  N   UNL     1       4.798   5.606  16.203  0.00  0.00    +0.000 NA
ATOM      9  N   UNL     1       5.107   4.844  17.275  0.00  0.00    +0.000 N 
ENDROOT
BRANCH   1  10
ATOM     10  N   UNL     1       8.271   8.294  17.397  0.00  0.00    +0.000 N 
ATOM     11  H   UNL     1       9.276   8.259  17.534  0.00  0.00    +0.000 HD
BRANCH  10  12
ATOM     12  C   UNL     1       7.644   9.581  17.583  0.00  0.00    +0.000 C 
BRANCH  12  17
ATOM     13 CL   UNL     1      11.674  13.386  19.933  0.00  0.00    +0.000 Cl
ATOM     14  C   UNL     1      10.502  12.307  19.285  0.00  0.00    +0.000 A 
ATOM     15  C   UNL     1      10.342  11.041  19.842  0.00  0.00    +0.000 A 
ATOM     16  C   UNL     1       9.395  10.168  19.309  0.00  0.00    +0.000 A 
ATOM     17  C   UNL     1       8.601  10.557  18.217  0.00  0.00    +0.000 A 
ATOM     18  C   UNL     1       8.779  11.831  17.664  0.00  0.00    +0.000 A 
ATOM     19  C   UNL     1       9.725  12.705  18.198  0.00  0.00    +0.000 A 
ENDBRANCH  12  17
ENDBRANCH  10  12
ENDBRANCH   1  10
BRANCH   9  20
ATOM     20  C   UNL     1       4.252   3.733  17.621  0.00  0.00    +0.000 C 
BRANCH  20  21
ATOM     21  C   UNL     1       2.764   4.076  17.583  0.00  0.00    +0.000 C 
ATOM     22 CL   UNL     1       1.741   2.647  17.952  0.00  0.00    +0.000 Cl
BRANCH  21  23
ATOM     23  C   UNL     1       2.456   5.182  18.574  0.00  0.00    +0.000 A 
ATOM     24  C   UNL     1       2.057   4.868  19.881  0.00  0.00    +0.000 A 
ATOM     25  C   UNL     1       1.709   5.879  20.779  0.00  0.00    +0.000 A 
ATOM     26  C   UNL     1       1.757   7.211  20.374  0.00  0.00    +0.000 A 
ATOM     27 BR   UNL     1       1.259   8.581  21.576  0.00  0.00    +0.000 Br
ATOM     28  C   UNL     1       2.165   7.545  19.086  0.00  0.00    +0.000 A 
ATOM     29  C   UNL     1       2.520   6.535  18.192  0.00  0.00    +0.000 A 
ENDBRANCH  21  23
ENDBRANCH  20  21
ENDBRANCH   9  20
TORSDOF 6
ENDMDL
MODEL 2
REMARK VINA RESULT:      -8.3      0.175      1.304
REMARK  Name = 
REMARK  6 active torsions:
REMARK  status: ('A' for Active; 'I' for Inactive)
REMARK    1  A    between atoms: C_5  and  C_6
REMARK    2  A    between atoms: C_6  and  N_7
REMARK    3  A    between atoms: N_7  and  C_8
REMARK    4  A    between atoms: N_16  and  C_17
REMARK    5  A    between atoms: C_17  and  C_18
REMARK    6  A    between atoms: C_18  and  C_20
REMARK                            x       y       z     vdW  Elec       q    Type
REMARK                         _______ _______ _______ _____ _____    ______ ____
ROOT
ATOM      1  C   UNL     1       7.673   7.170  17.896  0.00  0.00    +0.000 A 
ATOM      2  N   UNL     1       8.184   6.756  19.082  0.00  0.00    +0.000 NA
ATOM      3  C   UNL     1       7.745   5.610  19.629  0.00  0.00    +0.000 A 
ATOM      4  N   UNL     1       6.765   4.806  19.179  0.00  0.00    +0.000 NA
ATOM      5  C   UNL     1       6.239   5.275  18.036  0.00  0.00    +0.000 A 
ATOM      6  C   UNL     1       6.625   6.414  17.353  0.00  0.00    +0.000 A 
ATOM      7  C   UNL     1       5.750   6.465  16.249  0.00  0.00    +0.000 A 
ATOM      8  N   UNL     1       4.863   5.468  16.231  0.00  0.00    +0.000 NA
ATOM      9  N   UNL     1       5.201   4.745  17.320  0.00  0.00    +0.000 N 
ENDROOT
BRANCH   1  10
ATOM     10  N   UNL     1       8.241   8.307  17.345  0.00  0.00    +0.000 N 
ATOM     11  H   UNL     1       9.254   8.269  17.403  0.00  0.00    +0.000 HD
BRANCH  10  12
ATOM     12  C   UNL     1       7.633   9.591  17.598  0.00  0.00    +0.000 C 
BRANCH  12  17
ATOM     13 CL   UNL     1      11.417  13.517  20.149  0.00  0.00    +0.000 Cl
ATOM     14  C   UNL     1      10.358  12.388  19.399  0.00  0.00    +0.000 A 
ATOM     15  C   UNL     1       9.638  12.761  18.267  0.00  0.00    +0.000 A 
ATOM     16  C   UNL     1       8.776  11.844  17.665  0.00  0.00    +0.000 A 
ATOM     17  C   UNL     1       8.632  10.550  18.192  0.00  0.00    +0.000 A 
ATOM     18  C   UNL     1       9.359  10.193  19.335  0.00  0.00    +0.000 A 
ATOM     19  C   UNL     1      10.222  11.109  19.935  0.00  0.00    +0.000 A 
ENDBRANCH  12  17
ENDBRANCH  10  12
ENDBRANCH   1  10
BRANCH   9  20
ATOM     20  C   UNL     1       4.386   3.614  17.697  0.00  0.00    +0.000 C 
BRANCH  20  21
ATOM     21  C   UNL     1       2.887   3.868  17.548  0.00  0.00    +0.000 C 
ATOM     22 CL   UNL     1       1.925   2.389  17.880  0.00  0.00    +0.000 Cl
BRANCH  21  23
ATOM     23  C   UNL     1       2.447   4.973  18.489  0.00  0.00    +0.000 A 
ATOM     24  C   UNL     1       2.467   6.310  18.066  0.00  0.00    +0.000 A 
ATOM     25  C   UNL     1       2.126   7.338  18.948  0.00  0.00    +0.000 A 
ATOM     26  C   UNL     1       1.763   7.034  20.259  0.00  0.00    +0.000 A 
ATOM     27 BR   UNL     1       1.329   8.423  21.463  0.00  0.00    +0.000 Br
ATOM     28  C   UNL     1       1.722   5.713  20.693  0.00  0.00    +0.000 A 
ATOM     29  C   UNL     1       2.056   4.686  19.809  0.00  0.00    +0.000 A 
ENDBRANCH  21  23
ENDBRANCH  20  21
ENDBRANCH   9  20
TORSDOF 6
ENDMDL
MODEL 3
REMARK VINA RESULT:      -8.0      1.005      2.127
REMARK  Name = 
REMARK  6 active torsions:
REMARK  status: ('A' for Active; 'I' for Inactive)
REMARK    1  A    between atoms: C_5  and  C_6
REMARK    2  A    between atoms: C_6  and  N_7
REMARK    3  A    between atoms: N_7  and  C_8
REMARK    4  A    between atoms: N_16  and  C_17
REMARK    5  A    between atoms: C_17  and  C_18
REMARK    6  A    between atoms: C_18  and  C_20
REMARK                            x       y       z     vdW  Elec       q    Type
REMARK                         _______ _______ _______ _____ _____    ______ ____
ROOT
ATOM      1  C   UNL     1       7.470   6.787  17.573  0.00  0.00    +0.000 A 
ATOM      2  N   UNL     1       7.450   6.659  16.223  0.00  0.00    +0.000 NA
ATOM      3  C   UNL     1       6.642   5.747  15.656  0.00  0.00    +0.000 A 
ATOM      4  N   UNL     1       5.861   4.843  16.272  0.00  0.00    +0.000 NA
ATOM      5  C   UNL     1       5.949   4.956  17.608  0.00  0.00    +0.000 A 
ATOM      6  C   UNL     1       6.706   5.873  18.313  0.00  0.00    +0.000 A 
ATOM      7  C   UNL     1       6.467   5.551  19.664  0.00  0.00    +0.000 A 
ATOM      8  N   UNL     1       5.649   4.507  19.821  0.00  0.00    +0.000 NA
ATOM      9  N   UNL     1       5.331   4.180  18.549  0.00  0.00    +0.000 N 
ENDROOT
BRANCH   1  10
ATOM     10  N   UNL     1       8.251   7.812  18.082  0.00  0.00    +0.000 N 
ATOM     11  H   UNL     1       8.224   7.817  19.097  0.00  0.00    +0.000 HD
BRANCH  10  12
ATOM     12  C   UNL     1       8.229   9.101  17.434  0.00  0.00    +0.000 C 
BRANCH  12  17
ATOM     13 CL   UNL     1      10.161  13.399  21.181  0.00  0.00    +0.000 Cl
ATOM     14  C   UNL     1       9.638  12.171  20.096  0.00  0.00    +0.000 A 
ATOM     15  C   UNL     1       9.227  12.511  18.810  0.00  0.00    +0.000 A 
ATOM     16  C   UNL     1       8.797  11.512  17.937  0.00  0.00    +0.000 A 
ATOM     17  C   UNL     1       8.780  10.168  18.345  0.00  0.00    +0.000 A 
ATOM     18  C   UNL     1       9.191   9.843  19.643  0.00  0.00    +0.000 A 
ATOM     19  C   UNL     1       9.621  10.841  20.517  0.00  0.00    +0.000 A 
ENDBRANCH  12  17
ENDBRANCH  10  12
ENDBRANCH   1  10
BRANCH   9  20
ATOM     20  C   UNL     1       4.524   3.009  18.303  0.00  0.00    +0.000 C 
BRANCH  20  21
ATOM     21  C   UNL     1       3.086   3.335  17.901  0.00  0.00    +0.000 C 
ATOM     22 CL   UNL     1       1.985   1.943  18.177  0.00  0.00    +0.000 Cl
BRANCH  21  23
ATOM     23  C   UNL     1       2.583   4.534  18.680  0.00  0.00    +0.000 A 
ATOM     24  C   UNL     1       2.638   5.817  18.117  0.00  0.00    +0.000 A 
ATOM     25  C   UNL     1       2.238   6.933  18.854  0.00  0.00    +0.000 A 
ATOM     26  C   UNL     1       1.779   6.773  20.160  0.00  0.00    +0.000 A 
ATOM     27 BR   UNL     1       1.262   8.283  21.171  0.00  0.00    +0.000 Br
ATOM     28  C   UNL     1       1.700   5.507  20.732  0.00  0.00    +0.000 A 
ATOM     29  C   UNL     1       2.094   4.391  19.992  0.00  0.00    +0.000 A 
ENDBRANCH  21  23
ENDBRANCH  20  21
ENDBRANCH   9  20
TORSDOF 6
ENDMDL
MODEL 4
REMARK VINA RESULT:      -7.9      0.988      1.321
REMARK  Name = 
REMARK  6 active torsions:
REMARK  status: ('A' for Active; 'I' for Inactive)
REMARK    1  A    between atoms: C_5  and  C_6
REMARK    2  A    between atoms: C_6  and  N_7
REMARK    3  A    between atoms: N_7  and  C_8
REMARK    4  A    between atoms: N_16  and  C_17
REMARK    5  A    between atoms: C_17  and  C_18
REMARK    6  A    between atoms: C_18  and  C_20
REMARK                            x       y       z     vdW  Elec       q    Type
REMARK                         _______ _______ _______ _____ _____    ______ ____
ROOT
ATOM      1  C   UNL     1       7.769   7.449  18.095  0.00  0.00    +0.000 A 
ATOM      2  N   UNL     1       8.310   6.842  19.180  0.00  0.00    +0.000 NA
ATOM      3  C   UNL     1       7.931   5.592  19.498  0.00  0.00    +0.000 A 
ATOM      4  N   UNL     1       6.986   4.843  18.904  0.00  0.00    +0.000 NA
ATOM      5  C   UNL     1       6.427   5.496  17.872  0.00  0.00    +0.000 A 
ATOM      6  C   UNL     1       6.752   6.761  17.418  0.00  0.00    +0.000 A 
ATOM      7  C   UNL     1       5.866   6.980  16.345  0.00  0.00    +0.000 A 
ATOM      8  N   UNL     1       5.026   5.963  16.137  0.00  0.00    +0.000 NA
ATOM      9  N   UNL     1       5.408   5.062  17.068  0.00  0.00    +0.000 N 
ENDROOT
BRANCH   1  10
ATOM     10  N   UNL     1       8.278   8.696  17.771  0.00  0.00    +0.000 N 
ATOM     11  H   UNL     1       8.821   8.654  16.914  0.00  0.00    +0.000 HD
BRANCH  10  12
ATOM     12  C   UNL     1       8.803   9.537  18.820  0.00  0.00    +0.000 C 
BRANCH  12  17
ATOM     13 CL   UNL     1      11.149  14.705  16.816  0.00  0.00    +0.000 Cl
ATOM     14  C   UNL     1      10.474  13.219  17.359  0.00  0.00    +0.000 A 
ATOM     15  C   UNL     1       9.091  13.069  17.425  0.00  0.00    +0.000 A 
ATOM     16  C   UNL     1       8.549  11.865  17.871  0.00  0.00    +0.000 A 
ATOM     17  C   UNL     1       9.386  10.803  18.251  0.00  0.00    +0.000 A 
ATOM     18  C   UNL     1      10.775  10.972  18.185  0.00  0.00    +0.000 A 
ATOM     19  C   UNL     1      11.318  12.176  17.737  0.00  0.00    +0.000 A 
ENDBRANCH  12  17
ENDBRANCH  10  12
ENDBRANCH   1  10
BRANCH   9  20
ATOM     20  C   UNL     1       4.651   3.843  17.222  0.00  0.00    +0.000 C 
BRANCH  20  21
ATOM     21  C   UNL     1       3.139   4.060  17.212  0.00  0.00    +0.000 C 
ATOM     22 CL   UNL     1       2.245   2.538  17.541  0.00  0.00    +0.000 Cl
BRANCH  21  23
ATOM     23  C   UNL     1       2.752   5.102  18.243  0.00  0.00    +0.000 A 
ATOM     24  C   UNL     1       2.510   4.724  19.572  0.00  0.00    +0.000 A 
ATOM     25  C   UNL     1       2.089   5.667  20.512  0.00  0.00    +0.000 A 
ATOM     26  C   UNL     1       1.909   6.994  20.129  0.00  0.00    +0.000 A 
ATOM     27 BR   UNL     1       1.313   8.268  21.391  0.00  0.00    +0.000 Br
ATOM     28  C   UNL     1       2.160   7.393  18.820  0.00  0.00    +0.000 A 
ATOM     29  C   UNL     1       2.587   6.452  17.883  0.00  0.00    +0.000 A 
ENDBRANCH  21  23
ENDBRANCH  20  21
ENDBRANCH   9  20
TORSDOF 6
ENDMDL
MODEL 5
REMARK VINA RESULT:      -7.9      3.878      5.978
REMARK  Name = 
REMARK  6 active torsions:
REMARK  status: ('A' for Active; 'I' for Inactive)
REMARK    1  A    between atoms: C_5  and  C_6
REMARK    2  A    between atoms: C_6  and  N_7
REMARK    3  A    between atoms: N_7  and  C_8
REMARK    4  A    between atoms: N_16  and  C_17
REMARK    5  A    between atoms: C_17  and  C_18
REMARK    6  A    between atoms: C_18  and  C_20
REMARK                            x       y       z     vdW  Elec       q    Type
REMARK                         _______ _______ _______ _____ _____    ______ ____
ROOT
ATOM      1  C   UNL     1       2.952   4.661  18.380  0.00  0.00    +0.000 A 
ATOM      2  N   UNL     1       2.849   3.766  19.394  0.00  0.00    +0.000 NA
ATOM      3  C   UNL     1       2.347   4.159  20.577  0.00  0.00    +0.000 A 
ATOM      4  N   UNL     1       1.977   5.399  20.942  0.00  0.00    +0.000 NA
ATOM      5  C   UNL     1       2.148   6.273  19.936  0.00  0.00    +0.000 A 
ATOM      6  C   UNL     1       2.615   5.991  18.665  0.00  0.00    +0.000 A 
ATOM      7  C   UNL     1       2.626   7.243  18.018  0.00  0.00    +0.000 A 
ATOM      8  N   UNL     1       2.227   8.247  18.803  0.00  0.00    +0.000 NA
ATOM      9  N   UNL     1       1.919   7.621  19.959  0.00  0.00    +0.000 N 
ENDROOT
BRANCH   1  10
ATOM     10  N   UNL     1       3.386   4.163  17.163  0.00  0.00    +0.000 N 
ATOM     11  H   UNL     1       2.708   3.514  16.774  0.00  0.00    +0.000 HD
BRANCH  10  12
ATOM     12  C   UNL     1       4.776   3.808  17.003  0.00  0.00    +0.000 C 
BRANCH  12  17
ATOM     13 CL   UNL     1       8.562   8.262  18.438  0.00  0.00    +0.000 Cl
ATOM     14  C   UNL     1       7.459   7.000  18.049  0.00  0.00    +0.000 A 
ATOM     15  C   UNL     1       7.395   5.865  18.852  0.00  0.00    +0.000 A 
ATOM     16  C   UNL     1       6.504   4.842  18.529  0.00  0.00    +0.000 A 
ATOM     17  C   UNL     1       5.671   4.951  17.403  0.00  0.00    +0.000 A 
ATOM     18  C   UNL     1       5.752   6.098  16.603  0.00  0.00    +0.000 A 
ATOM     19  C   UNL     1       6.642   7.121  16.926  0.00  0.00    +0.000 A 
ENDBRANCH  12  17
ENDBRANCH  10  12
ENDBRANCH   1  10
BRANCH   9  20
ATOM     20  C   UNL     1       1.535   8.408  21.107  0.00  0.00    +0.000 C 
BRANCH  20  21
ATOM     21  C   UNL     1       0.073   8.853  21.076  0.00  0.00    +0.000 C 
ATOM     22 CL   UNL     1      -0.683   8.768  22.703  0.00  0.00    +0.000 Cl
BRANCH  21  23
ATOM     23  C   UNL     1      -0.032  10.271  20.549  0.00  0.00    +0.000 A 
ATOM     24  C   UNL     1      -0.515  10.510  19.254  0.00  0.00    +0.000 A 
ATOM     25  C   UNL     1      -0.553  11.806  18.739  0.00  0.00    +0.000 A 
ATOM     26  C   UNL     1      -0.108  12.874  19.516  0.00  0.00    +0.000 A 
ATOM     27 BR   UNL     1      -0.131  14.627  18.812  0.00  0.00    +0.000 Br
ATOM     28  C   UNL     1       0.360  12.661  20.809  0.00  0.00    +0.000 A 
ATOM     29  C   UNL     1       0.391  11.365  21.326  0.00  0.00    +0.000 A 
ENDBRANCH  21  23
ENDBRANCH  20  21
ENDBRANCH   9  20
TORSDOF 6
ENDMDL
MODEL 6
REMARK VINA RESULT:      -7.9      5.325      7.947
REMARK  Name = 
REMARK  6 active torsions:
REMARK  status: ('A' for Active; 'I' for Inactive)
REMARK    1  A    between atoms: C_5  and  C_6
REMARK    2  A    between atoms: C_6  and  N_7
REMARK    3  A    between atoms: N_7  and  C_8
REMARK    4  A    between atoms: N_16  and  C_17
REMARK    5  A    between atoms: C_17  and  C_18
REMARK    6  A    between atoms: C_18  and  C_20
REMARK                            x       y       z     vdW  Elec       q    Type
REMARK                         _______ _______ _______ _____ _____    ______ ____
ROOT
ATOM      1  C   UNL     1       1.993   7.517  19.959  0.00  0.00    +0.000 A 
ATOM      2  N   UNL     1       1.353   7.447  21.153  0.00  0.00    +0.000 NA
ATOM      3  C   UNL     1       0.415   8.361  21.456  0.00  0.00    +0.000 A 
ATOM      4  N   UNL     1       0.050   9.435  20.736  0.00  0.00    +0.000 NA
ATOM      5  C   UNL     1       0.744   9.509  19.588  0.00  0.00    +0.000 A 
ATOM      6  C   UNL     1       1.702   8.618  19.141  0.00  0.00    +0.000 A 
ATOM      7  C   UNL     1       2.132   9.162  17.915  0.00  0.00    +0.000 A 
ATOM      8  N   UNL     1       1.528  10.312  17.605  0.00  0.00    +0.000 NA
ATOM      9  N   UNL     1       0.669  10.486  18.634  0.00  0.00    +0.000 N 
ENDROOT
BRANCH   1  10
ATOM     10  N   UNL     1       2.876   6.488  19.674  0.00  0.00    +0.000 N 
ATOM     11  H   UNL     1       3.835   6.822  19.679  0.00  0.00    +0.000 HD
BRANCH  10  12
ATOM     12  C   UNL     1       2.536   5.534  18.646  0.00  0.00    +0.000 C 
BRANCH  12  17
ATOM     13 CL   UNL     1       6.919   4.847  14.577  0.00  0.00    +0.000 Cl
ATOM     14  C   UNL     1       5.687   5.036  15.763  0.00  0.00    +0.000 A 
ATOM     15  C   UNL     1       5.023   3.916  16.256  0.00  0.00    +0.000 A 
ATOM     16  C   UNL     1       4.021   4.075  17.212  0.00  0.00    +0.000 A 
ATOM     17  C   UNL     1       3.680   5.354  17.682  0.00  0.00    +0.000 A 
ATOM     18  C   UNL     1       4.355   6.471  17.172  0.00  0.00    +0.000 A 
ATOM     19  C   UNL     1       5.357   6.312  16.216  0.00  0.00    +0.000 A 
ENDBRANCH  12  17
ENDBRANCH  10  12
ENDBRANCH   1  10
BRANCH   9  20
ATOM     20  C   UNL     1      -0.108  11.700  18.705  0.00  0.00    +0.000 C 
BRANCH  20  21
ATOM     21  C   UNL     1      -1.458  11.600  17.996  0.00  0.00    +0.000 C 
ATOM     22 CL   UNL     1      -1.732   9.961  17.315  0.00  0.00    +0.000 Cl
BRANCH  21  23
ATOM     23  C   UNL     1      -2.581  11.938  18.957  0.00  0.00    +0.000 A 
ATOM     24  C   UNL     1      -3.918  11.771  18.568  0.00  0.00    +0.000 A 
ATOM     25  C   UNL     1      -4.957  12.141  19.424  0.00  0.00    +0.000 A 
ATOM     26  C   UNL     1      -4.666  12.682  20.675  0.00  0.00    +0.000 A 
ATOM     27 BR   UNL     1      -6.069  13.210  21.824  0.00  0.00    +0.000 Br
ATOM     28  C   UNL     1      -3.346  12.840  21.086  0.00  0.00    +0.000 A 
ATOM     29  C   UNL     1      -2.308  12.463  20.233  0.00  0.00    +0.000 A 
ENDBRANCH  21  23
ENDBRANCH  20  21
ENDBRANCH   9  20
TORSDOF 6
ENDMDL
MODEL 7
REMARK VINA RESULT:      -7.7      5.350      8.063
REMARK  Name = 
REMARK  6 active torsions:
REMARK  status: ('A' for Active; 'I' for Inactive)
REMARK    1  A    between atoms: C_5  and  C_6
REMARK    2  A    between atoms: C_6  and  N_7
REMARK    3  A    between atoms: N_7  and  C_8
REMARK    4  A    between atoms: N_16  and  C_17
REMARK    5  A    between atoms: C_17  and  C_18
REMARK    6  A    between atoms: C_18  and  C_20
REMARK                            x       y       z     vdW  Elec       q    Type
REMARK                         _______ _______ _______ _____ _____    ______ ____
ROOT
ATOM      1  C   UNL     1       1.908   7.717  20.185  0.00  0.00    +0.000 A 
ATOM      2  N   UNL     1       1.181   7.707  21.330  0.00  0.00    +0.000 NA
ATOM      3  C   UNL     1       0.204   8.614  21.502  0.00  0.00    +0.000 A 
ATOM      4  N   UNL     1      -0.127   9.632  20.688  0.00  0.00    +0.000 NA
ATOM      5  C   UNL     1       0.652   9.651  19.594  0.00  0.00    +0.000 A 
ATOM      6  C   UNL     1       1.659   8.757  19.278  0.00  0.00    +0.000 A 
ATOM      7  C   UNL     1       2.171   9.234  18.055  0.00  0.00    +0.000 A 
ATOM      8  N   UNL     1       1.569  10.347  17.628  0.00  0.00    +0.000 NA
ATOM      9  N   UNL     1       0.631  10.564  18.576  0.00  0.00    +0.000 N 
ENDROOT
BRANCH   1  10
ATOM     10  N   UNL     1       2.830   6.695  20.034  0.00  0.00    +0.000 N 
ATOM     11  H   UNL     1       3.762   7.068  19.877  0.00  0.00    +0.000 HD
BRANCH  10  12
ATOM     12  C   UNL     1       2.470   5.530  19.263  0.00  0.00    +0.000 C 
BRANCH  12  17
ATOM     13 CL   UNL     1       6.443   4.479  14.864  0.00  0.00    +0.000 Cl
ATOM     14  C   UNL     1       5.327   4.764  16.141  0.00  0.00    +0.000 A 
ATOM     15  C   UNL     1       4.423   3.769  16.506  0.00  0.00    +0.000 A 
ATOM     16  C   UNL     1       3.516   4.007  17.538  0.00  0.00    +0.000 A 
ATOM     17  C   UNL     1       3.510   5.240  18.212  0.00  0.00    +0.000 A 
ATOM     18  C   UNL     1       4.422   6.232  17.829  0.00  0.00    +0.000 A 
ATOM     19  C   UNL     1       5.330   5.993  16.798  0.00  0.00    +0.000 A 
ENDBRANCH  12  17
ENDBRANCH  10  12
ENDBRANCH   1  10
BRANCH   9  20
ATOM     20  C   UNL     1      -0.174  11.761  18.510  0.00  0.00    +0.000 C 
BRANCH  20  21
ATOM     21  C   UNL     1      -1.497  11.563  17.773  0.00  0.00    +0.000 C 
ATOM     22 CL   UNL     1      -1.697   9.871  17.206  0.00  0.00    +0.000 Cl
BRANCH  21  23
ATOM     23  C   UNL     1      -2.659  11.929  18.676  0.00  0.00    +0.000 A 
ATOM     24  C   UNL     1      -2.423  12.458  19.953  0.00  0.00    +0.000 A 
ATOM     25  C   UNL     1      -3.486  12.735  20.814  0.00  0.00    +0.000 A 
ATOM     26  C   UNL     1      -4.794  12.485  20.403  0.00  0.00    +0.000 A 
ATOM     27 BR   UNL     1      -6.234  12.832  21.576  0.00  0.00    +0.000 Br
ATOM     28  C   UNL     1      -5.051  11.976  19.134  0.00  0.00    +0.000 A 
ATOM     29  C   UNL     1      -3.989  11.705  18.271  0.00  0.00    +0.000 A 
ENDBRANCH  21  23
ENDBRANCH  20  21
ENDBRANCH   9  20
TORSDOF 6
ENDMDL
MODEL 8
REMARK VINA RESULT:      -7.7      4.845      6.834
REMARK  Name = 
REMARK  6 active torsions:
REMARK  status: ('A' for Active; 'I' for Inactive)
REMARK    1  A    between atoms: C_5  and  C_6
REMARK    2  A    between atoms: C_6  and  N_7
REMARK    3  A    between atoms: N_7  and  C_8
REMARK    4  A    between atoms: N_16  and  C_17
REMARK    5  A    between atoms: C_17  and  C_18
REMARK    6  A    between atoms: C_18  and  C_20
REMARK                            x       y       z     vdW  Elec       q    Type
REMARK                         _______ _______ _______ _____ _____    ______ ____
ROOT
ATOM      1  C   UNL     1       3.741   4.790  19.115  0.00  0.00    +0.000 A 
ATOM      2  N   UNL     1       3.173   4.271  20.231  0.00  0.00    +0.000 NA
ATOM      3  C   UNL     1       2.193   4.949  20.853  0.00  0.00    +0.000 A 
ATOM      4  N   UNL     1       1.719   6.171  20.552  0.00  0.00    +0.000 NA
ATOM      5  C   UNL     1       2.344   6.683  19.479  0.00  0.00    +0.000 A 
ATOM      6  C   UNL     1       3.334   6.075  18.729  0.00  0.00    +0.000 A 
ATOM      7  C   UNL     1       3.661   7.034  17.749  0.00  0.00    +0.000 A 
ATOM      8  N   UNL     1       2.965   8.168  17.867  0.00  0.00    +0.000 NA
ATOM      9  N   UNL     1       2.154   7.915  18.916  0.00  0.00    +0.000 N 
ENDROOT
BRANCH   1  10
ATOM     10  N   UNL     1       4.674   3.993  18.473  0.00  0.00    +0.000 N 
ATOM     11  H   UNL     1       5.611   4.371  18.583  0.00  0.00    +0.000 HD
BRANCH  10  12
ATOM     12  C   UNL     1       4.356   3.441  17.177  0.00  0.00    +0.000 C 
BRANCH  12  17
ATOM     13 CL   UNL     1       8.175   5.509  13.009  0.00  0.00    +0.000 Cl
ATOM     14  C   UNL     1       7.099   4.890  14.200  0.00  0.00    +0.000 A 
ATOM     15  C   UNL     1       6.013   4.109  13.813  0.00  0.00    +0.000 A 
ATOM     16  C   UNL     1       5.140   3.615  14.781  0.00  0.00    +0.000 A 
ATOM     17  C   UNL     1       5.350   3.897  16.141  0.00  0.00    +0.000 A 
ATOM     18  C   UNL     1       6.443   4.689  16.513  0.00  0.00    +0.000 A 
ATOM     19  C   UNL     1       7.317   5.182  15.545  0.00  0.00    +0.000 A 
ENDBRANCH  12  17
ENDBRANCH  10  12
ENDBRANCH   1  10
BRANCH   9  20
ATOM     20  C   UNL     1       1.302   8.967  19.419  0.00  0.00    +0.000 C 
BRANCH  20  21
ATOM     21  C   UNL     1       0.969  10.031  18.373  0.00  0.00    +0.000 C 
ATOM     22 CL   UNL     1      -0.798  10.136  18.069  0.00  0.00    +0.000 Cl
BRANCH  21  23
ATOM     23  C   UNL     1       1.481  11.385  18.823  0.00  0.00    +0.000 A 
ATOM     24  C   UNL     1       0.979  11.979  19.989  0.00  0.00    +0.000 A 
ATOM     25  C   UNL     1       1.397  13.254  20.373  0.00  0.00    +0.000 A 
ATOM     26  C   UNL     1       2.323  13.944  19.592  0.00  0.00    +0.000 A 
ATOM     27 BR   UNL     1       2.871  15.681  20.093  0.00  0.00    +0.000 Br
ATOM     28  C   UNL     1       2.846  13.366  18.440  0.00  0.00    +0.000 A 
ATOM     29  C   UNL     1       2.432  12.089  18.061  0.00  0.00    +0.000 A 
ENDBRANCH  21  23
ENDBRANCH  20  21
ENDBRANCH   9  20
TORSDOF 6
ENDMDL
MODEL 9
REMARK VINA RESULT:      -7.7      5.447      8.314
REMARK  Name = 
REMARK  6 active torsions:
REMARK  status: ('A' for Active; 'I' for Inactive)
REMARK    1  A    between atoms: C_5  and  C_6
REMARK    2  A    between atoms: C_6  and  N_7
REMARK    3  A    between atoms: N_7  and  C_8
REMARK    4  A    between atoms: N_16  and  C_17
REMARK    5  A    between atoms: C_17  and  C_18
REMARK    6  A    between atoms: C_18  and  C_20
REMARK                            x       y       z     vdW  Elec       q    Type
REMARK                         _______ _______ _______ _____ _____    ______ ____
ROOT
ATOM      1  C   UNL     1       1.687   7.726  20.403  0.00  0.00    +0.000 A 
ATOM      2  N   UNL     1       0.972   7.759  21.555  0.00  0.00    +0.000 NA
ATOM      3  C   UNL     1      -0.003   8.672  21.703  0.00  0.00    +0.000 A 
ATOM      4  N   UNL     1      -0.343   9.658  20.855  0.00  0.00    +0.000 NA
ATOM      5  C   UNL     1       0.423   9.636  19.753  0.00  0.00    +0.000 A 
ATOM      6  C   UNL     1       1.427   8.731  19.460  0.00  0.00    +0.000 A 
ATOM      7  C   UNL     1       1.925   9.161  18.214  0.00  0.00    +0.000 A 
ATOM      8  N   UNL     1       1.319  10.257  17.752  0.00  0.00    +0.000 NA
ATOM      9  N   UNL     1       0.391  10.509  18.701  0.00  0.00    +0.000 N 
ENDROOT
BRANCH   1  10
ATOM     10  N   UNL     1       2.608   6.699  20.280  0.00  0.00    +0.000 N 
ATOM     11  H   UNL     1       3.522   7.061  20.027  0.00  0.00    +0.000 HD
BRANCH  10  12
ATOM     12  C   UNL     1       2.208   5.467  19.643  0.00  0.00    +0.000 C 
BRANCH  12  17
ATOM     13 CL   UNL     1       5.989   4.042  15.181  0.00  0.00    +0.000 Cl
ATOM     14  C   UNL     1       4.893   4.468  16.436  0.00  0.00    +0.000 A 
ATOM     15  C   UNL     1       5.071   5.658  17.137  0.00  0.00    +0.000 A 
ATOM     16  C   UNL     1       4.183   5.996  18.157  0.00  0.00    +0.000 A 
ATOM     17  C   UNL     1       3.111   5.147  18.481  0.00  0.00    +0.000 A 
ATOM     18  C   UNL     1       2.949   3.951  17.770  0.00  0.00    +0.000 A 
ATOM     19  C   UNL     1       3.836   3.614  16.748  0.00  0.00    +0.000 A 
ENDBRANCH  12  17
ENDBRANCH  10  12
ENDBRANCH   1  10
BRANCH   9  20
ATOM     20  C   UNL     1      -0.415  11.703  18.599  0.00  0.00    +0.000 C 
BRANCH  20  21
ATOM     21  C   UNL     1      -1.671  11.518  17.748  0.00  0.00    +0.000 C 
ATOM     22 CL   UNL     1      -1.800   9.845  17.108  0.00  0.00    +0.000 Cl
BRANCH  21  23
ATOM     23  C   UNL     1      -2.908  11.839  18.563  0.00  0.00    +0.000 A 
ATOM     24  C   UNL     1      -2.789  12.466  19.812  0.00  0.00    +0.000 A 
ATOM     25  C   UNL     1      -3.918  12.705  20.597  0.00  0.00    +0.000 A 
ATOM     26  C   UNL     1      -5.176  12.318  20.137  0.00  0.00    +0.000 A 
ATOM     27 BR   UNL     1      -6.704  12.614  21.208  0.00  0.00    +0.000 Br
ATOM     28  C   UNL     1      -5.318  11.710  18.894  0.00  0.00    +0.000 A 
ATOM     29  C   UNL     1      -4.189  11.477  18.107  0.00  0.00    +0.000 A 
ENDBRANCH  21  23
ENDBRANCH  20  21
ENDBRANCH   9  20
TORSDOF 6
ENDMDL
