MODEL 1
REMARK VINA RESULT:      -8.0      0.000      0.000
REMARK  Name = 
REMARK  7 active torsions:
REMARK  status: ('A' for Active; 'I' for Inactive)
REMARK    1  A    between atoms: C_2  and  OXT_3
REMARK    2  A    between atoms: C_2  and  CA_4
REMARK    3  A    between atoms: CA_4  and  CB_5
REMARK    4  A    between atoms: CA_4  and  N_12
REMARK    5  A    between atoms: CB_5  and  CG_6
REMARK    6  A    between atoms: C_16  and  C_17
REMARK    7  A    between atoms: C_20  and  C_21
REMARK                            x       y       z     vdW  Elec       q    Type
REMARK                         _______ _______ _______ _____ _____    ______ ____
ROOT
ATOM      1  N   UNL     1       0.663   9.445  20.118  0.00  0.00    +0.000 N 
ATOM      2  C   UNL     1       1.432   8.436  19.565  0.00  0.00    +0.000 C 
ATOM      3  O   UNL     1       1.797   8.373  18.402  0.00  0.00    +0.000 OA
ATOM      4  CA  UNL     1       1.664   7.441  20.654  0.00  0.00    +0.000 C 
ATOM      5  C   UNL     1       2.201   6.220  20.599  0.00  0.00    +0.000 C 
ATOM      6  N   UNL     1       1.142   8.003  21.778  0.00  0.00    +0.000 N 
ATOM      7  C   UNL     1       0.513   9.204  21.478  0.00  0.00    +0.000 C 
ATOM      8  S   UNL     1      -0.222  10.048  22.700  0.00  0.00    +0.000 S 
ATOM      9  H   UNL     1       1.142   7.595  22.704  0.00  0.00    +0.000 HD
ENDROOT
BRANCH   5  10
ATOM     10  C   UNL     1       2.631   5.641  19.380  0.00  0.00    +0.000 A 
ATOM     11  C   UNL     1       2.035   4.640  18.636  0.00  0.00    +0.000 A 
ATOM     12  C   UNL     1       2.781   4.322  17.464  0.00  0.00    +0.000 A 
ATOM     13  C   UNL     1       3.933   5.078  17.334  0.00  0.00    +0.000 A 
ATOM     14  S   UNL     1       4.100   6.153  18.662  0.00  0.00    +0.000 S 
BRANCH  13  15
ATOM     15  C   UNL     1       4.959   5.018  16.280  0.00  0.00    +0.000 A 
ATOM     16  C   UNL     1       4.811   4.209  15.141  0.00  0.00    +0.000 A 
ATOM     17  C   UNL     1       5.800   4.173  14.152  0.00  0.00    +0.000 A 
ATOM     18  C   UNL     1       6.950   4.941  14.295  0.00  0.00    +0.000 A 
ATOM     19 CL   UNL     1       8.166   4.901  13.078  0.00  0.00    +0.000 Cl
ATOM     20  C   UNL     1       7.124   5.744  15.418  0.00  0.00    +0.000 A 
ATOM     21  C   UNL     1       6.133   5.781  16.404  0.00  0.00    +0.000 A 
ENDBRANCH  13  15
ENDBRANCH   5  10
BRANCH   1  22
ATOM     22  CA  UNL     1       0.153  10.527  19.222  0.00  0.00    +0.000 C 
BRANCH  22  24
ATOM     23  O   UNL     1       1.562  12.482  19.731  0.00  0.00    +0.000 OA
ATOM     24  C   UNL     1       1.272  11.568  18.970  0.00  0.00    +0.000 C 
BRANCH  24  25
ATOM     25  OXT UNL     1       1.973  11.392  17.822  0.00  0.00    +0.000 OA
ATOM     26  HXT UNL     1       1.923  10.490  17.419  0.00  0.00    +0.000 HD
ENDBRANCH  24  25
ENDBRANCH  22  24
BRANCH  22  27
ATOM     27  CB  UNL     1      -0.425  10.051  17.877  0.00  0.00    +0.000 C 
BRANCH  27  28
ATOM     28  CG  UNL     1      -1.849  10.450  17.555  0.00  0.00    +0.000 A 
ATOM     29  CD1 UNL     1      -2.595  11.177  18.497  0.00  0.00    +0.000 A 
ATOM     30  CE1 UNL     1      -3.876  11.635  18.194  0.00  0.00    +0.000 A 
ATOM     31  CZ  UNL     1      -4.428  11.368  16.944  0.00  0.00    +0.000 A 
ATOM     32  CE2 UNL     1      -3.701  10.640  16.002  0.00  0.00    +0.000 A 
ATOM     33  CD2 UNL     1      -2.415  10.186  16.303  0.00  0.00    +0.000 A 
ENDBRANCH  27  28
ENDBRANCH  22  27
ENDBRANCH   1  22
TORSDOF 7
ENDMDL
MODEL 2
REMARK VINA RESULT:      -7.8      0.642      1.277
REMARK  Name = 
REMARK  7 active torsions:
REMARK  status: ('A' for Active; 'I' for Inactive)
REMARK    1  A    between atoms: C_2  and  OXT_3
REMARK    2  A    between atoms: C_2  and  CA_4
REMARK    3  A    between atoms: CA_4  and  CB_5
REMARK    4  A    between atoms: CA_4  and  N_12
REMARK    5  A    between atoms: CB_5  and  CG_6
REMARK    6  A    between atoms: C_16  and  C_17
REMARK    7  A    between atoms: C_20  and  C_21
REMARK                            x       y       z     vdW  Elec       q    Type
REMARK                         _______ _______ _______ _____ _____    ______ ____
ROOT
ATOM      1  N   UNL     1       0.383   9.841  20.186  0.00  0.00    +0.000 N 
ATOM      2  C   UNL     1       1.136   8.772  19.732  0.00  0.00    +0.000 C 
ATOM      3  O   UNL     1       1.538   8.617  18.590  0.00  0.00    +0.000 OA
ATOM      4  CA  UNL     1       1.294   7.849  20.894  0.00  0.00    +0.000 C 
ATOM      5  C   UNL     1       1.791   6.610  20.943  0.00  0.00    +0.000 C 
ATOM      6  N   UNL     1       0.753   8.504  21.957  0.00  0.00    +0.000 N 
ATOM      7  C   UNL     1       0.177   9.700  21.552  0.00  0.00    +0.000 C 
ATOM      8  S   UNL     1      -0.571  10.651  22.685  0.00  0.00    +0.000 S 
ATOM      9  H   UNL     1       0.707   8.162  22.908  0.00  0.00    +0.000 HD
ENDROOT
BRANCH   5  10
ATOM     10  C   UNL     1       2.243   5.934  19.783  0.00  0.00    +0.000 A 
ATOM     11  C   UNL     1       1.717   4.812  19.172  0.00  0.00    +0.000 A 
ATOM     12  C   UNL     1       2.463   4.425  18.021  0.00  0.00    +0.000 A 
ATOM     13  C   UNL     1       3.546   5.251  17.776  0.00  0.00    +0.000 A 
ATOM     14  S   UNL     1       3.651   6.477  18.972  0.00  0.00    +0.000 S 
BRANCH  13  15
ATOM     15  C   UNL     1       4.553   5.154  16.706  0.00  0.00    +0.000 A 
ATOM     16  C   UNL     1       5.079   6.291  16.071  0.00  0.00    +0.000 A 
ATOM     17  C   UNL     1       6.038   6.171  15.059  0.00  0.00    +0.000 A 
ATOM     18  C   UNL     1       6.477   4.911  14.668  0.00  0.00    +0.000 A 
ATOM     19 CL   UNL     1       7.659   4.761  13.427  0.00  0.00    +0.000 Cl
ATOM     20  C   UNL     1       5.965   3.769  15.276  0.00  0.00    +0.000 A 
ATOM     21  C   UNL     1       5.008   3.891  16.289  0.00  0.00    +0.000 A 
ENDBRANCH  13  15
ENDBRANCH   5  10
BRANCH   1  22
ATOM     22  CA  UNL     1      -0.057  10.874  19.198  0.00  0.00    +0.000 C 
BRANCH  22  24
ATOM     23  O   UNL     1       1.451  12.777  19.609  0.00  0.00    +0.000 OA
ATOM     24  C   UNL     1       1.114  11.842  18.896  0.00  0.00    +0.000 C 
BRANCH  24  25
ATOM     25  OXT UNL     1       1.806  11.569  17.761  0.00  0.00    +0.000 OA
ATOM     26  HXT UNL     1       1.265  11.462  16.940  0.00  0.00    +0.000 HD
ENDBRANCH  24  25
ENDBRANCH  22  24
BRANCH  22  27
ATOM     27  CB  UNL     1      -0.630  10.324  17.880  0.00  0.00    +0.000 C 
BRANCH  27  28
ATOM     28  CG  UNL     1      -2.023  10.771  17.490  0.00  0.00    +0.000 A 
ATOM     29  CD1 UNL     1      -2.510  10.480  16.206  0.00  0.00    +0.000 A 
ATOM     30  CE1 UNL     1      -3.820  10.800  15.850  0.00  0.00    +0.000 A 
ATOM     31  CZ  UNL     1      -4.656  11.418  16.776  0.00  0.00    +0.000 A 
ATOM     32  CE2 UNL     1      -4.182  11.719  18.052  0.00  0.00    +0.000 A 
ATOM     33  CD2 UNL     1      -2.872  11.393  18.412  0.00  0.00    +0.000 A 
ENDBRANCH  27  28
ENDBRANCH  22  27
ENDBRANCH   1  22
TORSDOF 7
ENDMDL
MODEL 3
REMARK VINA RESULT:      -7.4      4.411      6.726
REMARK  Name = 
REMARK  7 active torsions:
REMARK  status: ('A' for Active; 'I' for Inactive)
REMARK    1  A    between atoms: C_2  and  OXT_3
REMARK    2  A    between atoms: C_2  and  CA_4
REMARK    3  A    between atoms: CA_4  and  CB_5
REMARK    4  A    between atoms: CA_4  and  N_12
REMARK    5  A    between atoms: CB_5  and  CG_6
REMARK    6  A    between atoms: C_16  and  C_17
REMARK    7  A    between atoms: C_20  and  C_21
REMARK                            x       y       z     vdW  Elec       q    Type
REMARK                         _______ _______ _______ _____ _____    ______ ____
ROOT
ATOM      1  N   UNL     1       3.228   4.390  18.918  0.00  0.00    +0.000 N 
ATOM      2  C   UNL     1       4.482   4.966  19.016  0.00  0.00    +0.000 C 
ATOM      3  O   UNL     1       4.800   5.857  19.788  0.00  0.00    +0.000 OA
ATOM      4  CA  UNL     1       5.321   4.323  17.962  0.00  0.00    +0.000 C 
ATOM      5  C   UNL     1       6.547   4.635  17.534  0.00  0.00    +0.000 C 
ATOM      6  N   UNL     1       4.548   3.336  17.433  0.00  0.00    +0.000 N 
ATOM      7  C   UNL     1       3.272   3.368  17.978  0.00  0.00    +0.000 C 
ATOM      8  S   UNL     1       2.150   2.268  17.453  0.00  0.00    +0.000 S 
ATOM      9  H   UNL     1       4.820   2.695  16.698  0.00  0.00    +0.000 HD
ENDROOT
BRANCH   5  10
ATOM     10  C   UNL     1       7.265   5.742  18.048  0.00  0.00    +0.000 A 
ATOM     11  C   UNL     1       8.108   5.799  19.142  0.00  0.00    +0.000 A 
ATOM     12  C   UNL     1       8.639   7.105  19.346  0.00  0.00    +0.000 A 
ATOM     13  C   UNL     1       8.192   8.023  18.412  0.00  0.00    +0.000 A 
ATOM     14  S   UNL     1       7.106   7.280  17.310  0.00  0.00    +0.000 S 
BRANCH  13  15
ATOM     15  C   UNL     1       8.498   9.460  18.315  0.00  0.00    +0.000 A 
ATOM     16  C   UNL     1       7.807  10.313  17.439  0.00  0.00    +0.000 A 
ATOM     17  C   UNL     1       8.115  11.676  17.369  0.00  0.00    +0.000 A 
ATOM     18  C   UNL     1       9.123  12.199  18.171  0.00  0.00    +0.000 A 
ATOM     19 CL   UNL     1       9.502  13.875  18.090  0.00  0.00    +0.000 Cl
ATOM     20  C   UNL     1       9.829  11.373  19.042  0.00  0.00    +0.000 A 
ATOM     21  C   UNL     1       9.516  10.012  19.111  0.00  0.00    +0.000 A 
ENDBRANCH  13  15
ENDBRANCH   5  10
BRANCH   1  22
ATOM     22  CA  UNL     1       2.124   4.935  19.766  0.00  0.00    +0.000 C 
BRANCH  22  24
ATOM     23  O   UNL     1       2.273   3.585  21.820  0.00  0.00    +0.000 OA
ATOM     24  C   UNL     1       1.673   3.865  20.791  0.00  0.00    +0.000 C 
BRANCH  24  25
ATOM     25  OXT UNL     1       0.503   3.244  20.496  0.00  0.00    +0.000 OA
ATOM     26  HXT UNL     1      -0.247   3.835  20.238  0.00  0.00    +0.000 HD
ENDBRANCH  24  25
ENDBRANCH  22  24
BRANCH  22  27
ATOM     27  CB  UNL     1       2.443   6.253  20.497  0.00  0.00    +0.000 C 
BRANCH  27  28
ATOM     28  CG  UNL     1       1.960   7.535  19.855  0.00  0.00    +0.000 A 
ATOM     29  CD1 UNL     1       2.196   7.758  18.488  0.00  0.00    +0.000 A 
ATOM     30  CE1 UNL     1       1.686   8.887  17.850  0.00  0.00    +0.000 A 
ATOM     31  CZ  UNL     1       0.934   9.810  18.574  0.00  0.00    +0.000 A 
ATOM     32  CE2 UNL     1       0.699   9.604  19.934  0.00  0.00    +0.000 A 
ATOM     33  CD2 UNL     1       1.205   8.469  20.572  0.00  0.00    +0.000 A 
ENDBRANCH  27  28
ENDBRANCH  22  27
ENDBRANCH   1  22
TORSDOF 7
ENDMDL
MODEL 4
REMARK VINA RESULT:      -7.4      4.406      6.709
REMARK  Name = 
REMARK  7 active torsions:
REMARK  status: ('A' for Active; 'I' for Inactive)
REMARK    1  A    between atoms: C_2  and  OXT_3
REMARK    2  A    between atoms: C_2  and  CA_4
REMARK    3  A    between atoms: CA_4  and  CB_5
REMARK    4  A    between atoms: CA_4  and  N_12
REMARK    5  A    between atoms: CB_5  and  CG_6
REMARK    6  A    between atoms: C_16  and  C_17
REMARK    7  A    between atoms: C_20  and  C_21
REMARK                            x       y       z     vdW  Elec       q    Type
REMARK                         _______ _______ _______ _____ _____    ______ ____
ROOT
ATOM      1  N   UNL     1       3.248   4.411  18.877  0.00  0.00    +0.000 N 
ATOM      2  C   UNL     1       4.500   4.990  18.986  0.00  0.00    +0.000 C 
ATOM      3  O   UNL     1       4.809   5.884  19.758  0.00  0.00    +0.000 OA
ATOM      4  CA  UNL     1       5.352   4.343  17.944  0.00  0.00    +0.000 C 
ATOM      5  C   UNL     1       6.582   4.654  17.528  0.00  0.00    +0.000 C 
ATOM      6  N   UNL     1       4.586   3.352  17.411  0.00  0.00    +0.000 N 
ATOM      7  C   UNL     1       3.304   3.386  17.942  0.00  0.00    +0.000 C 
ATOM      8  S   UNL     1       2.189   2.282  17.409  0.00  0.00    +0.000 S 
ATOM      9  H   UNL     1       4.866   2.709  16.682  0.00  0.00    +0.000 HD
ENDROOT
BRANCH   5  10
ATOM     10  C   UNL     1       7.293   5.765  18.045  0.00  0.00    +0.000 A 
ATOM     11  C   UNL     1       8.111   5.831  19.157  0.00  0.00    +0.000 A 
ATOM     12  C   UNL     1       8.644   7.138  19.358  0.00  0.00    +0.000 A 
ATOM     13  C   UNL     1       8.221   8.047  18.403  0.00  0.00    +0.000 A 
ATOM     14  S   UNL     1       7.157   7.294  17.285  0.00  0.00    +0.000 S 
BRANCH  13  15
ATOM     15  C   UNL     1       8.535   9.481  18.296  0.00  0.00    +0.000 A 
ATOM     16  C   UNL     1       9.619  10.060  18.977  0.00  0.00    +0.000 A 
ATOM     17  C   UNL     1       9.898  11.426  18.855  0.00  0.00    +0.000 A 
ATOM     18  C   UNL     1       9.092  12.228  18.055  0.00  0.00    +0.000 A 
ATOM     19 CL   UNL     1       9.435  13.906  17.900  0.00  0.00    +0.000 Cl
ATOM     20  C   UNL     1       8.007  11.679  17.377  0.00  0.00    +0.000 A 
ATOM     21  C   UNL     1       7.732  10.314  17.498  0.00  0.00    +0.000 A 
ENDBRANCH  13  15
ENDBRANCH   5  10
BRANCH   1  22
ATOM     22  CA  UNL     1       2.134   4.959  19.711  0.00  0.00    +0.000 C 
BRANCH  22  24
ATOM     23  O   UNL     1       2.293   3.690  21.815  0.00  0.00    +0.000 OA
ATOM     24  C   UNL     1       1.704   3.910  20.765  0.00  0.00    +0.000 C 
BRANCH  24  25
ATOM     25  OXT UNL     1       0.566   3.232  20.470  0.00  0.00    +0.000 OA
ATOM     26  HXT UNL     1       0.112   3.493  19.631  0.00  0.00    +0.000 HD
ENDBRANCH  24  25
ENDBRANCH  22  24
BRANCH  22  27
ATOM     27  CB  UNL     1       2.429   6.302  20.404  0.00  0.00    +0.000 C 
BRANCH  27  28
ATOM     28  CG  UNL     1       1.942   7.558  19.715  0.00  0.00    +0.000 A 
ATOM     29  CD1 UNL     1       1.209   8.509  20.443  0.00  0.00    +0.000 A 
ATOM     30  CE1 UNL     1       0.825   9.715  19.859  0.00  0.00    +0.000 A 
ATOM     31  CZ  UNL     1       1.169   9.983  18.536  0.00  0.00    +0.000 A 
ATOM     32  CE2 UNL     1       1.891   9.043  17.800  0.00  0.00    +0.000 A 
ATOM     33  CD2 UNL     1       2.281   7.838  18.386  0.00  0.00    +0.000 A 
ENDBRANCH  27  28
ENDBRANCH  22  27
ENDBRANCH   1  22
TORSDOF 7
ENDMDL
MODEL 5
REMARK VINA RESULT:      -7.3      4.756      7.061
REMARK  Name = 
REMARK  7 active torsions:
REMARK  status: ('A' for Active; 'I' for Inactive)
REMARK    1  A    between atoms: C_2  and  OXT_3
REMARK    2  A    between atoms: C_2  and  CA_4
REMARK    3  A    between atoms: CA_4  and  CB_5
REMARK    4  A    between atoms: CA_4  and  N_12
REMARK    5  A    between atoms: CB_5  and  CG_6
REMARK    6  A    between atoms: C_16  and  C_17
REMARK    7  A    between atoms: C_20  and  C_21
REMARK                            x       y       z     vdW  Elec       q    Type
REMARK                         _______ _______ _______ _____ _____    ______ ____
ROOT
ATOM      1  N   UNL     1       3.759   4.647  19.004  0.00  0.00    +0.000 N 
ATOM      2  C   UNL     1       4.795   5.559  18.896  0.00  0.00    +0.000 C 
ATOM      3  O   UNL     1       4.680   6.774  18.913  0.00  0.00    +0.000 OA
ATOM      4  CA  UNL     1       6.039   4.758  18.701  0.00  0.00    +0.000 C 
ATOM      5  C   UNL     1       7.274   5.156  18.386  0.00  0.00    +0.000 C 
ATOM      6  N   UNL     1       5.663   3.458  18.850  0.00  0.00    +0.000 N 
ATOM      7  C   UNL     1       4.288   3.363  19.012  0.00  0.00    +0.000 C 
ATOM      8  S   UNL     1       3.606   1.862  19.181  0.00  0.00    +0.000 S 
ATOM      9  H   UNL     1       6.271   2.651  18.791  0.00  0.00    +0.000 HD
ENDROOT
BRANCH   5  10
ATOM     10  C   UNL     1       7.586   6.515  18.137  0.00  0.00    +0.000 A 
ATOM     11  C   UNL     1       7.290   7.285  17.028  0.00  0.00    +0.000 A 
ATOM     12  C   UNL     1       7.784   8.616  17.148  0.00  0.00    +0.000 A 
ATOM     13  C   UNL     1       8.452   8.840  18.339  0.00  0.00    +0.000 A 
ATOM     14  S   UNL     1       8.487   7.409  19.287  0.00  0.00    +0.000 S 
BRANCH  13  15
ATOM     15  C   UNL     1       9.116  10.069  18.805  0.00  0.00    +0.000 A 
ATOM     16  C   UNL     1       9.667  11.003  17.913  0.00  0.00    +0.000 A 
ATOM     17  C   UNL     1      10.289  12.165  18.382  0.00  0.00    +0.000 A 
ATOM     18  C   UNL     1      10.371  12.402  19.750  0.00  0.00    +0.000 A 
ATOM     19 CL   UNL     1      11.132  13.832  20.329  0.00  0.00    +0.000 Cl
ATOM     20  C   UNL     1       9.840  11.487  20.654  0.00  0.00    +0.000 A 
ATOM     21  C   UNL     1       9.217  10.328  20.183  0.00  0.00    +0.000 A 
ENDBRANCH  13  15
ENDBRANCH   5  10
BRANCH   1  22
ATOM     22  CA  UNL     1       2.358   5.164  19.071  0.00  0.00    +0.000 C 
BRANCH  22  24
ATOM     23  O   UNL     1       1.128   3.579  17.644  0.00  0.00    +0.000 OA
ATOM     24  C   UNL     1       1.362   4.019  18.761  0.00  0.00    +0.000 C 
BRANCH  24  25
ATOM     25  OXT UNL     1       0.756   3.475  19.846  0.00  0.00    +0.000 OA
ATOM     26  HXT UNL     1       1.063   2.572  20.107  0.00  0.00    +0.000 HD
ENDBRANCH  24  25
ENDBRANCH  22  24
BRANCH  22  27
ATOM     27  CB  UNL     1       1.969   5.845  20.396  0.00  0.00    +0.000 C 
BRANCH  27  28
ATOM     28  CG  UNL     1       1.505   7.284  20.325  0.00  0.00    +0.000 A 
ATOM     29  CD1 UNL     1       0.910   7.877  21.449  0.00  0.00    +0.000 A 
ATOM     30  CE1 UNL     1       0.554   9.225  21.442  0.00  0.00    +0.000 A 
ATOM     31  CZ  UNL     1       0.788   9.995  20.306  0.00  0.00    +0.000 A 
ATOM     32  CE2 UNL     1       1.371   9.415  19.179  0.00  0.00    +0.000 A 
ATOM     33  CD2 UNL     1       1.734   8.067  19.188  0.00  0.00    +0.000 A 
ENDBRANCH  27  28
ENDBRANCH  22  27
ENDBRANCH   1  22
TORSDOF 7
ENDMDL
MODEL 6
REMARK VINA RESULT:      -7.3      5.202      8.418
REMARK  Name = 
REMARK  7 active torsions:
REMARK  status: ('A' for Active; 'I' for Inactive)
REMARK    1  A    between atoms: C_2  and  OXT_3
REMARK    2  A    between atoms: C_2  and  CA_4
REMARK    3  A    between atoms: CA_4  and  CB_5
REMARK    4  A    between atoms: CA_4  and  N_12
REMARK    5  A    between atoms: CB_5  and  CG_6
REMARK    6  A    between atoms: C_16  and  C_17
REMARK    7  A    between atoms: C_20  and  C_21
REMARK                            x       y       z     vdW  Elec       q    Type
REMARK                         _______ _______ _______ _____ _____    ______ ____
ROOT
ATOM      1  N   UNL     1      -0.278  12.479  20.423  0.00  0.00    +0.000 N 
ATOM      2  C   UNL     1       0.774  13.300  20.058  0.00  0.00    +0.000 C 
ATOM      3  O   UNL     1       1.934  13.178  20.421  0.00  0.00    +0.000 OA
ATOM      4  CA  UNL     1       0.190  14.372  19.198  0.00  0.00    +0.000 C 
ATOM      5  C   UNL     1       0.746  15.492  18.728  0.00  0.00    +0.000 C 
ATOM      6  N   UNL     1      -1.111  14.021  19.012  0.00  0.00    +0.000 N 
ATOM      7  C   UNL     1      -1.425  12.893  19.758  0.00  0.00    +0.000 C 
ATOM      8  S   UNL     1      -2.973  12.305  19.705  0.00  0.00    +0.000 S 
ATOM      9  H   UNL     1      -1.793  14.528  18.463  0.00  0.00    +0.000 HD
ENDROOT
BRANCH   5  10
ATOM     10  C   UNL     1       2.076  15.861  19.043  0.00  0.00    +0.000 A 
ATOM     11  C   UNL     1       2.537  16.637  20.090  0.00  0.00    +0.000 A 
ATOM     12  C   UNL     1       3.954  16.792  20.064  0.00  0.00    +0.000 A 
ATOM     13  C   UNL     1       4.549  16.139  18.999  0.00  0.00    +0.000 A 
ATOM     14  S   UNL     1       3.364  15.363  18.029  0.00  0.00    +0.000 S 
BRANCH  13  15
ATOM     15  C   UNL     1       5.974  16.092  18.629  0.00  0.00    +0.000 A 
ATOM     16  C   UNL     1       6.832  17.187  18.823  0.00  0.00    +0.000 A 
ATOM     17  C   UNL     1       8.182  17.115  18.466  0.00  0.00    +0.000 A 
ATOM     18  C   UNL     1       8.689  15.947  17.906  0.00  0.00    +0.000 A 
ATOM     19 CL   UNL     1      10.350  15.854  17.470  0.00  0.00    +0.000 Cl
ATOM     20  C   UNL     1       7.857  14.851  17.696  0.00  0.00    +0.000 A 
ATOM     21  C   UNL     1       6.508  14.925  18.056  0.00  0.00    +0.000 A 
ENDBRANCH  13  15
ENDBRANCH   5  10
BRANCH   1  22
ATOM     22  CA  UNL     1      -0.020  11.383  21.406  0.00  0.00    +0.000 C 
BRANCH  22  24
ATOM     23  O   UNL     1      -1.560  10.875  23.260  0.00  0.00    +0.000 OA
ATOM     24  C   UNL     1      -0.795  11.662  22.717  0.00  0.00    +0.000 C 
BRANCH  24  25
ATOM     25  OXT UNL     1      -0.550  12.870  23.284  0.00  0.00    +0.000 OA
ATOM     26  HXT UNL     1       0.120  12.879  24.011  0.00  0.00    +0.000 HD
ENDBRANCH  24  25
ENDBRANCH  22  24
BRANCH  22  27
ATOM     27  CB  UNL     1      -0.338   9.961  20.907  0.00  0.00    +0.000 C 
BRANCH  27  28
ATOM     28  CG  UNL     1       0.688   9.295  20.015  0.00  0.00    +0.000 A 
ATOM     29  CD1 UNL     1       1.385   8.169  20.482  0.00  0.00    +0.000 A 
ATOM     30  CE1 UNL     1       2.269   7.482  19.652  0.00  0.00    +0.000 A 
ATOM     31  CZ  UNL     1       2.468   7.917  18.344  0.00  0.00    +0.000 A 
ATOM     32  CE2 UNL     1       1.788   9.039  17.871  0.00  0.00    +0.000 A 
ATOM     33  CD2 UNL     1       0.897   9.724  18.700  0.00  0.00    +0.000 A 
ENDBRANCH  27  28
ENDBRANCH  22  27
ENDBRANCH   1  22
TORSDOF 7
ENDMDL
MODEL 7
REMARK VINA RESULT:      -7.3      1.940      3.350
REMARK  Name = 
REMARK  7 active torsions:
REMARK  status: ('A' for Active; 'I' for Inactive)
REMARK    1  A    between atoms: C_2  and  OXT_3
REMARK    2  A    between atoms: C_2  and  CA_4
REMARK    3  A    between atoms: CA_4  and  CB_5
REMARK    4  A    between atoms: CA_4  and  N_12
REMARK    5  A    between atoms: CB_5  and  CG_6
REMARK    6  A    between atoms: C_16  and  C_17
REMARK    7  A    between atoms: C_20  and  C_21
REMARK                            x       y       z     vdW  Elec       q    Type
REMARK                         _______ _______ _______ _____ _____    ______ ____
ROOT
ATOM      1  N   UNL     1       0.334  10.157  19.935  0.00  0.00    +0.000 N 
ATOM      2  C   UNL     1       1.080   9.055  19.555  0.00  0.00    +0.000 C 
ATOM      3  O   UNL     1       1.474   8.815  18.425  0.00  0.00    +0.000 OA
ATOM      4  CA  UNL     1       1.243   8.218  20.781  0.00  0.00    +0.000 C 
ATOM      5  C   UNL     1       1.735   6.984  20.917  0.00  0.00    +0.000 C 
ATOM      6  N   UNL     1       0.711   8.951  21.797  0.00  0.00    +0.000 N 
ATOM      7  C   UNL     1       0.137  10.117  21.310  0.00  0.00    +0.000 C 
ATOM      8  S   UNL     1      -0.600  11.151  22.374  0.00  0.00    +0.000 S 
ATOM      9  H   UNL     1       0.670   8.679  22.770  0.00  0.00    +0.000 HD
ENDROOT
BRANCH   5  10
ATOM     10  C   UNL     1       2.177   6.223  19.807  0.00  0.00    +0.000 A 
ATOM     11  C   UNL     1       1.632   5.072  19.271  0.00  0.00    +0.000 A 
ATOM     12  C   UNL     1       2.373   4.595  18.151  0.00  0.00    +0.000 A 
ATOM     13  C   UNL     1       3.471   5.383  17.854  0.00  0.00    +0.000 A 
ATOM     14  S   UNL     1       3.596   6.685  18.965  0.00  0.00    +0.000 S 
BRANCH  13  15
ATOM     15  C   UNL     1       4.478   5.196  16.796  0.00  0.00    +0.000 A 
ATOM     16  C   UNL     1       4.950   3.924  16.432  0.00  0.00    +0.000 A 
ATOM     17  C   UNL     1       5.905   3.774  15.420  0.00  0.00    +0.000 A 
ATOM     18  C   UNL     1       6.402   4.896  14.765  0.00  0.00    +0.000 A 
ATOM     19 CL   UNL     1       7.572   4.714  13.518  0.00  0.00    +0.000 Cl
ATOM     20  C   UNL     1       5.956   6.168  15.114  0.00  0.00    +0.000 A 
ATOM     21  C   UNL     1       5.000   6.315  16.124  0.00  0.00    +0.000 A 
ENDBRANCH  13  15
ENDBRANCH   5  10
BRANCH   1  22
ATOM     22  CA  UNL     1      -0.109  11.117  18.878  0.00  0.00    +0.000 C 
BRANCH  22  24
ATOM     23  O   UNL     1      -1.708   9.820  17.527  0.00  0.00    +0.000 OA
ATOM     24  C   UNL     1      -1.505  10.704  18.347  0.00  0.00    +0.000 C 
BRANCH  24  25
ATOM     25  OXT UNL     1      -2.548  11.382  18.888  0.00  0.00    +0.000 OA
ATOM     26  HXT UNL     1      -3.435  10.953  18.801  0.00  0.00    +0.000 HD
ENDBRANCH  24  25
ENDBRANCH  22  24
BRANCH  22  27
ATOM     27  CB  UNL     1      -0.131  12.598  19.299  0.00  0.00    +0.000 C 
BRANCH  27  28
ATOM     28  CG  UNL     1       1.029  13.461  18.852  0.00  0.00    +0.000 A 
ATOM     29  CD1 UNL     1       0.910  14.860  18.901  0.00  0.00    +0.000 A 
ATOM     30  CE1 UNL     1       1.992  15.679  18.580  0.00  0.00    +0.000 A 
ATOM     31  CZ  UNL     1       3.205  15.108  18.204  0.00  0.00    +0.000 A 
ATOM     32  CE2 UNL     1       3.332  13.720  18.144  0.00  0.00    +0.000 A 
ATOM     33  CD2 UNL     1       2.252  12.898  18.471  0.00  0.00    +0.000 A 
ENDBRANCH  27  28
ENDBRANCH  22  27
ENDBRANCH   1  22
TORSDOF 7
ENDMDL
MODEL 8
REMARK VINA RESULT:      -7.3      1.714      3.485
REMARK  Name = 
REMARK  7 active torsions:
REMARK  status: ('A' for Active; 'I' for Inactive)
REMARK    1  A    between atoms: C_2  and  OXT_3
REMARK    2  A    between atoms: C_2  and  CA_4
REMARK    3  A    between atoms: CA_4  and  CB_5
REMARK    4  A    between atoms: CA_4  and  N_12
REMARK    5  A    between atoms: CB_5  and  CG_6
REMARK    6  A    between atoms: C_16  and  C_17
REMARK    7  A    between atoms: C_20  and  C_21
REMARK                            x       y       z     vdW  Elec       q    Type
REMARK                         _______ _______ _______ _____ _____    ______ ____
ROOT
ATOM      1  N   UNL     1       1.001   9.347  20.269  0.00  0.00    +0.000 N 
ATOM      2  C   UNL     1       1.679   8.299  19.673  0.00  0.00    +0.000 C 
ATOM      3  O   UNL     1       2.157   8.305  18.550  0.00  0.00    +0.000 OA
ATOM      4  CA  UNL     1       1.650   7.172  20.651  0.00  0.00    +0.000 C 
ATOM      5  C   UNL     1       2.016   5.896  20.501  0.00  0.00    +0.000 C 
ATOM      6  N   UNL     1       1.090   7.684  21.781  0.00  0.00    +0.000 N 
ATOM      7  C   UNL     1       0.670   8.990  21.570  0.00  0.00    +0.000 C 
ATOM      8  S   UNL     1      -0.071   9.802  22.810  0.00  0.00    +0.000 S 
ATOM      9  H   UNL     1       0.932   7.186  22.647  0.00  0.00    +0.000 HD
ENDROOT
BRANCH   5  10
ATOM     10  C   UNL     1       2.493   5.391  19.267  0.00  0.00    +0.000 A 
ATOM     11  C   UNL     1       1.922   4.445  18.437  0.00  0.00    +0.000 A 
ATOM     12  C   UNL     1       2.715   4.194  17.279  0.00  0.00    +0.000 A 
ATOM     13  C   UNL     1       3.877   4.945  17.247  0.00  0.00    +0.000 A 
ATOM     14  S   UNL     1       3.996   5.932  18.646  0.00  0.00    +0.000 S 
BRANCH  13  15
ATOM     15  C   UNL     1       4.947   4.940  16.235  0.00  0.00    +0.000 A 
ATOM     16  C   UNL     1       4.929   4.067  15.134  0.00  0.00    +0.000 A 
ATOM     17  C   UNL     1       5.957   4.086  14.185  0.00  0.00    +0.000 A 
ATOM     18  C   UNL     1       7.017   4.974  14.330  0.00  0.00    +0.000 A 
ATOM     19 CL   UNL     1       8.279   5.002  13.162  0.00  0.00    +0.000 Cl
ATOM     20  C   UNL     1       7.062   5.843  15.417  0.00  0.00    +0.000 A 
ATOM     21  C   UNL     1       6.032   5.824  16.363  0.00  0.00    +0.000 A 
ENDBRANCH  13  15
ENDBRANCH   5  10
BRANCH   1  22
ATOM     22  CA  UNL     1       0.747  10.582  19.464  0.00  0.00    +0.000 C 
BRANCH  22  24
ATOM     23  O   UNL     1      -1.701  10.785  19.296  0.00  0.00    +0.000 OA
ATOM     24  C   UNL     1      -0.636  10.483  18.775  0.00  0.00    +0.000 C 
BRANCH  24  25
ATOM     25  OXT UNL     1      -0.607  10.055  17.487  0.00  0.00    +0.000 OA
ATOM     26  HXT UNL     1      -0.774  10.744  16.799  0.00  0.00    +0.000 HD
ENDBRANCH  24  25
ENDBRANCH  22  24
BRANCH  22  27
ATOM     27  CB  UNL     1       0.847  11.907  20.242  0.00  0.00    +0.000 C 
BRANCH  27  28
ATOM     28  CG  UNL     1       1.945  12.867  19.838  0.00  0.00    +0.000 A 
ATOM     29  CD1 UNL     1       2.337  12.945  18.492  0.00  0.00    +0.000 A 
ATOM     30  CE1 UNL     1       3.282  13.881  18.076  0.00  0.00    +0.000 A 
ATOM     31  CZ  UNL     1       3.849  14.750  19.005  0.00  0.00    +0.000 A 
ATOM     32  CE2 UNL     1       3.474  14.677  20.347  0.00  0.00    +0.000 A 
ATOM     33  CD2 UNL     1       2.523  13.743  20.763  0.00  0.00    +0.000 A 
ENDBRANCH  27  28
ENDBRANCH  22  27
ENDBRANCH   1  22
TORSDOF 7
ENDMDL
MODEL 9
REMARK VINA RESULT:      -7.3      4.767      7.112
REMARK  Name = 
REMARK  7 active torsions:
REMARK  status: ('A' for Active; 'I' for Inactive)
REMARK    1  A    between atoms: C_2  and  OXT_3
REMARK    2  A    between atoms: C_2  and  CA_4
REMARK    3  A    between atoms: CA_4  and  CB_5
REMARK    4  A    between atoms: CA_4  and  N_12
REMARK    5  A    between atoms: CB_5  and  CG_6
REMARK    6  A    between atoms: C_16  and  C_17
REMARK    7  A    between atoms: C_20  and  C_21
REMARK                            x       y       z     vdW  Elec       q    Type
REMARK                         _______ _______ _______ _____ _____    ______ ____
ROOT
ATOM      1  N   UNL     1       3.801   4.671  19.006  0.00  0.00    +0.000 N 
ATOM      2  C   UNL     1       4.827   5.593  18.892  0.00  0.00    +0.000 C 
ATOM      3  O   UNL     1       4.696   6.806  18.867  0.00  0.00    +0.000 OA
ATOM      4  CA  UNL     1       6.085   4.803  18.748  0.00  0.00    +0.000 C 
ATOM      5  C   UNL     1       7.321   5.208  18.446  0.00  0.00    +0.000 C 
ATOM      6  N   UNL     1       5.723   3.504  18.930  0.00  0.00    +0.000 N 
ATOM      7  C   UNL     1       4.346   3.394  19.067  0.00  0.00    +0.000 C 
ATOM      8  S   UNL     1       3.680   1.891  19.270  0.00  0.00    +0.000 S 
ATOM      9  H   UNL     1       6.342   2.703  18.910  0.00  0.00    +0.000 HD
ENDROOT
BRANCH   5  10
ATOM     10  C   UNL     1       7.621   6.562  18.160  0.00  0.00    +0.000 A 
ATOM     11  C   UNL     1       7.372   7.282  17.007  0.00  0.00    +0.000 A 
ATOM     12  C   UNL     1       7.834   8.627  17.100  0.00  0.00    +0.000 A 
ATOM     13  C   UNL     1       8.430   8.911  18.317  0.00  0.00    +0.000 A 
ATOM     14  S   UNL     1       8.439   7.519  19.321  0.00  0.00    +0.000 S 
BRANCH  13  15
ATOM     15  C   UNL     1       9.043  10.171  18.768  0.00  0.00    +0.000 A 
ATOM     16  C   UNL     1       9.598  10.313  20.051  0.00  0.00    +0.000 A 
ATOM     17  C   UNL     1      10.178  11.521  20.454  0.00  0.00    +0.000 A 
ATOM     18  C   UNL     1      10.204  12.602  19.579  0.00  0.00    +0.000 A 
ATOM     19 CL   UNL     1      10.920  14.086  20.071  0.00  0.00    +0.000 Cl
ATOM     20  C   UNL     1       9.653  12.488  18.306  0.00  0.00    +0.000 A 
ATOM     21  C   UNL     1       9.076  11.279  17.905  0.00  0.00    +0.000 A 
ENDBRANCH  13  15
ENDBRANCH   5  10
BRANCH   1  22
ATOM     22  CA  UNL     1       2.392   5.170  19.028  0.00  0.00    +0.000 C 
BRANCH  22  24
ATOM     23  O   UNL     1       1.277   3.576  17.517  0.00  0.00    +0.000 OA
ATOM     24  C   UNL     1       1.424   4.022  18.647  0.00  0.00    +0.000 C 
BRANCH  24  25
ATOM     25  OXT UNL     1       0.735   3.484  19.684  0.00  0.00    +0.000 OA
ATOM     26  HXT UNL     1       1.238   3.375  20.528  0.00  0.00    +0.000 HD
ENDBRANCH  24  25
ENDBRANCH  22  24
BRANCH  22  27
ATOM     27  CB  UNL     1       1.940   5.812  20.353  0.00  0.00    +0.000 C 
BRANCH  27  28
ATOM     28  CG  UNL     1       1.539   7.270  20.313  0.00  0.00    +0.000 A 
ATOM     29  CD1 UNL     1       1.747   8.015  19.141  0.00  0.00    +0.000 A 
ATOM     30  CE1 UNL     1       1.306   9.335  19.046  0.00  0.00    +0.000 A 
ATOM     31  CZ  UNL     1       0.653   9.925  20.125  0.00  0.00    +0.000 A 
ATOM     32  CE2 UNL     1       0.447   9.198  21.297  0.00  0.00    +0.000 A 
ATOM     33  CD2 UNL     1       0.883   7.875  21.391  0.00  0.00    +0.000 A 
ENDBRANCH  27  28
ENDBRANCH  22  27
ENDBRANCH   1  22
TORSDOF 7
ENDMDL
