MODEL 1
REMARK VINA RESULT:      -7.5      0.000      0.000
REMARK  Name = 
REMARK  9 active torsions:
REMARK  status: ('A' for Active; 'I' for Inactive)
REMARK    1  A    between atoms: C_1  and  C_2
REMARK    2  A    between atoms: C_2  and  C_3
REMARK    3  A    between atoms: C_3  and  O_4
REMARK    4  A    between atoms: O_4  and  C_5
REMARK    5  A    between atoms: C_5  and  C_7
REMARK    6  A    between atoms: C_7  and  N_17
REMARK    7  A    between atoms: C_8  and  C_9
REMARK    8  A    between atoms: C_12  and  N_13
REMARK    9  A    between atoms: C_18  and  C_20
REMARK                            x       y       z     vdW  Elec       q    Type
REMARK                         _______ _______ _______ _____ _____    ______ ____
ROOT
ATOM      1  C   UNL     1       4.368   4.704  17.717  0.00  0.00    +0.000 C 
ATOM      2  C   UNL     1       3.157   5.282  17.830  0.00  0.00    +0.000 C 
ENDROOT
BRANCH   2   3
ATOM      3  C   UNL     1       2.565   5.755  19.025  0.00  0.00    +0.000 A 
ATOM      4  C   UNL     1       1.922   5.044  20.036  0.00  0.00    +0.000 A 
ATOM      5  C   UNL     1       1.345   5.983  20.930  0.00  0.00    +0.000 A 
ATOM      6  C   UNL     1       1.682   7.212  20.419  0.00  0.00    +0.000 A 
ATOM      7  O   UNL     1       2.415   7.099  19.287  0.00  0.00    +0.000 OA
BRANCH   6   8
ATOM      8  N   UNL     1       1.375   8.541  20.850  0.00  0.00    +0.000 N 
ATOM      9  O   UNL     1       1.123   9.357  19.957  0.00  0.00    +0.000 OA
ATOM     10  O   UNL     1       1.389   8.776  22.065  0.00  0.00    +0.000 OA
ENDBRANCH   6   8
ENDBRANCH   2   3
BRANCH   1  11
ATOM     11  N   UNL     1       4.951   4.395  16.478  0.00  0.00    +0.000 N 
ATOM     12  C   UNL     1       5.424   5.282  15.520  0.00  0.00    +0.000 C 
ATOM     13  O   UNL     1       5.410   6.506  15.619  0.00  0.00    +0.000 OA
ATOM     14  H   UNL     1       5.032   3.399  16.301  0.00  0.00    +0.000 HD
BRANCH  12  15
ATOM     15  C   UNL     1       5.947   4.709  14.243  0.00  0.00    +0.000 A 
ATOM     16  C   UNL     1       7.192   5.185  13.796  0.00  0.00    +0.000 A 
ATOM     17  C   UNL     1       7.736   4.739  12.592  0.00  0.00    +0.000 A 
ATOM     18  C   UNL     1       7.048   3.799  11.831  0.00  0.00    +0.000 A 
ATOM     19  C   UNL     1       5.829   3.291  12.284  0.00  0.00    +0.000 A 
ATOM     20  C   UNL     1       5.276   3.738  13.492  0.00  0.00    +0.000 A 
ENDBRANCH  12  15
ENDBRANCH   1  11
BRANCH   1  21
ATOM     21  C   UNL     1       5.209   4.398  18.951  0.00  0.00    +0.000 C 
ATOM     22  O   UNL     1       5.342   3.324  19.502  0.00  0.00    +0.000 OA
BRANCH  21  23
ATOM     23  O   UNL     1       5.750   5.578  19.390  0.00  0.00    +0.000 OA
BRANCH  23  24
ATOM     24  C   UNL     1       7.188   5.597  19.414  0.00  0.00    +0.000 C 
BRANCH  24  26
ATOM     25  C   UNL     1       7.774   7.555  17.930  0.00  0.00    +0.000 C 
ATOM     26  C   UNL     1       7.802   6.037  18.089  0.00  0.00    +0.000 C 
ENDBRANCH  24  26
ENDBRANCH  23  24
ENDBRANCH  21  23
ENDBRANCH   1  21
TORSDOF 8
ENDMDL
MODEL 2
REMARK VINA RESULT:      -7.5      2.560      7.239
REMARK  Name = 
REMARK  9 active torsions:
REMARK  status: ('A' for Active; 'I' for Inactive)
REMARK    1  A    between atoms: C_1  and  C_2
REMARK    2  A    between atoms: C_2  and  C_3
REMARK    3  A    between atoms: C_3  and  O_4
REMARK    4  A    between atoms: O_4  and  C_5
REMARK    5  A    between atoms: C_5  and  C_7
REMARK    6  A    between atoms: C_7  and  N_17
REMARK    7  A    between atoms: C_8  and  C_9
REMARK    8  A    between atoms: C_12  and  N_13
REMARK    9  A    between atoms: C_18  and  C_20
REMARK                            x       y       z     vdW  Elec       q    Type
REMARK                         _______ _______ _______ _____ _____    ______ ____
ROOT
ATOM      1  C   UNL     1       5.512   4.135  16.463  0.00  0.00    +0.000 C 
ATOM      2  C   UNL     1       5.116   3.989  15.184  0.00  0.00    +0.000 C 
ENDROOT
BRANCH   2   3
ATOM      3  C   UNL     1       5.914   4.196  14.033  0.00  0.00    +0.000 A 
ATOM      4  C   UNL     1       6.102   3.371  12.927  0.00  0.00    +0.000 A 
ATOM      5  C   UNL     1       7.129   3.937  12.130  0.00  0.00    +0.000 A 
ATOM      6  C   UNL     1       7.500   5.082  12.791  0.00  0.00    +0.000 A 
ATOM      7  O   UNL     1       6.783   5.259  13.925  0.00  0.00    +0.000 OA
BRANCH   6   8
ATOM      8  N   UNL     1       8.499   6.066  12.508  0.00  0.00    +0.000 N 
ATOM      9  O   UNL     1       8.314   6.754  11.499  0.00  0.00    +0.000 OA
ATOM     10  O   UNL     1       9.464   6.152  13.278  0.00  0.00    +0.000 OA
ENDBRANCH   6   8
ENDBRANCH   2   3
BRANCH   1  11
ATOM     11  N   UNL     1       4.709   3.769  17.554  0.00  0.00    +0.000 N 
ATOM     12  C   UNL     1       3.631   4.467  18.084  0.00  0.00    +0.000 C 
ATOM     13  O   UNL     1       3.201   5.535  17.659  0.00  0.00    +0.000 OA
ATOM     14  H   UNL     1       4.967   2.882  17.972  0.00  0.00    +0.000 HD
BRANCH  12  15
ATOM     15  C   UNL     1       2.969   3.902  19.298  0.00  0.00    +0.000 A 
ATOM     16  C   UNL     1       3.729   3.019  20.084  0.00  0.00    +0.000 A 
ATOM     17  C   UNL     1       3.177   2.408  21.210  0.00  0.00    +0.000 A 
ATOM     18  C   UNL     1       1.863   2.689  21.572  0.00  0.00    +0.000 A 
ATOM     19  C   UNL     1       1.111   3.594  20.820  0.00  0.00    +0.000 A 
ATOM     20  C   UNL     1       1.660   4.207  19.686  0.00  0.00    +0.000 A 
ENDBRANCH  12  15
ENDBRANCH   1  11
BRANCH   1  21
ATOM     21  C   UNL     1       6.901   4.665  16.798  0.00  0.00    +0.000 C 
ATOM     22  O   UNL     1       7.958   4.076  16.689  0.00  0.00    +0.000 OA
BRANCH  21  23
ATOM     23  O   UNL     1       6.753   5.922  17.321  0.00  0.00    +0.000 OA
BRANCH  23  24
ATOM     24  C   UNL     1       7.436   6.127  18.570  0.00  0.00    +0.000 C 
BRANCH  24  26
ATOM     25  C   UNL     1       7.755   8.428  17.576  0.00  0.00    +0.000 C 
ATOM     26  C   UNL     1       8.261   7.411  18.596  0.00  0.00    +0.000 C 
ENDBRANCH  24  26
ENDBRANCH  23  24
ENDBRANCH  21  23
ENDBRANCH   1  21
TORSDOF 8
ENDMDL
MODEL 3
REMARK VINA RESULT:      -7.5      3.120      6.301
REMARK  Name = 
REMARK  9 active torsions:
REMARK  status: ('A' for Active; 'I' for Inactive)
REMARK    1  A    between atoms: C_1  and  C_2
REMARK    2  A    between atoms: C_2  and  C_3
REMARK    3  A    between atoms: C_3  and  O_4
REMARK    4  A    between atoms: O_4  and  C_5
REMARK    5  A    between atoms: C_5  and  C_7
REMARK    6  A    between atoms: C_7  and  N_17
REMARK    7  A    between atoms: C_8  and  C_9
REMARK    8  A    between atoms: C_12  and  N_13
REMARK    9  A    between atoms: C_18  and  C_20
REMARK                            x       y       z     vdW  Elec       q    Type
REMARK                         _______ _______ _______ _____ _____    ______ ____
ROOT
ATOM      1  C   UNL     1       6.211   6.684  17.183  0.00  0.00    +0.000 C 
ATOM      2  C   UNL     1       5.043   6.409  17.793  0.00  0.00    +0.000 C 
ENDROOT
BRANCH   2   3
ATOM      3  C   UNL     1       4.381   5.157  17.805  0.00  0.00    +0.000 A 
ATOM      4  C   UNL     1       3.148   4.803  17.264  0.00  0.00    +0.000 A 
ATOM      5  C   UNL     1       2.845   3.485  17.693  0.00  0.00    +0.000 A 
ATOM      6  C   UNL     1       3.918   3.108  18.461  0.00  0.00    +0.000 A 
ATOM      7  O   UNL     1       4.849   4.087  18.536  0.00  0.00    +0.000 OA
BRANCH   6   8
ATOM      8  N   UNL     1       4.194   1.910  19.192  0.00  0.00    +0.000 N 
ATOM      9  O   UNL     1       3.839   0.853  18.659  0.00  0.00    +0.000 OA
ATOM     10  O   UNL     1       4.752   2.016  20.292  0.00  0.00    +0.000 OA
ENDBRANCH   6   8
ENDBRANCH   2   3
BRANCH   1  11
ATOM     11  N   UNL     1       6.881   7.908  17.339  0.00  0.00    +0.000 N 
ATOM     12  C   UNL     1       7.965   8.181  18.163  0.00  0.00    +0.000 C 
ATOM     13  O   UNL     1       8.522   7.368  18.893  0.00  0.00    +0.000 OA
ATOM     14  H   UNL     1       6.510   8.653  16.758  0.00  0.00    +0.000 HD
BRANCH  12  15
ATOM     15  C   UNL     1       8.466   9.588  18.204  0.00  0.00    +0.000 A 
ATOM     16  C   UNL     1       9.492   9.871  19.123  0.00  0.00    +0.000 A 
ATOM     17  C   UNL     1       9.989  11.166  19.262  0.00  0.00    +0.000 A 
ATOM     18  C   UNL     1       9.478  12.189  18.470  0.00  0.00    +0.000 A 
ATOM     19  C   UNL     1       8.486  11.912  17.527  0.00  0.00    +0.000 A 
ATOM     20  C   UNL     1       7.980  10.613  17.386  0.00  0.00    +0.000 A 
ENDBRANCH  12  15
ENDBRANCH   1  11
BRANCH   1  21
ATOM     21  C   UNL     1       6.909   5.641  16.318  0.00  0.00    +0.000 C 
ATOM     22  O   UNL     1       7.748   4.836  16.671  0.00  0.00    +0.000 OA
BRANCH  21  23
ATOM     23  O   UNL     1       6.477   5.811  15.030  0.00  0.00    +0.000 OA
BRANCH  23  24
ATOM     24  C   UNL     1       6.853   4.749  14.135  0.00  0.00    +0.000 C 
BRANCH  24  26
ATOM     25  C   UNL     1       5.977   3.297  12.262  0.00  0.00    +0.000 C 
ATOM     26  C   UNL     1       5.656   3.973  13.593  0.00  0.00    +0.000 C 
ENDBRANCH  24  26
ENDBRANCH  23  24
ENDBRANCH  21  23
ENDBRANCH   1  21
TORSDOF 8
ENDMDL
MODEL 4
REMARK VINA RESULT:      -7.4      1.124      2.467
REMARK  Name = 
REMARK  9 active torsions:
REMARK  status: ('A' for Active; 'I' for Inactive)
REMARK    1  A    between atoms: C_1  and  C_2
REMARK    2  A    between atoms: C_2  and  C_3
REMARK    3  A    between atoms: C_3  and  O_4
REMARK    4  A    between atoms: O_4  and  C_5
REMARK    5  A    between atoms: C_5  and  C_7
REMARK    6  A    between atoms: C_7  and  N_17
REMARK    7  A    between atoms: C_8  and  C_9
REMARK    8  A    between atoms: C_12  and  N_13
REMARK    9  A    between atoms: C_18  and  C_20
REMARK                            x       y       z     vdW  Elec       q    Type
REMARK                         _______ _______ _______ _____ _____    ______ ____
ROOT
ATOM      1  C   UNL     1       4.357   5.023  17.672  0.00  0.00    +0.000 C 
ATOM      2  C   UNL     1       3.171   5.648  17.800  0.00  0.00    +0.000 C 
ENDROOT
BRANCH   2   3
ATOM      3  C   UNL     1       2.600   6.116  19.008  0.00  0.00    +0.000 A 
ATOM      4  C   UNL     1       2.026   5.397  20.053  0.00  0.00    +0.000 A 
ATOM      5  C   UNL     1       1.439   6.325  20.951  0.00  0.00    +0.000 A 
ATOM      6  C   UNL     1       1.702   7.558  20.408  0.00  0.00    +0.000 A 
ATOM      7  O   UNL     1       2.399   7.457  19.252  0.00  0.00    +0.000 OA
BRANCH   6   8
ATOM      8  N   UNL     1       1.349   8.880  20.826  0.00  0.00    +0.000 N 
ATOM      9  O   UNL     1       0.998   9.657  19.933  0.00  0.00    +0.000 OA
ATOM     10  O   UNL     1       1.427   9.147  22.032  0.00  0.00    +0.000 OA
ENDBRANCH   6   8
ENDBRANCH   2   3
BRANCH   1  11
ATOM     11  N   UNL     1       4.926   4.721  16.424  0.00  0.00    +0.000 N 
ATOM     12  C   UNL     1       5.978   5.371  15.793  0.00  0.00    +0.000 C 
ATOM     13  O   UNL     1       6.594   6.331  16.249  0.00  0.00    +0.000 OA
ATOM     14  H   UNL     1       4.502   3.922  15.965  0.00  0.00    +0.000 HD
BRANCH  12  15
ATOM     15  C   UNL     1       6.366   4.900  14.429  0.00  0.00    +0.000 A 
ATOM     16  C   UNL     1       5.537   3.935  13.830  0.00  0.00    +0.000 A 
ATOM     17  C   UNL     1       5.847   3.406  12.578  0.00  0.00    +0.000 A 
ATOM     18  C   UNL     1       6.980   3.850  11.903  0.00  0.00    +0.000 A 
ATOM     19  C   UNL     1       7.789   4.836  12.472  0.00  0.00    +0.000 A 
ATOM     20  C   UNL     1       7.484   5.368  13.731  0.00  0.00    +0.000 A 
ENDBRANCH  12  15
ENDBRANCH   1  11
BRANCH   1  21
ATOM     21  C   UNL     1       5.186   4.654  18.896  0.00  0.00    +0.000 C 
ATOM     22  O   UNL     1       5.716   5.415  19.681  0.00  0.00    +0.000 OA
BRANCH  21  23
ATOM     23  O   UNL     1       5.299   3.290  18.927  0.00  0.00    +0.000 OA
BRANCH  23  24
ATOM     24  C   UNL     1       4.220   2.622  19.604  0.00  0.00    +0.000 C 
BRANCH  24  26
ATOM     25  C   UNL     1       2.448   2.094  17.883  0.00  0.00    +0.000 C 
ATOM     26  C   UNL     1       3.566   1.534  18.759  0.00  0.00    +0.000 C 
ENDBRANCH  24  26
ENDBRANCH  23  24
ENDBRANCH  21  23
ENDBRANCH   1  21
TORSDOF 8
ENDMDL
MODEL 5
REMARK VINA RESULT:      -7.3      2.330      2.929
REMARK  Name = 
REMARK  9 active torsions:
REMARK  status: ('A' for Active; 'I' for Inactive)
REMARK    1  A    between atoms: C_1  and  C_2
REMARK    2  A    between atoms: C_2  and  C_3
REMARK    3  A    between atoms: C_3  and  O_4
REMARK    4  A    between atoms: O_4  and  C_5
REMARK    5  A    between atoms: C_5  and  C_7
REMARK    6  A    between atoms: C_7  and  N_17
REMARK    7  A    between atoms: C_8  and  C_9
REMARK    8  A    between atoms: C_12  and  N_13
REMARK    9  A    between atoms: C_18  and  C_20
REMARK                            x       y       z     vdW  Elec       q    Type
REMARK                         _______ _______ _______ _____ _____    ______ ____
ROOT
ATOM      1  C   UNL     1       4.441   3.890  17.260  0.00  0.00    +0.000 C 
ATOM      2  C   UNL     1       3.282   3.229  17.441  0.00  0.00    +0.000 C 
ENDROOT
BRANCH   2   3
ATOM      3  C   UNL     1       2.433   3.325  18.570  0.00  0.00    +0.000 A 
ATOM      4  C   UNL     1       1.361   4.185  18.801  0.00  0.00    +0.000 A 
ATOM      5  C   UNL     1       0.947   4.014  20.147  0.00  0.00    +0.000 A 
ATOM      6  C   UNL     1       1.782   3.050  20.655  0.00  0.00    +0.000 A 
ATOM      7  O   UNL     1       2.672   2.621  19.730  0.00  0.00    +0.000 OA
BRANCH   6   8
ATOM      8  N   UNL     1       1.886   2.468  21.957  0.00  0.00    +0.000 N 
ATOM      9  O   UNL     1       3.014   2.100  22.300  0.00  0.00    +0.000 OA
ATOM     10  O   UNL     1       0.854   2.370  22.634  0.00  0.00    +0.000 OA
ENDBRANCH   6   8
ENDBRANCH   2   3
BRANCH   1  11
ATOM     11  N   UNL     1       5.153   3.857  16.051  0.00  0.00    +0.000 N 
ATOM     12  C   UNL     1       5.510   4.933  15.248  0.00  0.00    +0.000 C 
ATOM     13  O   UNL     1       5.256   6.110  15.487  0.00  0.00    +0.000 OA
ATOM     14  H   UNL     1       5.434   2.924  15.767  0.00  0.00    +0.000 HD
BRANCH  12  15
ATOM     15  C   UNL     1       6.217   4.636  13.966  0.00  0.00    +0.000 A 
ATOM     16  C   UNL     1       7.332   5.435  13.655  0.00  0.00    +0.000 A 
ATOM     17  C   UNL     1       8.025   5.259  12.458  0.00  0.00    +0.000 A 
ATOM     18  C   UNL     1       7.621   4.269  11.567  0.00  0.00    +0.000 A 
ATOM     19  C   UNL     1       6.540   3.445  11.883  0.00  0.00    +0.000 A 
ATOM     20  C   UNL     1       5.837   3.620  13.083  0.00  0.00    +0.000 A 
ENDBRANCH  12  15
ENDBRANCH   1  11
BRANCH   1  21
ATOM     21  C   UNL     1       5.022   4.770  18.359  0.00  0.00    +0.000 C 
ATOM     22  O   UNL     1       4.559   5.807  18.793  0.00  0.00    +0.000 OA
BRANCH  21  23
ATOM     23  O   UNL     1       6.220   4.225  18.740  0.00  0.00    +0.000 OA
BRANCH  23  24
ATOM     24  C   UNL     1       7.369   4.836  18.128  0.00  0.00    +0.000 C 
BRANCH  24  26
ATOM     25  C   UNL     1       7.686   7.317  17.774  0.00  0.00    +0.000 C 
ATOM     26  C   UNL     1       7.755   6.164  18.772  0.00  0.00    +0.000 C 
ENDBRANCH  24  26
ENDBRANCH  23  24
ENDBRANCH  21  23
ENDBRANCH   1  21
TORSDOF 8
ENDMDL
MODEL 6
REMARK VINA RESULT:      -7.3      2.637      3.669
REMARK  Name = 
REMARK  9 active torsions:
REMARK  status: ('A' for Active; 'I' for Inactive)
REMARK    1  A    between atoms: C_1  and  C_2
REMARK    2  A    between atoms: C_2  and  C_3
REMARK    3  A    between atoms: C_3  and  O_4
REMARK    4  A    between atoms: O_4  and  C_5
REMARK    5  A    between atoms: C_5  and  C_7
REMARK    6  A    between atoms: C_7  and  N_17
REMARK    7  A    between atoms: C_8  and  C_9
REMARK    8  A    between atoms: C_12  and  N_13
REMARK    9  A    between atoms: C_18  and  C_20
REMARK                            x       y       z     vdW  Elec       q    Type
REMARK                         _______ _______ _______ _____ _____    ______ ____
ROOT
ATOM      1  C   UNL     1       4.108   4.061  17.099  0.00  0.00    +0.000 C 
ATOM      2  C   UNL     1       3.044   3.257  17.286  0.00  0.00    +0.000 C 
ENDROOT
BRANCH   2   3
ATOM      3  C   UNL     1       2.227   3.208  18.441  0.00  0.00    +0.000 A 
ATOM      4  C   UNL     1       0.996   3.815  18.680  0.00  0.00    +0.000 A 
ATOM      5  C   UNL     1       0.668   3.612  20.045  0.00  0.00    +0.000 A 
ATOM      6  C   UNL     1       1.712   2.882  20.556  0.00  0.00    +0.000 A 
ATOM      7  O   UNL     1       2.650   2.624  19.614  0.00  0.00    +0.000 OA
BRANCH   6   8
ATOM      8  N   UNL     1       1.980   2.392  21.873  0.00  0.00    +0.000 N 
ATOM      9  O   UNL     1       3.161   2.132  22.126  0.00  0.00    +0.000 OA
ATOM     10  O   UNL     1       1.025   2.260  22.649  0.00  0.00    +0.000 OA
ENDBRANCH   6   8
ENDBRANCH   2   3
BRANCH   1  11
ATOM     11  N   UNL     1       4.780   4.159  15.870  0.00  0.00    +0.000 N 
ATOM     12  C   UNL     1       6.151   4.214  15.657  0.00  0.00    +0.000 C 
ATOM     13  O   UNL     1       7.007   4.174  16.536  0.00  0.00    +0.000 OA
ATOM     14  H   UNL     1       4.162   4.179  15.066  0.00  0.00    +0.000 HD
BRANCH  12  15
ATOM     15  C   UNL     1       6.628   4.383  14.252  0.00  0.00    +0.000 A 
ATOM     16  C   UNL     1       6.055   3.544  13.280  0.00  0.00    +0.000 A 
ATOM     17  C   UNL     1       6.472   3.602  11.951  0.00  0.00    +0.000 A 
ATOM     18  C   UNL     1       7.455   4.513  11.575  0.00  0.00    +0.000 A 
ATOM     19  C   UNL     1       8.003   5.377  12.524  0.00  0.00    +0.000 A 
ATOM     20  C   UNL     1       7.591   5.321  13.862  0.00  0.00    +0.000 A 
ENDBRANCH  12  15
ENDBRANCH   1  11
BRANCH   1  21
ATOM     21  C   UNL     1       4.614   4.965  18.216  0.00  0.00    +0.000 C 
ATOM     22  O   UNL     1       5.169   4.626  19.242  0.00  0.00    +0.000 OA
BRANCH  21  23
ATOM     23  O   UNL     1       4.269   6.253  17.899  0.00  0.00    +0.000 OA
BRANCH  23  24
ATOM     24  C   UNL     1       3.205   6.794  18.701  0.00  0.00    +0.000 C 
BRANCH  24  26
ATOM     25  C   UNL     1       2.127   8.944  17.928  0.00  0.00    +0.000 C 
ATOM     26  C   UNL     1       2.089   7.419  17.869  0.00  0.00    +0.000 C 
ENDBRANCH  24  26
ENDBRANCH  23  24
ENDBRANCH  21  23
ENDBRANCH   1  21
TORSDOF 8
ENDMDL
MODEL 7
REMARK VINA RESULT:      -7.3      2.685      7.715
REMARK  Name = 
REMARK  9 active torsions:
REMARK  status: ('A' for Active; 'I' for Inactive)
REMARK    1  A    between atoms: C_1  and  C_2
REMARK    2  A    between atoms: C_2  and  C_3
REMARK    3  A    between atoms: C_3  and  O_4
REMARK    4  A    between atoms: O_4  and  C_5
REMARK    5  A    between atoms: C_5  and  C_7
REMARK    6  A    between atoms: C_7  and  N_17
REMARK    7  A    between atoms: C_8  and  C_9
REMARK    8  A    between atoms: C_12  and  N_13
REMARK    9  A    between atoms: C_18  and  C_20
REMARK                            x       y       z     vdW  Elec       q    Type
REMARK                         _______ _______ _______ _____ _____    ______ ____
ROOT
ATOM      1  C   UNL     1       3.384   6.311  18.515  0.00  0.00    +0.000 C 
ATOM      2  C   UNL     1       4.634   6.642  18.139  0.00  0.00    +0.000 C 
ENDROOT
BRANCH   2   3
ATOM      3  C   UNL     1       5.559   5.798  17.479  0.00  0.00    +0.000 A 
ATOM      4  C   UNL     1       6.586   5.023  18.011  0.00  0.00    +0.000 A 
ATOM      5  C   UNL     1       7.342   4.499  16.931  0.00  0.00    +0.000 A 
ATOM      6  C   UNL     1       6.723   4.975  15.802  0.00  0.00    +0.000 A 
ATOM      7  O   UNL     1       5.653   5.746  16.105  0.00  0.00    +0.000 OA
BRANCH   6   8
ATOM      8  N   UNL     1       7.026   4.823  14.412  0.00  0.00    +0.000 N 
ATOM      9  O   UNL     1       7.892   5.579  13.959  0.00  0.00    +0.000 OA
ATOM     10  O   UNL     1       6.405   3.965  13.773  0.00  0.00    +0.000 OA
ENDBRANCH   6   8
ENDBRANCH   2   3
BRANCH   1  11
ATOM     11  N   UNL     1       2.473   7.246  19.032  0.00  0.00    +0.000 N 
ATOM     12  C   UNL     1       2.018   8.410  18.426  0.00  0.00    +0.000 C 
ATOM     13  O   UNL     1       2.347   8.803  17.310  0.00  0.00    +0.000 OA
ATOM     14  H   UNL     1       2.118   7.006  19.951  0.00  0.00    +0.000 HD
BRANCH  12  15
ATOM     15  C   UNL     1       1.092   9.283  19.208  0.00  0.00    +0.000 A 
ATOM     16  C   UNL     1       0.471  10.335  18.513  0.00  0.00    +0.000 A 
ATOM     17  C   UNL     1      -0.374  11.227  19.173  0.00  0.00    +0.000 A 
ATOM     18  C   UNL     1      -0.621  11.064  20.533  0.00  0.00    +0.000 A 
ATOM     19  C   UNL     1      -0.041   9.999  21.224  0.00  0.00    +0.000 A 
ATOM     20  C   UNL     1       0.812   9.102  20.566  0.00  0.00    +0.000 A 
ENDBRANCH  12  15
ENDBRANCH   1  11
BRANCH   1  21
ATOM     21  C   UNL     1       2.864   4.889  18.346  0.00  0.00    +0.000 C 
ATOM     22  O   UNL     1       2.217   4.449  17.416  0.00  0.00    +0.000 OA
BRANCH  21  23
ATOM     23  O   UNL     1       3.193   4.187  19.475  0.00  0.00    +0.000 OA
BRANCH  23  24
ATOM     24  C   UNL     1       2.798   2.804  19.448  0.00  0.00    +0.000 C 
BRANCH  24  26
ATOM     25  C   UNL     1       1.692   2.928  21.716  0.00  0.00    +0.000 C 
ATOM     26  C   UNL     1       1.531   2.528  20.251  0.00  0.00    +0.000 C 
ENDBRANCH  24  26
ENDBRANCH  23  24
ENDBRANCH  21  23
ENDBRANCH   1  21
TORSDOF 8
ENDMDL
MODEL 8
REMARK VINA RESULT:      -7.3      3.026      7.319
REMARK  Name = 
REMARK  9 active torsions:
REMARK  status: ('A' for Active; 'I' for Inactive)
REMARK    1  A    between atoms: C_1  and  C_2
REMARK    2  A    between atoms: C_2  and  C_3
REMARK    3  A    between atoms: C_3  and  O_4
REMARK    4  A    between atoms: O_4  and  C_5
REMARK    5  A    between atoms: C_5  and  C_7
REMARK    6  A    between atoms: C_7  and  N_17
REMARK    7  A    between atoms: C_8  and  C_9
REMARK    8  A    between atoms: C_12  and  N_13
REMARK    9  A    between atoms: C_18  and  C_20
REMARK                            x       y       z     vdW  Elec       q    Type
REMARK                         _______ _______ _______ _____ _____    ______ ____
ROOT
ATOM      1  C   UNL     1       5.311   4.457  16.690  0.00  0.00    +0.000 C 
ATOM      2  C   UNL     1       4.926   4.211  15.423  0.00  0.00    +0.000 C 
ENDROOT
BRANCH   2   3
ATOM      3  C   UNL     1       5.741   4.307  14.269  0.00  0.00    +0.000 A 
ATOM      4  C   UNL     1       5.919   3.394  13.233  0.00  0.00    +0.000 A 
ATOM      5  C   UNL     1       6.968   3.872  12.406  0.00  0.00    +0.000 A 
ATOM      6  C   UNL     1       7.360   5.056  12.980  0.00  0.00    +0.000 A 
ATOM      7  O   UNL     1       6.637   5.338  14.088  0.00  0.00    +0.000 OA
BRANCH   6   8
ATOM      8  N   UNL     1       8.386   5.991  12.633  0.00  0.00    +0.000 N 
ATOM      9  O   UNL     1       9.339   6.066  13.415  0.00  0.00    +0.000 OA
ATOM     10  O   UNL     1       8.244   6.651  11.595  0.00  0.00    +0.000 OA
ENDBRANCH   6   8
ENDBRANCH   2   3
BRANCH   1  11
ATOM     11  N   UNL     1       4.490   4.196  17.798  0.00  0.00    +0.000 N 
ATOM     12  C   UNL     1       3.893   2.991  18.146  0.00  0.00    +0.000 C 
ATOM     13  O   UNL     1       4.006   1.939  17.523  0.00  0.00    +0.000 OA
ATOM     14  H   UNL     1       4.346   5.001  18.398  0.00  0.00    +0.000 HD
BRANCH  12  15
ATOM     15  C   UNL     1       3.004   2.979  19.345  0.00  0.00    +0.000 A 
ATOM     16  C   UNL     1       1.686   3.433  19.164  0.00  0.00    +0.000 A 
ATOM     17  C   UNL     1       0.799   3.499  20.238  0.00  0.00    +0.000 A 
ATOM     18  C   UNL     1       1.216   3.093  21.503  0.00  0.00    +0.000 A 
ATOM     19  C   UNL     1       2.510   2.603  21.686  0.00  0.00    +0.000 A 
ATOM     20  C   UNL     1       3.407   2.539  20.611  0.00  0.00    +0.000 A 
ENDBRANCH  12  15
ENDBRANCH   1  11
BRANCH   1  21
ATOM     21  C   UNL     1       6.705   4.990  16.997  0.00  0.00    +0.000 C 
ATOM     22  O   UNL     1       7.767   4.441  16.777  0.00  0.00    +0.000 OA
BRANCH  21  23
ATOM     23  O   UNL     1       6.560   6.189  17.642  0.00  0.00    +0.000 OA
BRANCH  23  24
ATOM     24  C   UNL     1       7.799   6.867  17.917  0.00  0.00    +0.000 C 
BRANCH  24  26
ATOM     25  C   UNL     1       8.570   9.214  18.443  0.00  0.00    +0.000 C 
ATOM     26  C   UNL     1       7.793   8.327  17.474  0.00  0.00    +0.000 C 
ENDBRANCH  24  26
ENDBRANCH  23  24
ENDBRANCH  21  23
ENDBRANCH   1  21
TORSDOF 8
ENDMDL
MODEL 9
REMARK VINA RESULT:      -7.3      2.499      7.752
REMARK  Name = 
REMARK  9 active torsions:
REMARK  status: ('A' for Active; 'I' for Inactive)
REMARK    1  A    between atoms: C_1  and  C_2
REMARK    2  A    between atoms: C_2  and  C_3
REMARK    3  A    between atoms: C_3  and  O_4
REMARK    4  A    between atoms: O_4  and  C_5
REMARK    5  A    between atoms: C_5  and  C_7
REMARK    6  A    between atoms: C_7  and  N_17
REMARK    7  A    between atoms: C_8  and  C_9
REMARK    8  A    between atoms: C_12  and  N_13
REMARK    9  A    between atoms: C_18  and  C_20
REMARK                            x       y       z     vdW  Elec       q    Type
REMARK                         _______ _______ _______ _____ _____    ______ ____
ROOT
ATOM      1  C   UNL     1       3.550   5.908  18.673  0.00  0.00    +0.000 C 
ATOM      2  C   UNL     1       4.808   6.261  18.347  0.00  0.00    +0.000 C 
ENDROOT
BRANCH   2   3
ATOM      3  C   UNL     1       5.708   5.509  17.554  0.00  0.00    +0.000 A 
ATOM      4  C   UNL     1       6.804   4.744  17.943  0.00  0.00    +0.000 A 
ATOM      5  C   UNL     1       7.490   4.335  16.770  0.00  0.00    +0.000 A 
ATOM      6  C   UNL     1       6.763   4.865  15.733  0.00  0.00    +0.000 A 
ATOM      7  O   UNL     1       5.693   5.563  16.177  0.00  0.00    +0.000 OA
BRANCH   6   8
ATOM      8  N   UNL     1       6.958   4.830  14.316  0.00  0.00    +0.000 N 
ATOM      9  O   UNL     1       7.840   5.570  13.870  0.00  0.00    +0.000 OA
ATOM     10  O   UNL     1       6.236   4.077  13.649  0.00  0.00    +0.000 OA
ENDBRANCH   6   8
ENDBRANCH   2   3
BRANCH   1  11
ATOM     11  N   UNL     1       2.666   6.771  19.339  0.00  0.00    +0.000 N 
ATOM     12  C   UNL     1       2.142   7.971  18.874  0.00  0.00    +0.000 C 
ATOM     13  O   UNL     1       2.374   8.466  17.775  0.00  0.00    +0.000 OA
ATOM     14  H   UNL     1       2.390   6.444  20.258  0.00  0.00    +0.000 HD
BRANCH  12  15
ATOM     15  C   UNL     1       1.266   8.749  19.800  0.00  0.00    +0.000 A 
ATOM     16  C   UNL     1       1.231   8.334  21.142  0.00  0.00    +0.000 A 
ATOM     17  C   UNL     1       0.406   8.973  22.067  0.00  0.00    +0.000 A 
ATOM     18  C   UNL     1      -0.380  10.049  21.662  0.00  0.00    +0.000 A 
ATOM     19  C   UNL     1      -0.323  10.494  20.340  0.00  0.00    +0.000 A 
ATOM     20  C   UNL     1       0.501   9.852  19.406  0.00  0.00    +0.000 A 
ENDBRANCH  12  15
ENDBRANCH   1  11
BRANCH   1  21
ATOM     21  C   UNL     1       2.990   4.546  18.279  0.00  0.00    +0.000 C 
ATOM     22  O   UNL     1       2.355   4.274  17.280  0.00  0.00    +0.000 OA
BRANCH  21  23
ATOM     23  O   UNL     1       3.268   3.671  19.296  0.00  0.00    +0.000 OA
BRANCH  23  24
ATOM     24  C   UNL     1       2.351   2.567  19.393  0.00  0.00    +0.000 C 
BRANCH  24  26
ATOM     25  C   UNL     1       2.101   3.496  21.729  0.00  0.00    +0.000 C 
ATOM     26  C   UNL     1       1.475   2.626  20.641  0.00  0.00    +0.000 C 
ENDBRANCH  24  26
ENDBRANCH  23  24
ENDBRANCH  21  23
ENDBRANCH   1  21
TORSDOF 8
ENDMDL
