MODEL 1
REMARK VINA RESULT:      -7.5      0.000      0.000
REMARK  Name = 
REMARK  3 active torsions:
REMARK  status: ('A' for Active; 'I' for Inactive)
REMARK    1  A    between atoms: C_1  and  C_2
REMARK    2  A    between atoms: C_5  and  N_6
REMARK    3  A    between atoms: N_6  and  N_7
REMARK                            x       y       z     vdW  Elec       q    Type
REMARK                         _______ _______ _______ _____ _____    ______ ____
ROOT
ATOM      1  N   UNL     1       5.125   3.594  16.709  0.00  0.00    +0.000 NA
ATOM      2  C   UNL     1       4.283   3.714  17.689  0.00  0.00    +0.000 C 
ATOM      3  S   UNL     1       4.665   4.012  19.378  0.00  0.00    +0.000 S 
ATOM      4  C   UNL     1       3.151   3.388  19.985  0.00  0.00    +0.000 A 
ATOM      5  C   UNL     1       2.882   2.995  21.284  0.00  0.00    +0.000 A 
ATOM      6  C   UNL     1       1.581   2.613  21.606  0.00  0.00    +0.000 A 
ATOM      7  C   UNL     1       0.566   2.673  20.638  0.00  0.00    +0.000 A 
ATOM      8  C   UNL     1       0.861   3.030  19.316  0.00  0.00    +0.000 A 
ATOM      9  C   UNL     1       2.180   3.329  19.002  0.00  0.00    +0.000 A 
ATOM     10  C   UNL     1       2.766   3.579  17.671  0.00  0.00    +0.000 C 
ATOM     11  O   UNL     1       2.086   3.672  16.660  0.00  0.00    +0.000 OA
ENDROOT
BRANCH   1  12
ATOM     12  N   UNL     1       6.373   4.008  17.073  0.00  0.00    +0.000 N 
ATOM     13  H   UNL     1       6.971   3.309  17.513  0.00  0.00    +0.000 HD
BRANCH  12  18
ATOM     14  C   UNL     1       8.480   9.192  18.263  0.00  0.00    +0.000 C 
ATOM     15  C   UNL     1       7.856   7.861  17.964  0.00  0.00    +0.000 A 
ATOM     16  C   UNL     1       8.191   6.749  18.735  0.00  0.00    +0.000 A 
ATOM     17  C   UNL     1       7.651   5.504  18.427  0.00  0.00    +0.000 A 
ATOM     18  C   UNL     1       6.753   5.324  17.361  0.00  0.00    +0.000 A 
ATOM     19  C   UNL     1       6.401   6.440  16.605  0.00  0.00    +0.000 A 
ATOM     20  C   UNL     1       6.955   7.700  16.900  0.00  0.00    +0.000 A 
ENDBRANCH  12  18
ENDBRANCH   1  12
TORSDOF 2
ENDMDL
MODEL 2
REMARK VINA RESULT:      -7.5      0.244      1.123
REMARK  Name = 
REMARK  3 active torsions:
REMARK  status: ('A' for Active; 'I' for Inactive)
REMARK    1  A    between atoms: C_1  and  C_2
REMARK    2  A    between atoms: C_5  and  N_6
REMARK    3  A    between atoms: N_6  and  N_7
REMARK                            x       y       z     vdW  Elec       q    Type
REMARK                         _______ _______ _______ _____ _____    ______ ____
ROOT
ATOM      1  N   UNL     1       5.110   3.595  16.723  0.00  0.00    +0.000 NA
ATOM      2  C   UNL     1       4.306   3.708  17.735  0.00  0.00    +0.000 C 
ATOM      3  S   UNL     1       4.750   3.772  19.434  0.00  0.00    +0.000 S 
ATOM      4  C   UNL     1       3.182   3.271  20.016  0.00  0.00    +0.000 A 
ATOM      5  C   UNL     1       2.888   2.774  21.274  0.00  0.00    +0.000 A 
ATOM      6  C   UNL     1       1.556   2.517  21.592  0.00  0.00    +0.000 A 
ATOM      7  C   UNL     1       0.540   2.803  20.666  0.00  0.00    +0.000 A 
ATOM      8  C   UNL     1       0.854   3.263  19.382  0.00  0.00    +0.000 A 
ATOM      9  C   UNL     1       2.195   3.436  19.062  0.00  0.00    +0.000 A 
ATOM     10  C   UNL     1       2.783   3.757  17.748  0.00  0.00    +0.000 C 
ATOM     11  O   UNL     1       2.104   4.040  16.773  0.00  0.00    +0.000 OA
ENDROOT
BRANCH   1  12
ATOM     12  N   UNL     1       6.405   3.815  17.091  0.00  0.00    +0.000 N 
ATOM     13  H   UNL     1       6.883   3.040  17.550  0.00  0.00    +0.000 HD
BRANCH  12  18
ATOM     14  C   UNL     1       8.249   9.137  18.096  0.00  0.00    +0.000 C 
ATOM     15  C   UNL     1       7.841   7.718  17.832  0.00  0.00    +0.000 A 
ATOM     16  C   UNL     1       7.120   7.407  16.679  0.00  0.00    +0.000 A 
ATOM     17  C   UNL     1       6.696   6.100  16.458  0.00  0.00    +0.000 A 
ATOM     18  C   UNL     1       6.986   5.061  17.359  0.00  0.00    +0.000 A 
ATOM     19  C   UNL     1       7.726   5.367  18.498  0.00  0.00    +0.000 A 
ATOM     20  C   UNL     1       8.144   6.690  18.737  0.00  0.00    +0.000 A 
ENDBRANCH  12  18
ENDBRANCH   1  12
TORSDOF 2
ENDMDL
MODEL 3
REMARK VINA RESULT:      -7.4      6.520      7.846
REMARK  Name = 
REMARK  3 active torsions:
REMARK  status: ('A' for Active; 'I' for Inactive)
REMARK    1  A    between atoms: C_1  and  C_2
REMARK    2  A    between atoms: C_5  and  N_6
REMARK    3  A    between atoms: N_6  and  N_7
REMARK                            x       y       z     vdW  Elec       q    Type
REMARK                         _______ _______ _______ _____ _____    ______ ____
ROOT
ATOM      1  N   UNL     1       1.778   8.530  19.377  0.00  0.00    +0.000 NA
ATOM      2  C   UNL     1       1.298   9.365  20.247  0.00  0.00    +0.000 C 
ATOM      3  S   UNL     1       1.027   9.066  21.957  0.00  0.00    +0.000 S 
ATOM      4  C   UNL     1      -0.148  10.344  22.146  0.00  0.00    +0.000 A 
ATOM      5  C   UNL     1      -1.057  10.485  23.181  0.00  0.00    +0.000 A 
ATOM      6  C   UNL     1      -1.854  11.627  23.214  0.00  0.00    +0.000 A 
ATOM      7  C   UNL     1      -1.698  12.627  22.241  0.00  0.00    +0.000 A 
ATOM      8  C   UNL     1      -0.807  12.452  21.174  0.00  0.00    +0.000 A 
ATOM      9  C   UNL     1      -0.082  11.269  21.120  0.00  0.00    +0.000 A 
ATOM     10  C   UNL     1       0.792  10.786  20.034  0.00  0.00    +0.000 C 
ATOM     11  O   UNL     1       1.081  11.472  19.066  0.00  0.00    +0.000 OA
ENDROOT
BRANCH   1  12
ATOM     12  N   UNL     1       2.332   7.441  19.985  0.00  0.00    +0.000 N 
ATOM     13  H   UNL     1       3.216   7.596  20.470  0.00  0.00    +0.000 HD
BRANCH  12  18
ATOM     14  C   UNL     1       0.924   2.027  18.789  0.00  0.00    +0.000 C 
ATOM     15  C   UNL     1       1.367   3.430  19.082  0.00  0.00    +0.000 A 
ATOM     16  C   UNL     1       1.219   3.949  20.367  0.00  0.00    +0.000 A 
ATOM     17  C   UNL     1       1.582   5.267  20.630  0.00  0.00    +0.000 A 
ATOM     18  C   UNL     1       2.118   6.103  19.635  0.00  0.00    +0.000 A 
ATOM     19  C   UNL     1       2.287   5.577  18.356  0.00  0.00    +0.000 A 
ATOM     20  C   UNL     1       1.907   4.250  18.080  0.00  0.00    +0.000 A 
ENDBRANCH  12  18
ENDBRANCH   1  12
TORSDOF 2
ENDMDL
MODEL 4
REMARK VINA RESULT:      -7.4      2.874      3.804
REMARK  Name = 
REMARK  3 active torsions:
REMARK  status: ('A' for Active; 'I' for Inactive)
REMARK    1  A    between atoms: C_1  and  C_2
REMARK    2  A    between atoms: C_5  and  N_6
REMARK    3  A    between atoms: N_6  and  N_7
REMARK                            x       y       z     vdW  Elec       q    Type
REMARK                         _______ _______ _______ _____ _____    ______ ____
ROOT
ATOM      1  N   UNL     1       4.706   6.446  16.960  0.00  0.00    +0.000 NA
ATOM      2  C   UNL     1       4.329   5.835  18.041  0.00  0.00    +0.000 C 
ATOM      3  S   UNL     1       5.077   4.422  18.770  0.00  0.00    +0.000 S 
ATOM      4  C   UNL     1       3.655   3.947  19.666  0.00  0.00    +0.000 A 
ATOM      5  C   UNL     1       3.405   2.704  20.220  0.00  0.00    +0.000 A 
ATOM      6  C   UNL     1       2.254   2.539  20.987  0.00  0.00    +0.000 A 
ATOM      7  C   UNL     1       1.398   3.627  21.223  0.00  0.00    +0.000 A 
ATOM      8  C   UNL     1       1.639   4.868  20.619  0.00  0.00    +0.000 A 
ATOM      9  C   UNL     1       2.750   4.985  19.794  0.00  0.00    +0.000 A 
ATOM     10  C   UNL     1       3.129   6.122  18.935  0.00  0.00    +0.000 C 
ATOM     11  O   UNL     1       2.534   7.189  18.952  0.00  0.00    +0.000 OA
ENDROOT
BRANCH   1  12
ATOM     12  N   UNL     1       5.950   6.044  16.570  0.00  0.00    +0.000 N 
ATOM     13  H   UNL     1       6.733   6.600  16.912  0.00  0.00    +0.000 HD
BRANCH  12  18
ATOM     14  C   UNL     1       6.669   3.177  11.671  0.00  0.00    +0.000 C 
ATOM     15  C   UNL     1       6.546   3.894  12.983  0.00  0.00    +0.000 A 
ATOM     16  C   UNL     1       5.409   3.710  13.769  0.00  0.00    +0.000 A 
ATOM     17  C   UNL     1       5.270   4.412  14.963  0.00  0.00    +0.000 A 
ATOM     18  C   UNL     1       6.255   5.305  15.421  0.00  0.00    +0.000 A 
ATOM     19  C   UNL     1       7.401   5.471  14.646  0.00  0.00    +0.000 A 
ATOM     20  C   UNL     1       7.541   4.776  13.430  0.00  0.00    +0.000 A 
ENDBRANCH  12  18
ENDBRANCH   1  12
TORSDOF 2
ENDMDL
MODEL 5
REMARK VINA RESULT:      -7.3      3.000      3.887
REMARK  Name = 
REMARK  3 active torsions:
REMARK  status: ('A' for Active; 'I' for Inactive)
REMARK    1  A    between atoms: C_1  and  C_2
REMARK    2  A    between atoms: C_5  and  N_6
REMARK    3  A    between atoms: N_6  and  N_7
REMARK                            x       y       z     vdW  Elec       q    Type
REMARK                         _______ _______ _______ _____ _____    ______ ____
ROOT
ATOM      1  N   UNL     1       4.662   6.379  16.818  0.00  0.00    +0.000 NA
ATOM      2  C   UNL     1       4.253   5.724  17.861  0.00  0.00    +0.000 C 
ATOM      3  S   UNL     1       4.835   4.164  18.422  0.00  0.00    +0.000 S 
ATOM      4  C   UNL     1       3.402   3.796  19.351  0.00  0.00    +0.000 A 
ATOM      5  C   UNL     1       3.012   2.550  19.808  0.00  0.00    +0.000 A 
ATOM      6  C   UNL     1       1.883   2.465  20.620  0.00  0.00    +0.000 A 
ATOM      7  C   UNL     1       1.192   3.627  20.996  0.00  0.00    +0.000 A 
ATOM      8  C   UNL     1       1.571   4.877  20.490  0.00  0.00    +0.000 A 
ATOM      9  C   UNL     1       2.651   4.926  19.619  0.00  0.00    +0.000 A 
ATOM     10  C   UNL     1       3.142   6.080  18.841  0.00  0.00    +0.000 C 
ATOM     11  O   UNL     1       2.697   7.208  18.984  0.00  0.00    +0.000 OA
ENDROOT
BRANCH   1  12
ATOM     12  N   UNL     1       5.823   5.857  16.327  0.00  0.00    +0.000 N 
ATOM     13  H   UNL     1       6.688   6.261  16.686  0.00  0.00    +0.000 HD
BRANCH  12  18
ATOM     14  C   UNL     1       6.982   3.040  11.484  0.00  0.00    +0.000 C 
ATOM     15  C   UNL     1       6.618   3.813  12.718  0.00  0.00    +0.000 A 
ATOM     16  C   UNL     1       7.537   4.700  13.277  0.00  0.00    +0.000 A 
ATOM     17  C   UNL     1       7.220   5.380  14.449  0.00  0.00    +0.000 A 
ATOM     18  C   UNL     1       5.981   5.216  15.093  0.00  0.00    +0.000 A 
ATOM     19  C   UNL     1       5.054   4.347  14.521  0.00  0.00    +0.000 A 
ATOM     20  C   UNL     1       5.374   3.644  13.344  0.00  0.00    +0.000 A 
ENDBRANCH  12  18
ENDBRANCH   1  12
TORSDOF 2
ENDMDL
MODEL 6
REMARK VINA RESULT:      -7.3      5.888      6.427
REMARK  Name = 
REMARK  3 active torsions:
REMARK  status: ('A' for Active; 'I' for Inactive)
REMARK    1  A    between atoms: C_1  and  C_2
REMARK    2  A    between atoms: C_5  and  N_6
REMARK    3  A    between atoms: N_6  and  N_7
REMARK                            x       y       z     vdW  Elec       q    Type
REMARK                         _______ _______ _______ _____ _____    ______ ____
ROOT
ATOM      1  N   UNL     1       1.843   8.230  18.314  0.00  0.00    +0.000 NA
ATOM      2  C   UNL     1       1.537   8.881  19.393  0.00  0.00    +0.000 C 
ATOM      3  S   UNL     1       1.416   8.229  21.020  0.00  0.00    +0.000 S 
ATOM      4  C   UNL     1       0.393   9.512  21.618  0.00  0.00    +0.000 A 
ATOM      5  C   UNL     1      -0.387   9.481  22.761  0.00  0.00    +0.000 A 
ATOM      6  C   UNL     1      -1.064  10.641  23.134  0.00  0.00    +0.000 A 
ATOM      7  C   UNL     1      -0.915  11.819  22.385  0.00  0.00    +0.000 A 
ATOM      8  C   UNL     1      -0.159  11.824  21.205  0.00  0.00    +0.000 A 
ATOM      9  C   UNL     1       0.441  10.635  20.813  0.00  0.00    +0.000 A 
ATOM     10  C   UNL     1       1.149  10.346  19.551  0.00  0.00    +0.000 C 
ATOM     11  O   UNL     1       1.400  11.209  18.724  0.00  0.00    +0.000 OA
ENDROOT
BRANCH   1  12
ATOM     12  N   UNL     1       2.351   6.997  18.604  0.00  0.00    +0.000 N 
ATOM     13  H   UNL     1       2.296   6.704  19.579  0.00  0.00    +0.000 HD
BRANCH  12  18
ATOM     14  C   UNL     1       5.933   3.953  15.343  0.00  0.00    +0.000 C 
ATOM     15  C   UNL     1       5.056   4.774  16.241  0.00  0.00    +0.000 A 
ATOM     16  C   UNL     1       4.031   4.159  16.960  0.00  0.00    +0.000 A 
ATOM     17  C   UNL     1       3.184   4.926  17.754  0.00  0.00    +0.000 A 
ATOM     18  C   UNL     1       3.334   6.318  17.874  0.00  0.00    +0.000 A 
ATOM     19  C   UNL     1       4.372   6.929  17.174  0.00  0.00    +0.000 A 
ATOM     20  C   UNL     1       5.223   6.162  16.356  0.00  0.00    +0.000 A 
ENDBRANCH  12  18
ENDBRANCH   1  12
TORSDOF 2
ENDMDL
MODEL 7
REMARK VINA RESULT:      -7.3      5.826      6.397
REMARK  Name = 
REMARK  3 active torsions:
REMARK  status: ('A' for Active; 'I' for Inactive)
REMARK    1  A    between atoms: C_1  and  C_2
REMARK    2  A    between atoms: C_5  and  N_6
REMARK    3  A    between atoms: N_6  and  N_7
REMARK                            x       y       z     vdW  Elec       q    Type
REMARK                         _______ _______ _______ _____ _____    ______ ____
ROOT
ATOM      1  N   UNL     1       1.890   8.143  18.371  0.00  0.00    +0.000 NA
ATOM      2  C   UNL     1       1.563   8.807  19.437  0.00  0.00    +0.000 C 
ATOM      3  S   UNL     1       1.474   8.188  21.079  0.00  0.00    +0.000 S 
ATOM      4  C   UNL     1       0.404   9.443  21.653  0.00  0.00    +0.000 A 
ATOM      5  C   UNL     1      -0.369   9.409  22.800  0.00  0.00    +0.000 A 
ATOM      6  C   UNL     1      -1.090  10.549  23.149  0.00  0.00    +0.000 A 
ATOM      7  C   UNL     1      -0.990  11.714  22.372  0.00  0.00    +0.000 A 
ATOM      8  C   UNL     1      -0.239  11.722  21.190  0.00  0.00    +0.000 A 
ATOM      9  C   UNL     1       0.405  10.548  20.821  0.00  0.00    +0.000 A 
ATOM     10  C   UNL     1       1.119  10.258  19.563  0.00  0.00    +0.000 C 
ATOM     11  O   UNL     1       1.333  11.111  18.715  0.00  0.00    +0.000 OA
ENDROOT
BRANCH   1  12
ATOM     12  N   UNL     1       2.447   6.938  18.687  0.00  0.00    +0.000 N 
ATOM     13  H   UNL     1       2.613   6.763  19.677  0.00  0.00    +0.000 HD
BRANCH  12  18
ATOM     14  C   UNL     1       6.149   3.964  15.495  0.00  0.00    +0.000 C 
ATOM     15  C   UNL     1       5.120   4.718  16.285  0.00  0.00    +0.000 A 
ATOM     16  C   UNL     1       5.209   6.106  16.392  0.00  0.00    +0.000 A 
ATOM     17  C   UNL     1       4.285   6.802  17.166  0.00  0.00    +0.000 A 
ATOM     18  C   UNL     1       3.239   6.150  17.843  0.00  0.00    +0.000 A 
ATOM     19  C   UNL     1       3.137   4.766  17.717  0.00  0.00    +0.000 A 
ATOM     20  C   UNL     1       4.078   4.054  16.949  0.00  0.00    +0.000 A 
ENDBRANCH  12  18
ENDBRANCH   1  12
TORSDOF 2
ENDMDL
MODEL 8
REMARK VINA RESULT:      -7.2      3.264      6.631
REMARK  Name = 
REMARK  3 active torsions:
REMARK  status: ('A' for Active; 'I' for Inactive)
REMARK    1  A    between atoms: C_1  and  C_2
REMARK    2  A    between atoms: C_5  and  N_6
REMARK    3  A    between atoms: N_6  and  N_7
REMARK                            x       y       z     vdW  Elec       q    Type
REMARK                         _______ _______ _______ _____ _____    ______ ____
ROOT
ATOM      1  N   UNL     1       6.647   4.345  18.098  0.00  0.00    +0.000 NA
ATOM      2  C   UNL     1       6.456   4.488  16.822  0.00  0.00    +0.000 C 
ATOM      3  S   UNL     1       5.306   3.612  15.823  0.00  0.00    +0.000 S 
ATOM      4  C   UNL     1       6.148   3.920  14.324  0.00  0.00    +0.000 A 
ATOM      5  C   UNL     1       5.989   3.235  13.132  0.00  0.00    +0.000 A 
ATOM      6  C   UNL     1       6.679   3.687  12.010  0.00  0.00    +0.000 A 
ATOM      7  C   UNL     1       7.478   4.839  12.087  0.00  0.00    +0.000 A 
ATOM      8  C   UNL     1       7.667   5.496  13.309  0.00  0.00    +0.000 A 
ATOM      9  C   UNL     1       7.031   4.978  14.431  0.00  0.00    +0.000 A 
ATOM     10  C   UNL     1       7.190   5.389  15.838  0.00  0.00    +0.000 C 
ATOM     11  O   UNL     1       7.846   6.366  16.169  0.00  0.00    +0.000 OA
ENDROOT
BRANCH   1  12
ATOM     12  N   UNL     1       5.647   3.617  18.672  0.00  0.00    +0.000 N 
ATOM     13  H   UNL     1       5.516   2.670  18.318  0.00  0.00    +0.000 HD
BRANCH  12  18
ATOM     14  C   UNL     1       0.885   6.009  20.755  0.00  0.00    +0.000 C 
ATOM     15  C   UNL     1       2.152   5.359  20.281  0.00  0.00    +0.000 A 
ATOM     16  C   UNL     1       3.133   6.126  19.657  0.00  0.00    +0.000 A 
ATOM     17  C   UNL     1       4.287   5.516  19.172  0.00  0.00    +0.000 A 
ATOM     18  C   UNL     1       4.510   4.135  19.304  0.00  0.00    +0.000 A 
ATOM     19  C   UNL     1       3.539   3.372  19.949  0.00  0.00    +0.000 A 
ATOM     20  C   UNL     1       2.363   3.979  20.428  0.00  0.00    +0.000 A 
ENDBRANCH  12  18
ENDBRANCH   1  12
TORSDOF 2
ENDMDL
MODEL 9
REMARK VINA RESULT:      -7.2      5.599      6.600
REMARK  Name = 
REMARK  3 active torsions:
REMARK  status: ('A' for Active; 'I' for Inactive)
REMARK    1  A    between atoms: C_1  and  C_2
REMARK    2  A    between atoms: C_5  and  N_6
REMARK    3  A    between atoms: N_6  and  N_7
REMARK                            x       y       z     vdW  Elec       q    Type
REMARK                         _______ _______ _______ _____ _____    ______ ____
ROOT
ATOM      1  N   UNL     1       2.285   7.655  20.182  0.00  0.00    +0.000 NA
ATOM      2  C   UNL     1       2.213   6.461  19.680  0.00  0.00    +0.000 C 
ATOM      3  S   UNL     1       1.393   5.071  20.375  0.00  0.00    +0.000 S 
ATOM      4  C   UNL     1       2.316   3.890  19.478  0.00  0.00    +0.000 A 
ATOM      5  C   UNL     1       2.439   2.543  19.771  0.00  0.00    +0.000 A 
ATOM      6  C   UNL     1       3.142   1.733  18.881  0.00  0.00    +0.000 A 
ATOM      7  C   UNL     1       3.668   2.272  17.697  0.00  0.00    +0.000 A 
ATOM      8  C   UNL     1       3.575   3.645  17.435  0.00  0.00    +0.000 A 
ATOM      9  C   UNL     1       2.939   4.445  18.376  0.00  0.00    +0.000 A 
ATOM     10  C   UNL     1       2.849   5.917  18.407  0.00  0.00    +0.000 C 
ATOM     11  O   UNL     1       3.243   6.621  17.489  0.00  0.00    +0.000 OA
ENDROOT
BRANCH   1  12
ATOM     12  N   UNL     1       1.401   7.817  21.208  0.00  0.00    +0.000 N 
ATOM     13  H   UNL     1       0.957   6.969  21.561  0.00  0.00    +0.000 HD
BRANCH  12  18
ATOM     14  C   UNL     1      -1.317  12.542  22.944  0.00  0.00    +0.000 C 
ATOM     15  C   UNL     1      -0.648  11.305  22.423  0.00  0.00    +0.000 A 
ATOM     16  C   UNL     1      -0.735  10.114  23.143  0.00  0.00    +0.000 A 
ATOM     17  C   UNL     1      -0.072   8.978  22.688  0.00  0.00    +0.000 A 
ATOM     18  C   UNL     1       0.681   8.981  21.501  0.00  0.00    +0.000 A 
ATOM     19  C   UNL     1       0.749  10.165  20.770  0.00  0.00    +0.000 A 
ATOM     20  C   UNL     1       0.095  11.323  21.233  0.00  0.00    +0.000 A 
ENDBRANCH  12  18
ENDBRANCH   1  12
TORSDOF 2
ENDMDL
