MODEL 1
REMARK VINA RESULT:      -7.5      0.000      0.000
REMARK  Name = 
REMARK  8 active torsions:
REMARK  status: ('A' for Active; 'I' for Inactive)
REMARK    1  A    between atoms: C_2  and  C_3
REMARK    2  A    between atoms: C_3  and  N_4
REMARK    3  A    between atoms: N_7  and  C_8
REMARK    4  A    between atoms: C_8  and  C_9
REMARK    5  A    between atoms: C_9  and  C_11
REMARK    6  A    between atoms: C_11  and  O_12
REMARK    7  A    between atoms: C_11  and  C_13
REMARK    8  A    between atoms: C_11  and  C_19
REMARK                            x       y       z     vdW  Elec       q    Type
REMARK                         _______ _______ _______ _____ _____    ______ ____
ROOT
ATOM      1  C   UNL     1       1.937   8.085  20.073  0.00  0.00    +0.000 C 
ENDROOT
BRANCH   1   5
ATOM      2  N   UNL     1       0.544  10.967  21.968  0.00  0.00    +0.000 NA
ATOM      3  C   UNL     1       0.666   9.574  22.453  0.00  0.00    +0.000 C 
ATOM      4  C   UNL     1       0.043   8.518  21.507  0.00  0.00    +0.000 C 
ATOM      5  N   UNL     1       0.547   8.591  20.116  0.00  0.00    +0.000 NA
ATOM      6  C   UNL     1       0.432   9.988  19.636  0.00  0.00    +0.000 C 
ATOM      7  C   UNL     1       1.035  11.050  20.581  0.00  0.00    +0.000 C 
BRANCH   2   8
ATOM      8  C   UNL     1      -0.857  11.446  22.052  0.00  0.00    +0.000 C 
BRANCH   8  10
ATOM      9  O   UNL     1       0.076  13.588  22.636  0.00  0.00    +0.000 OA
ATOM     10  C   UNL     1      -0.899  12.836  22.694  0.00  0.00    +0.000 C 
ATOM     11  N   UNL     1      -2.089  13.210  23.275  0.00  0.00    +0.000 N 
ATOM     12  C   UNL     1      -2.324  14.551  23.757  0.00  0.00    +0.000 C 
ATOM     13  C   UNL     1      -3.298  14.334  24.899  0.00  0.00    +0.000 C 
ATOM     14  C   UNL     1      -4.173  13.194  24.385  0.00  0.00    +0.000 C 
ATOM     15  C   UNL     1      -3.221  12.339  23.554  0.00  0.00    +0.000 C 
ENDBRANCH   8  10
ENDBRANCH   2   8
ENDBRANCH   1   5
BRANCH   1  16
ATOM     16  C   UNL     1       2.335   7.482  18.727  0.00  0.00    +0.000 C 
ATOM     17  O   UNL     1       1.987   7.948  17.637  0.00  0.00    +0.000 OA
BRANCH  16  18
ATOM     18  C   UNL     1       3.150   6.157  18.800  0.00  0.00    +0.000 C 
BRANCH  18  19
ATOM     19  C   UNL     1       2.245   4.976  19.185  0.00  0.00    +0.000 A 
ATOM     20  C   UNL     1       2.045   4.588  20.527  0.00  0.00    +0.000 A 
ATOM     21  C   UNL     1       1.273   3.474  20.857  0.00  0.00    +0.000 A 
ATOM     22  C   UNL     1       0.672   2.724  19.854  0.00  0.00    +0.000 A 
ATOM     23  C   UNL     1       0.848   3.085  18.522  0.00  0.00    +0.000 A 
ATOM     24  C   UNL     1       1.632   4.195  18.189  0.00  0.00    +0.000 A 
ENDBRANCH  18  19
BRANCH  18  25
ATOM     25  C   UNL     1       3.826   5.921  17.435  0.00  0.00    +0.000 C 
ATOM     26  C   UNL     1       5.087   6.803  17.142  0.00  0.00    +0.000 C 
ATOM     27  C   UNL     1       5.601   5.644  16.269  0.00  0.00    +0.000 C 
ATOM     28  C   UNL     1       4.767   4.704  17.166  0.00  0.00    +0.000 C 
ENDBRANCH  18  25
BRANCH  18  29
ATOM     29  O   UNL     1       4.180   6.269  19.793  0.00  0.00    +0.000 OA
ATOM     30  H   UNL     1       4.111   5.500  20.387  0.00  0.00    +0.000 HD
ENDBRANCH  18  29
ENDBRANCH  16  18
ENDBRANCH   1  16
TORSDOF 8
ENDMDL
MODEL 2
REMARK VINA RESULT:      -7.4      1.046      2.962
REMARK  Name = 
REMARK  8 active torsions:
REMARK  status: ('A' for Active; 'I' for Inactive)
REMARK    1  A    between atoms: C_2  and  C_3
REMARK    2  A    between atoms: C_3  and  N_4
REMARK    3  A    between atoms: N_7  and  C_8
REMARK    4  A    between atoms: C_8  and  C_9
REMARK    5  A    between atoms: C_9  and  C_11
REMARK    6  A    between atoms: C_11  and  O_12
REMARK    7  A    between atoms: C_11  and  C_13
REMARK    8  A    between atoms: C_11  and  C_19
REMARK                            x       y       z     vdW  Elec       q    Type
REMARK                         _______ _______ _______ _____ _____    ______ ____
ROOT
ATOM      1  C   UNL     1       2.016   7.712  20.258  0.00  0.00    +0.000 C 
ENDROOT
BRANCH   1   5
ATOM      2  N   UNL     1       0.608  10.708  21.955  0.00  0.00    +0.000 NA
ATOM      3  C   UNL     1       0.690   9.339  22.514  0.00  0.00    +0.000 C 
ATOM      4  C   UNL     1       0.082   8.246  21.602  0.00  0.00    +0.000 C 
ATOM      5  N   UNL     1       0.634   8.239  20.227  0.00  0.00    +0.000 NA
ATOM      6  C   UNL     1       0.558   9.612  19.674  0.00  0.00    +0.000 C 
ATOM      7  C   UNL     1       1.147  10.712  20.584  0.00  0.00    +0.000 C 
BRANCH   2   8
ATOM      8  C   UNL     1      -0.787  11.212  21.967  0.00  0.00    +0.000 C 
BRANCH   8  10
ATOM      9  O   UNL     1       0.130  13.409  22.323  0.00  0.00    +0.000 OA
ATOM     10  C   UNL     1      -0.823  12.646  22.499  0.00  0.00    +0.000 C 
ATOM     11  N   UNL     1      -1.984  13.044  23.122  0.00  0.00    +0.000 N 
ATOM     12  C   UNL     1      -2.220  14.415  23.511  0.00  0.00    +0.000 C 
ATOM     13  C   UNL     1      -3.119  14.271  24.724  0.00  0.00    +0.000 C 
ATOM     14  C   UNL     1      -3.997  13.078  24.354  0.00  0.00    +0.000 C 
ATOM     15  C   UNL     1      -3.076  12.178  23.536  0.00  0.00    +0.000 C 
ENDBRANCH   8  10
ENDBRANCH   2   8
ENDBRANCH   1   5
BRANCH   1  16
ATOM     16  C   UNL     1       2.511   7.194  18.909  0.00  0.00    +0.000 C 
ATOM     17  O   UNL     1       2.732   7.922  17.935  0.00  0.00    +0.000 OA
BRANCH  16  18
ATOM     18  C   UNL     1       2.641   5.647  18.790  0.00  0.00    +0.000 C 
BRANCH  18  19
ATOM     19  C   UNL     1       4.059   5.248  18.347  0.00  0.00    +0.000 A 
ATOM     20  C   UNL     1       5.206   5.614  19.082  0.00  0.00    +0.000 A 
ATOM     21  C   UNL     1       6.490   5.301  18.633  0.00  0.00    +0.000 A 
ATOM     22  C   UNL     1       6.659   4.605  17.443  0.00  0.00    +0.000 A 
ATOM     23  C   UNL     1       5.545   4.227  16.699  0.00  0.00    +0.000 A 
ATOM     24  C   UNL     1       4.257   4.552  17.142  0.00  0.00    +0.000 A 
ENDBRANCH  18  19
BRANCH  18  25
ATOM     25  C   UNL     1       2.284   5.019  20.152  0.00  0.00    +0.000 C 
ATOM     26  C   UNL     1       0.889   4.310  20.225  0.00  0.00    +0.000 C 
ATOM     27  C   UNL     1       1.502   3.382  21.289  0.00  0.00    +0.000 C 
ATOM     28  C   UNL     1       2.868   3.649  20.621  0.00  0.00    +0.000 C 
ENDBRANCH  18  25
BRANCH  18  29
ATOM     29  O   UNL     1       1.715   5.150  17.814  0.00  0.00    +0.000 OA
ATOM     30  H   UNL     1       1.004   5.807  17.712  0.00  0.00    +0.000 HD
ENDBRANCH  18  29
ENDBRANCH  16  18
ENDBRANCH   1  16
TORSDOF 8
ENDMDL
MODEL 3
REMARK VINA RESULT:      -7.2      1.516      3.335
REMARK  Name = 
REMARK  8 active torsions:
REMARK  status: ('A' for Active; 'I' for Inactive)
REMARK    1  A    between atoms: C_2  and  C_3
REMARK    2  A    between atoms: C_3  and  N_4
REMARK    3  A    between atoms: N_7  and  C_8
REMARK    4  A    between atoms: C_8  and  C_9
REMARK    5  A    between atoms: C_9  and  C_11
REMARK    6  A    between atoms: C_11  and  O_12
REMARK    7  A    between atoms: C_11  and  C_13
REMARK    8  A    between atoms: C_11  and  C_19
REMARK                            x       y       z     vdW  Elec       q    Type
REMARK                         _______ _______ _______ _____ _____    ______ ____
ROOT
ATOM      1  C   UNL     1       1.567   7.397  20.208  0.00  0.00    +0.000 C 
ENDROOT
BRANCH   1   5
ATOM      2  N   UNL     1      -0.862  10.013  21.254  0.00  0.00    +0.000 NA
ATOM      3  C   UNL     1      -0.378   9.764  19.877  0.00  0.00    +0.000 C 
ATOM      4  C   UNL     1       1.164   9.732  19.745  0.00  0.00    +0.000 C 
ATOM      5  N   UNL     1       1.824   8.779  20.668  0.00  0.00    +0.000 NA
ATOM      6  C   UNL     1       1.331   9.025  22.043  0.00  0.00    +0.000 C 
ATOM      7  C   UNL     1      -0.206   9.076  22.182  0.00  0.00    +0.000 C 
BRANCH   2   8
ATOM      8  C   UNL     1      -0.612  11.415  21.668  0.00  0.00    +0.000 C 
BRANCH   8  10
ATOM      9  O   UNL     1      -1.873  12.839  20.192  0.00  0.00    +0.000 OA
ATOM     10  C   UNL     1      -1.808  12.294  21.296  0.00  0.00    +0.000 C 
ATOM     11  N   UNL     1      -2.816  12.388  22.228  0.00  0.00    +0.000 N 
ATOM     12  C   UNL     1      -4.076  13.035  21.939  0.00  0.00    +0.000 C 
ATOM     13  C   UNL     1      -4.501  13.565  23.295  0.00  0.00    +0.000 C 
ATOM     14  C   UNL     1      -4.034  12.469  24.249  0.00  0.00    +0.000 C 
ATOM     15  C   UNL     1      -2.753  11.941  23.611  0.00  0.00    +0.000 C 
ENDBRANCH   8  10
ENDBRANCH   2   8
ENDBRANCH   1   5
BRANCH   1  16
ATOM     16  C   UNL     1       2.448   6.959  19.039  0.00  0.00    +0.000 C 
ATOM     17  O   UNL     1       2.940   7.743  18.220  0.00  0.00    +0.000 OA
BRANCH  16  18
ATOM     18  C   UNL     1       2.626   5.421  18.872  0.00  0.00    +0.000 C 
BRANCH  18  19
ATOM     19  C   UNL     1       4.057   5.080  18.426  0.00  0.00    +0.000 A 
ATOM     20  C   UNL     1       5.187   5.426  19.197  0.00  0.00    +0.000 A 
ATOM     21  C   UNL     1       6.482   5.168  18.748  0.00  0.00    +0.000 A 
ATOM     22  C   UNL     1       6.682   4.548  17.522  0.00  0.00    +0.000 A 
ATOM     23  C   UNL     1       5.586   4.191  16.742  0.00  0.00    +0.000 A 
ATOM     24  C   UNL     1       4.286   4.461  17.185  0.00  0.00    +0.000 A 
ENDBRANCH  18  19
BRANCH  18  25
ATOM     25  C   UNL     1       2.280   4.739  20.211  0.00  0.00    +0.000 C 
ATOM     26  C   UNL     1       0.881   4.036  20.270  0.00  0.00    +0.000 C 
ATOM     27  C   UNL     1       1.500   3.061  21.288  0.00  0.00    +0.000 C 
ATOM     28  C   UNL     1       2.860   3.347  20.615  0.00  0.00    +0.000 C 
ENDBRANCH  18  25
BRANCH  18  29
ATOM     29  O   UNL     1       1.721   4.928  17.874  0.00  0.00    +0.000 OA
ATOM     30  H   UNL     1       1.553   3.986  18.059  0.00  0.00    +0.000 HD
ENDBRANCH  18  29
ENDBRANCH  16  18
ENDBRANCH   1  16
TORSDOF 8
ENDMDL
MODEL 4
REMARK VINA RESULT:      -7.1      1.083      1.440
REMARK  Name = 
REMARK  8 active torsions:
REMARK  status: ('A' for Active; 'I' for Inactive)
REMARK    1  A    between atoms: C_2  and  C_3
REMARK    2  A    between atoms: C_3  and  N_4
REMARK    3  A    between atoms: N_7  and  C_8
REMARK    4  A    between atoms: C_8  and  C_9
REMARK    5  A    between atoms: C_9  and  C_11
REMARK    6  A    between atoms: C_11  and  O_12
REMARK    7  A    between atoms: C_11  and  C_13
REMARK    8  A    between atoms: C_11  and  C_19
REMARK                            x       y       z     vdW  Elec       q    Type
REMARK                         _______ _______ _______ _____ _____    ______ ____
ROOT
ATOM      1  C   UNL     1       1.939   8.115  20.082  0.00  0.00    +0.000 C 
ENDROOT
BRANCH   1   5
ATOM      2  N   UNL     1       0.445  10.804  22.174  0.00  0.00    +0.000 NA
ATOM      3  C   UNL     1       0.667   9.398  22.579  0.00  0.00    +0.000 C 
ATOM      4  C   UNL     1       0.075   8.356  21.598  0.00  0.00    +0.000 C 
ATOM      5  N   UNL     1       0.524   8.531  20.197  0.00  0.00    +0.000 NA
ATOM      6  C   UNL     1       0.308   9.942  19.798  0.00  0.00    +0.000 C 
ATOM      7  C   UNL     1       0.880  10.988  20.779  0.00  0.00    +0.000 C 
BRANCH   2   8
ATOM      8  C   UNL     1      -0.978  11.191  22.329  0.00  0.00    +0.000 C 
BRANCH   8  10
ATOM      9  O   UNL     1      -0.277  13.299  23.257  0.00  0.00    +0.000 OA
ATOM     10  C   UNL     1      -1.091  12.702  22.549  0.00  0.00    +0.000 C 
ATOM     11  N   UNL     1      -2.098  13.350  21.872  0.00  0.00    +0.000 N 
ATOM     12  C   UNL     1      -2.209  14.790  21.847  0.00  0.00    +0.000 C 
ATOM     13  C   UNL     1      -3.703  15.011  21.710  0.00  0.00    +0.000 C 
ATOM     14  C   UNL     1      -4.131  13.871  20.790  0.00  0.00    +0.000 C 
ATOM     15  C   UNL     1      -3.205  12.720  21.169  0.00  0.00    +0.000 C 
ENDBRANCH   8  10
ENDBRANCH   2   8
ENDBRANCH   1   5
BRANCH   1  16
ATOM     16  C   UNL     1       2.292   7.488  18.735  0.00  0.00    +0.000 C 
ATOM     17  O   UNL     1       1.869   7.906  17.652  0.00  0.00    +0.000 OA
BRANCH  16  18
ATOM     18  C   UNL     1       3.167   6.201  18.802  0.00  0.00    +0.000 C 
BRANCH  18  19
ATOM     19  C   UNL     1       2.311   4.974  19.158  0.00  0.00    +0.000 A 
ATOM     20  C   UNL     1       1.642   4.215  18.175  0.00  0.00    +0.000 A 
ATOM     21  C   UNL     1       0.816   3.144  18.519  0.00  0.00    +0.000 A 
ATOM     22  C   UNL     1       0.647   2.798  19.853  0.00  0.00    +0.000 A 
ATOM     23  C   UNL     1       1.298   3.526  20.844  0.00  0.00    +0.000 A 
ATOM     24  C   UNL     1       2.117   4.609  20.501  0.00  0.00    +0.000 A 
ENDBRANCH  18  19
BRANCH  18  25
ATOM     25  C   UNL     1       3.872   6.016  17.443  0.00  0.00    +0.000 C 
ATOM     26  C   UNL     1       5.125   6.924  17.202  0.00  0.00    +0.000 C 
ATOM     27  C   UNL     1       5.672   5.800  16.305  0.00  0.00    +0.000 C 
ATOM     28  C   UNL     1       4.835   4.821  17.157  0.00  0.00    +0.000 C 
ENDBRANCH  18  25
BRANCH  18  29
ATOM     29  O   UNL     1       4.176   6.346  19.811  0.00  0.00    +0.000 OA
ATOM     30  H   UNL     1       4.697   5.523  19.836  0.00  0.00    +0.000 HD
ENDBRANCH  18  29
ENDBRANCH  16  18
ENDBRANCH   1  16
TORSDOF 8
ENDMDL
MODEL 5
REMARK VINA RESULT:      -7.0      3.337      9.279
REMARK  Name = 
REMARK  8 active torsions:
REMARK  status: ('A' for Active; 'I' for Inactive)
REMARK    1  A    between atoms: C_2  and  C_3
REMARK    2  A    between atoms: C_3  and  N_4
REMARK    3  A    between atoms: N_7  and  C_8
REMARK    4  A    between atoms: C_8  and  C_9
REMARK    5  A    between atoms: C_9  and  C_11
REMARK    6  A    between atoms: C_11  and  O_12
REMARK    7  A    between atoms: C_11  and  C_13
REMARK    8  A    between atoms: C_11  and  C_19
REMARK                            x       y       z     vdW  Elec       q    Type
REMARK                         _______ _______ _______ _____ _____    ______ ____
ROOT
ATOM      1  C   UNL     1       2.035   7.923  19.210  0.00  0.00    +0.000 C 
ENDROOT
BRANCH   1   5
ATOM      2  N   UNL     1       4.406   5.078  19.558  0.00  0.00    +0.000 NA
ATOM      3  C   UNL     1       4.713   6.413  18.996  0.00  0.00    +0.000 C 
ATOM      4  C   UNL     1       3.747   6.864  17.874  0.00  0.00    +0.000 C 
ATOM      5  N   UNL     1       2.317   6.821  18.263  0.00  0.00    +0.000 NA
ATOM      6  C   UNL     1       2.016   5.486  18.833  0.00  0.00    +0.000 C 
ATOM      7  C   UNL     1       2.985   5.020  19.941  0.00  0.00    +0.000 C 
BRANCH   2   8
ATOM      8  C   UNL     1       4.728   4.000  18.591  0.00  0.00    +0.000 C 
BRANCH   8  10
ATOM      9  O   UNL     1       7.089   4.469  18.610  0.00  0.00    +0.000 OA
ATOM     10  C   UNL     1       6.081   4.275  17.929  0.00  0.00    +0.000 C 
ATOM     11  N   UNL     1       6.113   4.231  16.554  0.00  0.00    +0.000 N 
ATOM     12  C   UNL     1       7.350   4.295  15.809  0.00  0.00    +0.000 C 
ATOM     13  C   UNL     1       6.928   4.958  14.512  0.00  0.00    +0.000 C 
ATOM     14  C   UNL     1       5.540   4.371  14.268  0.00  0.00    +0.000 C 
ATOM     15  C   UNL     1       4.960   4.193  15.667  0.00  0.00    +0.000 C 
ENDBRANCH   8  10
ENDBRANCH   2   8
ENDBRANCH   1   5
BRANCH   1  16
ATOM     16  C   UNL     1       1.626   9.230  18.534  0.00  0.00    +0.000 C 
ATOM     17  O   UNL     1       1.963   9.544  17.387  0.00  0.00    +0.000 OA
BRANCH  16  18
ATOM     18  C   UNL     1       0.812  10.218  19.421  0.00  0.00    +0.000 C 
BRANCH  18  19
ATOM     19  C   UNL     1      -0.572  10.491  18.811  0.00  0.00    +0.000 A 
ATOM     20  C   UNL     1      -1.403  11.535  19.270  0.00  0.00    +0.000 A 
ATOM     21  C   UNL     1      -2.684  11.729  18.751  0.00  0.00    +0.000 A 
ATOM     22  C   UNL     1      -3.163  10.891  17.753  0.00  0.00    +0.000 A 
ATOM     23  C   UNL     1      -2.364   9.855  17.278  0.00  0.00    +0.000 A 
ATOM     24  C   UNL     1      -1.084   9.652  17.806  0.00  0.00    +0.000 A 
ENDBRANCH  18  19
BRANCH  18  25
ATOM     25  C   UNL     1       0.691   9.620  20.837  0.00  0.00    +0.000 C 
ATOM     26  C   UNL     1       0.302  10.631  21.968  0.00  0.00    +0.000 C 
ATOM     27  C   UNL     1      -0.366   9.447  22.691  0.00  0.00    +0.000 C 
ATOM     28  C   UNL     1      -0.562   8.810  21.298  0.00  0.00    +0.000 C 
ENDBRANCH  18  25
BRANCH  18  29
ATOM     29  O   UNL     1       1.506  11.469  19.524  0.00  0.00    +0.000 OA
ATOM     30  H   UNL     1       2.424  11.330  19.230  0.00  0.00    +0.000 HD
ENDBRANCH  18  29
ENDBRANCH  16  18
ENDBRANCH   1  16
TORSDOF 8
ENDMDL
MODEL 6
REMARK VINA RESULT:      -7.0      3.637      5.292
REMARK  Name = 
REMARK  8 active torsions:
REMARK  status: ('A' for Active; 'I' for Inactive)
REMARK    1  A    between atoms: C_2  and  C_3
REMARK    2  A    between atoms: C_3  and  N_4
REMARK    3  A    between atoms: N_7  and  C_8
REMARK    4  A    between atoms: C_8  and  C_9
REMARK    5  A    between atoms: C_9  and  C_11
REMARK    6  A    between atoms: C_11  and  O_12
REMARK    7  A    between atoms: C_11  and  C_13
REMARK    8  A    between atoms: C_11  and  C_19
REMARK                            x       y       z     vdW  Elec       q    Type
REMARK                         _______ _______ _______ _____ _____    ______ ____
ROOT
ATOM      1  C   UNL     1       4.224   5.696  19.254  0.00  0.00    +0.000 C 
ENDROOT
BRANCH   1   5
ATOM      2  N   UNL     1       2.104   8.730  18.888  0.00  0.00    +0.000 NA
ATOM      3  C   UNL     1       2.050   7.750  19.996  0.00  0.00    +0.000 C 
ATOM      4  C   UNL     1       1.897   6.280  19.533  0.00  0.00    +0.000 C 
ATOM      5  N   UNL     1       2.927   5.850  18.559  0.00  0.00    +0.000 NA
ATOM      6  C   UNL     1       2.984   6.838  17.455  0.00  0.00    +0.000 C 
ATOM      7  C   UNL     1       3.119   8.308  17.907  0.00  0.00    +0.000 C 
BRANCH   2   8
ATOM      8  C   UNL     1       0.780   8.877  18.234  0.00  0.00    +0.000 C 
BRANCH   8  10
ATOM      9  O   UNL     1       0.585  10.832  19.626  0.00  0.00    +0.000 OA
ATOM     10  C   UNL     1       0.098  10.162  18.712  0.00  0.00    +0.000 C 
ATOM     11  N   UNL     1      -1.035  10.547  18.034  0.00  0.00    +0.000 N 
ATOM     12  C   UNL     1      -1.674  11.823  18.261  0.00  0.00    +0.000 C 
ATOM     13  C   UNL     1      -3.131  11.529  17.961  0.00  0.00    +0.000 C 
ATOM     14  C   UNL     1      -3.044  10.548  16.795  0.00  0.00    +0.000 C 
ATOM     15  C   UNL     1      -1.781   9.742  17.079  0.00  0.00    +0.000 C 
ENDBRANCH   8  10
ENDBRANCH   2   8
ENDBRANCH   1   5
BRANCH   1  16
ATOM     16  C   UNL     1       5.072   4.537  18.731  0.00  0.00    +0.000 C 
ATOM     17  O   UNL     1       4.823   3.349  18.957  0.00  0.00    +0.000 OA
BRANCH  16  18
ATOM     18  C   UNL     1       6.357   4.945  17.951  0.00  0.00    +0.000 C 
BRANCH  18  19
ATOM     19  C   UNL     1       6.217   4.623  16.455  0.00  0.00    +0.000 A 
ATOM     20  C   UNL     1       7.307   4.701  15.564  0.00  0.00    +0.000 A 
ATOM     21  C   UNL     1       7.150   4.469  14.197  0.00  0.00    +0.000 A 
ATOM     22  C   UNL     1       5.900   4.142  13.687  0.00  0.00    +0.000 A 
ATOM     23  C   UNL     1       4.807   4.053  14.544  0.00  0.00    +0.000 A 
ATOM     24  C   UNL     1       4.961   4.299  15.913  0.00  0.00    +0.000 A 
ENDBRANCH  18  19
BRANCH  18  25
ATOM     25  C   UNL     1       6.610   6.450  18.177  0.00  0.00    +0.000 C 
ATOM     26  C   UNL     1       8.088   6.844  18.514  0.00  0.00    +0.000 C 
ATOM     27  C   UNL     1       7.800   8.198  17.843  0.00  0.00    +0.000 C 
ATOM     28  C   UNL     1       6.739   7.463  16.996  0.00  0.00    +0.000 C 
ENDBRANCH  18  25
BRANCH  18  29
ATOM     29  O   UNL     1       7.488   4.223  18.457  0.00  0.00    +0.000 OA
ATOM     30  H   UNL     1       7.211   3.757  19.267  0.00  0.00    +0.000 HD
ENDBRANCH  18  29
ENDBRANCH  16  18
ENDBRANCH   1  16
TORSDOF 8
ENDMDL
MODEL 7
REMARK VINA RESULT:      -7.0      3.347      8.852
REMARK  Name = 
REMARK  8 active torsions:
REMARK  status: ('A' for Active; 'I' for Inactive)
REMARK    1  A    between atoms: C_2  and  C_3
REMARK    2  A    between atoms: C_3  and  N_4
REMARK    3  A    between atoms: N_7  and  C_8
REMARK    4  A    between atoms: C_8  and  C_9
REMARK    5  A    between atoms: C_9  and  C_11
REMARK    6  A    between atoms: C_11  and  O_12
REMARK    7  A    between atoms: C_11  and  C_13
REMARK    8  A    between atoms: C_11  and  C_19
REMARK                            x       y       z     vdW  Elec       q    Type
REMARK                         _______ _______ _______ _____ _____    ______ ____
ROOT
ATOM      1  C   UNL     1       0.725   8.278  19.752  0.00  0.00    +0.000 C 
ENDROOT
BRANCH   1   5
ATOM      2  N   UNL     1       2.114   4.880  19.154  0.00  0.00    +0.000 NA
ATOM      3  C   UNL     1       1.324   5.311  20.329  0.00  0.00    +0.000 C 
ATOM      4  C   UNL     1       1.871   6.578  21.029  0.00  0.00    +0.000 C 
ATOM      5  N   UNL     1       2.051   7.733  20.118  0.00  0.00    +0.000 NA
ATOM      6  C   UNL     1       2.835   7.297  18.939  0.00  0.00    +0.000 C 
ATOM      7  C   UNL     1       2.307   6.023  18.244  0.00  0.00    +0.000 C 
BRANCH   2   8
ATOM      8  C   UNL     1       3.423   4.315  19.563  0.00  0.00    +0.000 C 
BRANCH   8  10
ATOM      9  O   UNL     1       3.786   3.126  17.501  0.00  0.00    +0.000 OA
ATOM     10  C   UNL     1       4.236   3.924  18.326  0.00  0.00    +0.000 C 
ATOM     11  N   UNL     1       5.450   4.551  18.163  0.00  0.00    +0.000 N 
ATOM     12  C   UNL     1       6.235   4.411  16.958  0.00  0.00    +0.000 C 
ATOM     13  C   UNL     1       7.657   4.567  17.462  0.00  0.00    +0.000 C 
ATOM     14  C   UNL     1       7.515   5.627  18.552  0.00  0.00    +0.000 C 
ATOM     15  C   UNL     1       6.142   5.356  19.158  0.00  0.00    +0.000 C 
ENDBRANCH   8  10
ENDBRANCH   2   8
ENDBRANCH   1   5
BRANCH   1  16
ATOM     16  C   UNL     1       0.573   9.774  20.026  0.00  0.00    +0.000 C 
ATOM     17  O   UNL     1       0.514  10.260  21.160  0.00  0.00    +0.000 OA
BRANCH  16  18
ATOM     18  C   UNL     1       0.401  10.672  18.766  0.00  0.00    +0.000 C 
BRANCH  18  19
ATOM     19  C   UNL     1      -1.077  10.754  18.348  0.00  0.00    +0.000 A 
ATOM     20  C   UNL     1      -2.007  11.565  19.032  0.00  0.00    +0.000 A 
ATOM     21  C   UNL     1      -3.358  11.578  18.683  0.00  0.00    +0.000 A 
ATOM     22  C   UNL     1      -3.812  10.790  17.634  0.00  0.00    +0.000 A 
ATOM     23  C   UNL     1      -2.916   9.984  16.938  0.00  0.00    +0.000 A 
ATOM     24  C   UNL     1      -1.563   9.960  17.296  0.00  0.00    +0.000 A 
ENDBRANCH  18  19
BRANCH  18  25
ATOM     25  C   UNL     1       0.972  12.070  19.079  0.00  0.00    +0.000 C 
ATOM     26  C   UNL     1       2.347  12.405  18.409  0.00  0.00    +0.000 C 
ATOM     27  C   UNL     1       1.907  13.880  18.418  0.00  0.00    +0.000 C 
ATOM     28  C   UNL     1       0.453  13.363  18.373  0.00  0.00    +0.000 C 
ENDBRANCH  18  25
BRANCH  18  29
ATOM     29  O   UNL     1       1.142  10.125  17.667  0.00  0.00    +0.000 OA
ATOM     30  H   UNL     1       2.024  10.539  17.662  0.00  0.00    +0.000 HD
ENDBRANCH  18  29
ENDBRANCH  16  18
ENDBRANCH   1  16
TORSDOF 8
ENDMDL
MODEL 8
REMARK VINA RESULT:      -7.0      2.937      5.756
REMARK  Name = 
REMARK  8 active torsions:
REMARK  status: ('A' for Active; 'I' for Inactive)
REMARK    1  A    between atoms: C_2  and  C_3
REMARK    2  A    between atoms: C_3  and  N_4
REMARK    3  A    between atoms: N_7  and  C_8
REMARK    4  A    between atoms: C_8  and  C_9
REMARK    5  A    between atoms: C_9  and  C_11
REMARK    6  A    between atoms: C_11  and  O_12
REMARK    7  A    between atoms: C_11  and  C_13
REMARK    8  A    between atoms: C_11  and  C_19
REMARK                            x       y       z     vdW  Elec       q    Type
REMARK                         _______ _______ _______ _____ _____    ______ ____
ROOT
ATOM      1  C   UNL     1       4.019   5.532  17.241  0.00  0.00    +0.000 C 
ENDROOT
BRANCH   1   5
ATOM      2  N   UNL     1       1.515   7.315  19.336  0.00  0.00    +0.000 NA
ATOM      3  C   UNL     1       2.212   7.858  18.148  0.00  0.00    +0.000 C 
ATOM      4  C   UNL     1       3.754   7.730  18.206  0.00  0.00    +0.000 C 
ATOM      5  N   UNL     1       4.230   6.349  18.456  0.00  0.00    +0.000 NA
ATOM      6  C   UNL     1       3.525   5.806  19.640  0.00  0.00    +0.000 C 
ATOM      7  C   UNL     1       1.987   5.944  19.599  0.00  0.00    +0.000 C 
BRANCH   2   8
ATOM      8  C   UNL     1       1.728   8.175  20.525  0.00  0.00    +0.000 C 
BRANCH   8  10
ATOM      9  O   UNL     1      -0.414   8.265  21.622  0.00  0.00    +0.000 OA
ATOM     10  C   UNL     1       0.415   8.854  20.924  0.00  0.00    +0.000 C 
ATOM     11  N   UNL     1       0.247  10.157  20.516  0.00  0.00    +0.000 N 
ATOM     12  C   UNL     1      -0.858  10.970  20.971  0.00  0.00    +0.000 C 
ATOM     13  C   UNL     1      -1.085  11.912  19.804  0.00  0.00    +0.000 C 
ATOM     14  C   UNL     1       0.332  12.182  19.306  0.00  0.00    +0.000 C 
ATOM     15  C   UNL     1       1.069  10.869  19.551  0.00  0.00    +0.000 C 
ENDBRANCH   8  10
ENDBRANCH   2   8
ENDBRANCH   1   5
BRANCH   1  16
ATOM     16  C   UNL     1       5.025   5.811  16.125  0.00  0.00    +0.000 C 
ATOM     17  O   UNL     1       4.901   6.723  15.302  0.00  0.00    +0.000 OA
BRANCH  16  18
ATOM     18  C   UNL     1       6.205   4.800  16.018  0.00  0.00    +0.000 C 
BRANCH  18  19
ATOM     19  C   UNL     1       6.623   4.597  14.553  0.00  0.00    +0.000 A 
ATOM     20  C   UNL     1       7.661   5.342  13.957  0.00  0.00    +0.000 A 
ATOM     21  C   UNL     1       7.985   5.194  12.608  0.00  0.00    +0.000 A 
ATOM     22  C   UNL     1       7.285   4.287  11.822  0.00  0.00    +0.000 A 
ATOM     23  C   UNL     1       6.258   3.535  12.384  0.00  0.00    +0.000 A 
ATOM     24  C   UNL     1       5.924   3.693  13.734  0.00  0.00    +0.000 A 
ENDBRANCH  18  19
BRANCH  18  25
ATOM     25  C   UNL     1       7.380   5.327  16.866  0.00  0.00    +0.000 C 
ATOM     26  C   UNL     1       7.305   6.842  17.258  0.00  0.00    +0.000 C 
ATOM     27  C   UNL     1       8.099   6.475  18.525  0.00  0.00    +0.000 C 
ATOM     28  C   UNL     1       7.490   5.062  18.401  0.00  0.00    +0.000 C 
ENDBRANCH  18  25
BRANCH  18  29
ATOM     29  O   UNL     1       5.811   3.527  16.548  0.00  0.00    +0.000 OA
ATOM     30  H   UNL     1       4.850   3.551  16.705  0.00  0.00    +0.000 HD
ENDBRANCH  18  29
ENDBRANCH  16  18
ENDBRANCH   1  16
TORSDOF 8
ENDMDL
MODEL 9
REMARK VINA RESULT:      -7.0      1.293      1.856
REMARK  Name = 
REMARK  8 active torsions:
REMARK  status: ('A' for Active; 'I' for Inactive)
REMARK    1  A    between atoms: C_2  and  C_3
REMARK    2  A    between atoms: C_3  and  N_4
REMARK    3  A    between atoms: N_7  and  C_8
REMARK    4  A    between atoms: C_8  and  C_9
REMARK    5  A    between atoms: C_9  and  C_11
REMARK    6  A    between atoms: C_11  and  O_12
REMARK    7  A    between atoms: C_11  and  C_13
REMARK    8  A    between atoms: C_11  and  C_19
REMARK                            x       y       z     vdW  Elec       q    Type
REMARK                         _______ _______ _______ _____ _____    ______ ____
ROOT
ATOM      1  C   UNL     1       1.664   7.415  20.150  0.00  0.00    +0.000 C 
ENDROOT
BRANCH   1   5
ATOM      2  N   UNL     1      -0.835  10.034  21.006  0.00  0.00    +0.000 NA
ATOM      3  C   UNL     1      -0.226   9.803  19.677  0.00  0.00    +0.000 C 
ATOM      4  C   UNL     1       1.322   9.761  19.689  0.00  0.00    +0.000 C 
ATOM      5  N   UNL     1       1.886   8.788  20.654  0.00  0.00    +0.000 NA
ATOM      6  C   UNL     1       1.267   9.017  21.981  0.00  0.00    +0.000 C 
ATOM      7  C   UNL     1      -0.276   9.077  21.976  0.00  0.00    +0.000 C 
BRANCH   2   8
ATOM      8  C   UNL     1      -0.615  11.428  21.464  0.00  0.00    +0.000 C 
BRANCH   8  10
ATOM      9  O   UNL     1      -1.950  12.824  20.028  0.00  0.00    +0.000 OA
ATOM     10  C   UNL     1      -1.837  12.289  21.132  0.00  0.00    +0.000 C 
ATOM     11  N   UNL     1      -2.810  12.376  22.100  0.00  0.00    +0.000 N 
ATOM     12  C   UNL     1      -4.088  13.005  21.855  0.00  0.00    +0.000 C 
ATOM     13  C   UNL     1      -4.469  13.539  23.222  0.00  0.00    +0.000 C 
ATOM     14  C   UNL     1      -3.953  12.456  24.165  0.00  0.00    +0.000 C 
ATOM     15  C   UNL     1      -2.690  11.940  23.483  0.00  0.00    +0.000 C 
ENDBRANCH   8  10
ENDBRANCH   2   8
ENDBRANCH   1   5
BRANCH   1  16
ATOM     16  C   UNL     1       2.453   7.086  18.883  0.00  0.00    +0.000 C 
ATOM     17  O   UNL     1       2.385   7.748  17.842  0.00  0.00    +0.000 OA
BRANCH  16  18
ATOM     18  C   UNL     1       3.304   5.783  18.942  0.00  0.00    +0.000 C 
BRANCH  18  19
ATOM     19  C   UNL     1       2.530   4.653  19.641  0.00  0.00    +0.000 A 
ATOM     20  C   UNL     1       1.406   4.036  19.052  0.00  0.00    +0.000 A 
ATOM     21  C   UNL     1       0.674   3.058  19.727  0.00  0.00    +0.000 A 
ATOM     22  C   UNL     1       1.053   2.664  21.004  0.00  0.00    +0.000 A 
ATOM     23  C   UNL     1       2.160   3.253  21.608  0.00  0.00    +0.000 A 
ATOM     24  C   UNL     1       2.887   4.243  20.938  0.00  0.00    +0.000 A 
ENDBRANCH  18  19
BRANCH  18  25
ATOM     25  C   UNL     1       3.693   5.386  17.504  0.00  0.00    +0.000 C 
ATOM     26  C   UNL     1       5.056   5.962  16.989  0.00  0.00    +0.000 C 
ATOM     27  C   UNL     1       5.164   4.707  16.104  0.00  0.00    +0.000 C 
ATOM     28  C   UNL     1       4.293   3.987  17.156  0.00  0.00    +0.000 C 
ENDBRANCH  18  25
BRANCH  18  29
ATOM     29  O   UNL     1       4.510   6.018  19.682  0.00  0.00    +0.000 OA
ATOM     30  H   UNL     1       4.745   5.194  20.145  0.00  0.00    +0.000 HD
ENDBRANCH  18  29
ENDBRANCH  16  18
ENDBRANCH   1  16
TORSDOF 8
ENDMDL
