MODEL 1
REMARK VINA RESULT:      -7.2      0.000      0.000
REMARK  Name = 
REMARK  5 active torsions:
REMARK  status: ('A' for Active; 'I' for Inactive)
REMARK    1  A    between atoms: C_2  and  C_3
REMARK    2  A    between atoms: C_3  and  N_4
REMARK    3  A    between atoms: N_7  and  C_8
REMARK    4  A    between atoms: N_16  and  C_17
REMARK    5  A    between atoms: C_17  and  C_18
REMARK                            x       y       z     vdW  Elec       q    Type
REMARK                         _______ _______ _______ _____ _____    ______ ____
ROOT
ATOM      1  N   UNL     1       4.794   5.912  16.411  0.00  0.00    +0.000 NA
ATOM      2  C   UNL     1       4.435   4.469  16.488  0.00  0.00    +0.000 C 
ATOM      3  C   UNL     1       4.715   3.800  17.851  0.00  0.00    +0.000 C 
ATOM      4  N   UNL     1       4.078   4.553  18.939  0.00  0.00    +0.000 N 
ATOM      5  C   UNL     1       4.302   6.008  18.945  0.00  0.00    +0.000 C 
ATOM      6  C   UNL     1       4.087   6.602  17.524  0.00  0.00    +0.000 C 
ENDROOT
BRANCH   4   7
ATOM      7  C   UNL     1       3.137   3.978  19.771  0.00  0.00    +0.000 A 
ATOM      8  C   UNL     1       3.500   3.016  20.727  0.00  0.00    +0.000 A 
ATOM      9  C   UNL     1       2.550   2.400  21.549  0.00  0.00    +0.000 A 
ATOM     10  C   UNL     1       1.207   2.744  21.440  0.00  0.00    +0.000 A 
ATOM     11  C   UNL     1       0.820   3.703  20.513  0.00  0.00    +0.000 A 
ATOM     12  C   UNL     1       1.776   4.309  19.691  0.00  0.00    +0.000 A 
ENDBRANCH   4   7
BRANCH   1  13
ATOM     13  C   UNL     1       6.258   6.120  16.534  0.00  0.00    +0.000 C 
BRANCH  13  15
ATOM     14  O   UNL     1       7.818   4.332  16.063  0.00  0.00    +0.000 OA
ATOM     15  C   UNL     1       7.045   5.178  15.618  0.00  0.00    +0.000 C 
ATOM     16  N   UNL     1       6.826   5.381  14.278  0.00  0.00    +0.000 N 
ATOM     17  H   UNL     1       6.049   5.978  14.013  0.00  0.00    +0.000 HD
BRANCH  16  18
ATOM     18  C   UNL     1       7.467   4.588  13.257  0.00  0.00    +0.000 C 
BRANCH  18  19
ATOM     19  C   UNL     1       6.435   3.782  12.561  0.00  0.00    +0.000 A 
ATOM     20  C   UNL     1       5.062   3.873  12.469  0.00  0.00    +0.000 A 
ATOM     21  C   UNL     1       4.644   2.792  11.656  0.00  0.00    +0.000 A 
ATOM     22  C   UNL     1       5.786   2.113  11.304  0.00  0.00    +0.000 A 
ATOM     23  O   UNL     1       6.880   2.708  11.844  0.00  0.00    +0.000 OA
ENDBRANCH  18  19
ENDBRANCH  16  18
ENDBRANCH  13  15
ENDBRANCH   1  13
TORSDOF 5
ENDMDL
MODEL 2
REMARK VINA RESULT:      -7.0      1.119      1.381
REMARK  Name = 
REMARK  5 active torsions:
REMARK  status: ('A' for Active; 'I' for Inactive)
REMARK    1  A    between atoms: C_2  and  C_3
REMARK    2  A    between atoms: C_3  and  N_4
REMARK    3  A    between atoms: N_7  and  C_8
REMARK    4  A    between atoms: N_16  and  C_17
REMARK    5  A    between atoms: C_17  and  C_18
REMARK                            x       y       z     vdW  Elec       q    Type
REMARK                         _______ _______ _______ _____ _____    ______ ____
ROOT
ATOM      1  N   UNL     1       5.956   5.456  17.028  0.00  0.00    +0.000 NA
ATOM      2  C   UNL     1       4.545   5.137  16.677  0.00  0.00    +0.000 C 
ATOM      3  C   UNL     1       4.040   3.770  17.189  0.00  0.00    +0.000 C 
ATOM      4  N   UNL     1       4.255   3.648  18.636  0.00  0.00    +0.000 N 
ATOM      5  C   UNL     1       5.597   3.995  19.129  0.00  0.00    +0.000 C 
ATOM      6  C   UNL     1       6.079   5.337  18.507  0.00  0.00    +0.000 C 
ENDROOT
BRANCH   4   7
ATOM      7  C   UNL     1       3.208   3.445  19.515  0.00  0.00    +0.000 A 
ATOM      8  C   UNL     1       3.397   2.769  20.730  0.00  0.00    +0.000 A 
ATOM      9  C   UNL     1       2.335   2.526  21.610  0.00  0.00    +0.000 A 
ATOM     10  C   UNL     1       1.055   2.967  21.295  0.00  0.00    +0.000 A 
ATOM     11  C   UNL     1       0.840   3.651  20.106  0.00  0.00    +0.000 A 
ATOM     12  C   UNL     1       1.906   3.884  19.230  0.00  0.00    +0.000 A 
ENDBRANCH   4   7
BRANCH   1  13
ATOM     13  C   UNL     1       6.909   4.533  16.364  0.00  0.00    +0.000 C 
BRANCH  13  15
ATOM     14  O   UNL     1       7.964   5.643  14.492  0.00  0.00    +0.000 OA
ATOM     15  C   UNL     1       7.091   4.872  14.882  0.00  0.00    +0.000 C 
ATOM     16  N   UNL     1       6.185   4.261  14.049  0.00  0.00    +0.000 N 
ATOM     17  H   UNL     1       5.618   3.516  14.438  0.00  0.00    +0.000 HD
BRANCH  16  18
ATOM     18  C   UNL     1       6.198   4.446  12.618  0.00  0.00    +0.000 C 
BRANCH  18  19
ATOM     19  C   UNL     1       6.248   3.116  11.966  0.00  0.00    +0.000 A 
ATOM     20  C   UNL     1       5.282   2.203  11.597  0.00  0.00    +0.000 A 
ATOM     21  C   UNL     1       5.968   1.108  11.018  0.00  0.00    +0.000 A 
ATOM     22  C   UNL     1       7.305   1.423  11.069  0.00  0.00    +0.000 A 
ATOM     23  O   UNL     1       7.486   2.642  11.639  0.00  0.00    +0.000 OA
ENDBRANCH  18  19
ENDBRANCH  16  18
ENDBRANCH  13  15
ENDBRANCH   1  13
TORSDOF 5
ENDMDL
MODEL 3
REMARK VINA RESULT:      -7.0      2.274      3.374
REMARK  Name = 
REMARK  5 active torsions:
REMARK  status: ('A' for Active; 'I' for Inactive)
REMARK    1  A    between atoms: C_2  and  C_3
REMARK    2  A    between atoms: C_3  and  N_4
REMARK    3  A    between atoms: N_7  and  C_8
REMARK    4  A    between atoms: N_16  and  C_17
REMARK    5  A    between atoms: C_17  and  C_18
REMARK                            x       y       z     vdW  Elec       q    Type
REMARK                         _______ _______ _______ _____ _____    ______ ____
ROOT
ATOM      1  N   UNL     1       5.747   5.200  18.496  0.00  0.00    +0.000 NA
ATOM      2  C   UNL     1       5.606   6.539  17.863  0.00  0.00    +0.000 C 
ATOM      3  C   UNL     1       4.198   6.853  17.311  0.00  0.00    +0.000 C 
ATOM      4  N   UNL     1       3.179   6.659  18.349  0.00  0.00    +0.000 N 
ATOM      5  C   UNL     1       3.243   5.395  19.099  0.00  0.00    +0.000 C 
ATOM      6  C   UNL     1       4.702   5.098  19.550  0.00  0.00    +0.000 C 
ENDROOT
BRANCH   4   7
ATOM      7  C   UNL     1       2.353   7.687  18.762  0.00  0.00    +0.000 A 
ATOM      8  C   UNL     1       1.956   7.810  20.103  0.00  0.00    +0.000 A 
ATOM      9  C   UNL     1       1.090   8.825  20.524  0.00  0.00    +0.000 A 
ATOM     10  C   UNL     1       0.609   9.754  19.608  0.00  0.00    +0.000 A 
ATOM     11  C   UNL     1       0.995   9.667  18.278  0.00  0.00    +0.000 A 
ATOM     12  C   UNL     1       1.856   8.644  17.864  0.00  0.00    +0.000 A 
ENDBRANCH   4   7
BRANCH   1  13
ATOM     13  C   UNL     1       5.580   4.106  17.508  0.00  0.00    +0.000 C 
BRANCH  13  15
ATOM     14  O   UNL     1       7.757   4.439  16.508  0.00  0.00    +0.000 OA
ATOM     15  C   UNL     1       6.556   4.242  16.337  0.00  0.00    +0.000 C 
ATOM     16  N   UNL     1       5.969   4.147  15.099  0.00  0.00    +0.000 N 
ATOM     17  H   UNL     1       5.011   3.814  15.057  0.00  0.00    +0.000 HD
BRANCH  16  18
ATOM     18  C   UNL     1       6.722   4.239  13.872  0.00  0.00    +0.000 C 
BRANCH  18  19
ATOM     19  C   UNL     1       5.970   3.550  12.797  0.00  0.00    +0.000 A 
ATOM     20  C   UNL     1       4.702   3.705  12.276  0.00  0.00    +0.000 A 
ATOM     21  C   UNL     1       4.566   2.729  11.259  0.00  0.00    +0.000 A 
ATOM     22  C   UNL     1       5.757   2.044  11.224  0.00  0.00    +0.000 A 
ATOM     23  O   UNL     1       6.618   2.537  12.150  0.00  0.00    +0.000 OA
ENDBRANCH  18  19
ENDBRANCH  16  18
ENDBRANCH  13  15
ENDBRANCH   1  13
TORSDOF 5
ENDMDL
MODEL 4
REMARK VINA RESULT:      -7.0      1.224      1.831
REMARK  Name = 
REMARK  5 active torsions:
REMARK  status: ('A' for Active; 'I' for Inactive)
REMARK    1  A    between atoms: C_2  and  C_3
REMARK    2  A    between atoms: C_3  and  N_4
REMARK    3  A    between atoms: N_7  and  C_8
REMARK    4  A    between atoms: N_16  and  C_17
REMARK    5  A    between atoms: C_17  and  C_18
REMARK                            x       y       z     vdW  Elec       q    Type
REMARK                         _______ _______ _______ _____ _____    ______ ____
ROOT
ATOM      1  N   UNL     1       5.919   5.421  17.046  0.00  0.00    +0.000 NA
ATOM      2  C   UNL     1       4.516   5.086  16.680  0.00  0.00    +0.000 C 
ATOM      3  C   UNL     1       4.018   3.718  17.195  0.00  0.00    +0.000 C 
ATOM      4  N   UNL     1       4.217   3.607  18.645  0.00  0.00    +0.000 N 
ATOM      5  C   UNL     1       5.550   3.970  19.151  0.00  0.00    +0.000 C 
ATOM      6  C   UNL     1       6.026   5.312  18.527  0.00  0.00    +0.000 C 
ENDROOT
BRANCH   4   7
ATOM      7  C   UNL     1       3.161   3.399  19.512  0.00  0.00    +0.000 A 
ATOM      8  C   UNL     1       1.885   3.920  19.246  0.00  0.00    +0.000 A 
ATOM      9  C   UNL     1       0.820   3.747  20.137  0.00  0.00    +0.000 A 
ATOM     10  C   UNL     1       1.006   3.034  21.316  0.00  0.00    +0.000 A 
ATOM     11  C   UNL     1       2.254   2.495  21.600  0.00  0.00    +0.000 A 
ATOM     12  C   UNL     1       3.315   2.679  20.707  0.00  0.00    +0.000 A 
ENDBRANCH   4   7
BRANCH   1  13
ATOM     13  C   UNL     1       6.889   4.503  16.399  0.00  0.00    +0.000 C 
BRANCH  13  15
ATOM     14  O   UNL     1       7.816   5.923  14.673  0.00  0.00    +0.000 OA
ATOM     15  C   UNL     1       7.179   4.910  14.951  0.00  0.00    +0.000 C 
ATOM     16  N   UNL     1       6.648   4.060  14.011  0.00  0.00    +0.000 N 
ATOM     17  H   UNL     1       6.291   3.167  14.333  0.00  0.00    +0.000 HD
BRANCH  16  18
ATOM     18  C   UNL     1       6.821   4.266  12.594  0.00  0.00    +0.000 C 
BRANCH  18  19
ATOM     19  C   UNL     1       6.619   2.974  11.895  0.00  0.00    +0.000 A 
ATOM     20  C   UNL     1       7.476   2.078  11.292  0.00  0.00    +0.000 A 
ATOM     21  C   UNL     1       6.668   1.028  10.792  0.00  0.00    +0.000 A 
ATOM     22  C   UNL     1       5.373   1.350  11.123  0.00  0.00    +0.000 A 
ATOM     23  O   UNL     1       5.333   2.528  11.797  0.00  0.00    +0.000 OA
ENDBRANCH  18  19
ENDBRANCH  16  18
ENDBRANCH  13  15
ENDBRANCH   1  13
TORSDOF 5
ENDMDL
MODEL 5
REMARK VINA RESULT:      -6.9      1.161      1.368
REMARK  Name = 
REMARK  5 active torsions:
REMARK  status: ('A' for Active; 'I' for Inactive)
REMARK    1  A    between atoms: C_2  and  C_3
REMARK    2  A    between atoms: C_3  and  N_4
REMARK    3  A    between atoms: N_7  and  C_8
REMARK    4  A    between atoms: N_16  and  C_17
REMARK    5  A    between atoms: C_17  and  C_18
REMARK                            x       y       z     vdW  Elec       q    Type
REMARK                         _______ _______ _______ _____ _____    ______ ____
ROOT
ATOM      1  N   UNL     1       5.499   5.328  16.576  0.00  0.00    +0.000 NA
ATOM      2  C   UNL     1       4.325   4.434  16.390  0.00  0.00    +0.000 C 
ATOM      3  C   UNL     1       4.236   3.259  17.389  0.00  0.00    +0.000 C 
ATOM      4  N   UNL     1       4.303   3.748  18.771  0.00  0.00    +0.000 N 
ATOM      5  C   UNL     1       5.388   4.695  19.078  0.00  0.00    +0.000 C 
ATOM      6  C   UNL     1       5.475   5.800  17.988  0.00  0.00    +0.000 C 
ENDROOT
BRANCH   4   7
ATOM      7  C   UNL     1       3.283   3.524  19.675  0.00  0.00    +0.000 A 
ATOM      8  C   UNL     1       3.435   2.619  20.738  0.00  0.00    +0.000 A 
ATOM      9  C   UNL     1       2.395   2.357  21.636  0.00  0.00    +0.000 A 
ATOM     10  C   UNL     1       1.174   3.007  21.497  0.00  0.00    +0.000 A 
ATOM     11  C   UNL     1       0.998   3.918  20.464  0.00  0.00    +0.000 A 
ATOM     12  C   UNL     1       2.041   4.169  19.566  0.00  0.00    +0.000 A 
ENDBRANCH   4   7
BRANCH   1  13
ATOM     13  C   UNL     1       6.775   4.624  16.299  0.00  0.00    +0.000 C 
BRANCH  13  15
ATOM     14  O   UNL     1       7.932   5.638  14.432  0.00  0.00    +0.000 OA
ATOM     15  C   UNL     1       7.185   4.747  14.828  0.00  0.00    +0.000 C 
ATOM     16  N   UNL     1       6.629   3.796  14.007  0.00  0.00    +0.000 N 
ATOM     17  H   UNL     1       6.170   3.006  14.447  0.00  0.00    +0.000 HD
BRANCH  16  18
ATOM     18  C   UNL     1       6.902   3.737  12.592  0.00  0.00    +0.000 C 
BRANCH  18  19
ATOM     19  C   UNL     1       5.703   3.212  11.896  0.00  0.00    +0.000 A 
ATOM     20  C   UNL     1       5.368   1.975  11.385  0.00  0.00    +0.000 A 
ATOM     21  C   UNL     1       4.073   2.110  10.829  0.00  0.00    +0.000 A 
ATOM     22  C   UNL     1       3.702   3.417  11.036  0.00  0.00    +0.000 A 
ATOM     23  O   UNL     1       4.682   4.094  11.687  0.00  0.00    +0.000 OA
ENDBRANCH  18  19
ENDBRANCH  16  18
ENDBRANCH  13  15
ENDBRANCH   1  13
TORSDOF 5
ENDMDL
MODEL 6
REMARK VINA RESULT:      -6.9      3.109      7.946
REMARK  Name = 
REMARK  5 active torsions:
REMARK  status: ('A' for Active; 'I' for Inactive)
REMARK    1  A    between atoms: C_2  and  C_3
REMARK    2  A    between atoms: C_3  and  N_4
REMARK    3  A    between atoms: N_7  and  C_8
REMARK    4  A    between atoms: N_16  and  C_17
REMARK    5  A    between atoms: C_17  and  C_18
REMARK                            x       y       z     vdW  Elec       q    Type
REMARK                         _______ _______ _______ _____ _____    ______ ____
ROOT
ATOM      1  N   UNL     1       5.207   5.846  18.181  0.00  0.00    +0.000 NA
ATOM      2  C   UNL     1       6.600   5.917  17.663  0.00  0.00    +0.000 C 
ATOM      3  C   UNL     1       7.065   4.675  16.872  0.00  0.00    +0.000 C 
ATOM      4  N   UNL     1       6.123   4.369  15.788  0.00  0.00    +0.000 N 
ATOM      5  C   UNL     1       4.698   4.329  16.153  0.00  0.00    +0.000 C 
ATOM      6  C   UNL     1       4.319   5.563  17.020  0.00  0.00    +0.000 C 
ENDROOT
BRANCH   4   7
ATOM      7  C   UNL     1       6.516   4.349  14.463  0.00  0.00    +0.000 A 
ATOM      8  C   UNL     1       7.507   5.219  13.983  0.00  0.00    +0.000 A 
ATOM      9  C   UNL     1       7.885   5.232  12.636  0.00  0.00    +0.000 A 
ATOM     10  C   UNL     1       7.285   4.359  11.735  0.00  0.00    +0.000 A 
ATOM     11  C   UNL     1       6.311   3.476  12.184  0.00  0.00    +0.000 A 
ATOM     12  C   UNL     1       5.935   3.475  13.532  0.00  0.00    +0.000 A 
ENDBRANCH   4   7
BRANCH   1  13
ATOM     13  C   UNL     1       5.055   4.784  19.205  0.00  0.00    +0.000 C 
BRANCH  13  15
ATOM     14  O   UNL     1       2.996   3.714  19.889  0.00  0.00    +0.000 OA
ATOM     15  C   UNL     1       3.641   4.755  19.791  0.00  0.00    +0.000 C 
ATOM     16  N   UNL     1       3.163   5.986  20.170  0.00  0.00    +0.000 N 
ATOM     17  H   UNL     1       3.824   6.755  20.213  0.00  0.00    +0.000 HD
BRANCH  16  18
ATOM     18  C   UNL     1       1.855   6.166  20.753  0.00  0.00    +0.000 C 
BRANCH  18  19
ATOM     19  C   UNL     1       1.435   7.574  20.557  0.00  0.00    +0.000 A 
ATOM     20  C   UNL     1       0.701   8.459  21.319  0.00  0.00    +0.000 A 
ATOM     21  C   UNL     1       0.636   9.664  20.578  0.00  0.00    +0.000 A 
ATOM     22  C   UNL     1       1.332   9.436  19.415  0.00  0.00    +0.000 A 
ATOM     23  O   UNL     1       1.825   8.172  19.394  0.00  0.00    +0.000 OA
ENDBRANCH  18  19
ENDBRANCH  16  18
ENDBRANCH  13  15
ENDBRANCH   1  13
TORSDOF 5
ENDMDL
MODEL 7
REMARK VINA RESULT:      -6.8      2.593      7.161
REMARK  Name = 
REMARK  5 active torsions:
REMARK  status: ('A' for Active; 'I' for Inactive)
REMARK    1  A    between atoms: C_2  and  C_3
REMARK    2  A    between atoms: C_3  and  N_4
REMARK    3  A    between atoms: N_7  and  C_8
REMARK    4  A    between atoms: N_16  and  C_17
REMARK    5  A    between atoms: C_17  and  C_18
REMARK                            x       y       z     vdW  Elec       q    Type
REMARK                         _______ _______ _______ _____ _____    ______ ____
ROOT
ATOM      1  N   UNL     1       6.089   4.470  18.569  0.00  0.00    +0.000 NA
ATOM      2  C   UNL     1       5.123   3.918  17.580  0.00  0.00    +0.000 C 
ATOM      3  C   UNL     1       4.920   4.781  16.316  0.00  0.00    +0.000 C 
ATOM      4  N   UNL     1       6.208   5.073  15.676  0.00  0.00    +0.000 N 
ATOM      5  C   UNL     1       7.278   5.570  16.556  0.00  0.00    +0.000 C 
ATOM      6  C   UNL     1       7.369   4.708  17.847  0.00  0.00    +0.000 C 
ENDROOT
BRANCH   4   7
ATOM      7  C   UNL     1       6.481   4.690  14.376  0.00  0.00    +0.000 A 
ATOM      8  C   UNL     1       7.531   5.272  13.649  0.00  0.00    +0.000 A 
ATOM      9  C   UNL     1       7.791   4.918  12.321  0.00  0.00    +0.000 A 
ATOM     10  C   UNL     1       7.007   3.959  11.689  0.00  0.00    +0.000 A 
ATOM     11  C   UNL     1       5.970   3.355  12.388  0.00  0.00    +0.000 A 
ATOM     12  C   UNL     1       5.713   3.720  13.714  0.00  0.00    +0.000 A 
ENDBRANCH   4   7
BRANCH   1  13
ATOM     13  C   UNL     1       5.600   5.736  19.166  0.00  0.00    +0.000 C 
BRANCH  13  15
ATOM     14  O   UNL     1       3.284   6.389  18.924  0.00  0.00    +0.000 OA
ATOM     15  C   UNL     1       4.105   5.673  19.491  0.00  0.00    +0.000 C 
ATOM     16  N   UNL     1       3.780   4.771  20.475  0.00  0.00    +0.000 N 
ATOM     17  H   UNL     1       4.493   4.108  20.759  0.00  0.00    +0.000 HD
BRANCH  16  18
ATOM     18  C   UNL     1       2.423   4.557  20.914  0.00  0.00    +0.000 C 
BRANCH  18  19
ATOM     19  C   UNL     1       1.797   3.529  20.049  0.00  0.00    +0.000 A 
ATOM     20  C   UNL     1       0.508   3.321  19.602  0.00  0.00    +0.000 A 
ATOM     21  C   UNL     1       0.547   2.152  18.804  0.00  0.00    +0.000 A 
ATOM     22  C   UNL     1       1.853   1.724  18.815  0.00  0.00    +0.000 A 
ATOM     23  O   UNL     1       2.621   2.555  19.564  0.00  0.00    +0.000 OA
ENDBRANCH  18  19
ENDBRANCH  16  18
ENDBRANCH  13  15
ENDBRANCH   1  13
TORSDOF 5
ENDMDL
MODEL 8
REMARK VINA RESULT:      -6.8      3.486      5.551
REMARK  Name = 
REMARK  5 active torsions:
REMARK  status: ('A' for Active; 'I' for Inactive)
REMARK    1  A    between atoms: C_2  and  C_3
REMARK    2  A    between atoms: C_3  and  N_4
REMARK    3  A    between atoms: N_7  and  C_8
REMARK    4  A    between atoms: N_16  and  C_17
REMARK    5  A    between atoms: C_17  and  C_18
REMARK                            x       y       z     vdW  Elec       q    Type
REMARK                         _______ _______ _______ _____ _____    ______ ____
ROOT
ATOM      1  N   UNL     1       2.224   3.885  18.907  0.00  0.00    +0.000 NA
ATOM      2  C   UNL     1       1.434   4.312  20.094  0.00  0.00    +0.000 C 
ATOM      3  C   UNL     1       2.016   5.518  20.863  0.00  0.00    +0.000 C 
ATOM      4  N   UNL     1       2.244   6.650  19.957  0.00  0.00    +0.000 N 
ATOM      5  C   UNL     1       2.964   6.352  18.709  0.00  0.00    +0.000 C 
ATOM      6  C   UNL     1       2.383   5.078  18.031  0.00  0.00    +0.000 C 
ENDROOT
BRANCH   4   7
ATOM      7  C   UNL     1       1.626   7.872  20.144  0.00  0.00    +0.000 A 
ATOM      8  C   UNL     1       1.043   8.213  21.374  0.00  0.00    +0.000 A 
ATOM      9  C   UNL     1       0.382   9.432  21.562  0.00  0.00    +0.000 A 
ATOM     10  C   UNL     1       0.298  10.347  20.519  0.00  0.00    +0.000 A 
ATOM     11  C   UNL     1       0.878  10.043  19.294  0.00  0.00    +0.000 A 
ATOM     12  C   UNL     1       1.531   8.819  19.113  0.00  0.00    +0.000 A 
ENDBRANCH   4   7
BRANCH   1  13
ATOM     13  C   UNL     1       3.555   3.359  19.294  0.00  0.00    +0.000 C 
BRANCH  13  15
ATOM     14  O   UNL     1       4.374   3.058  17.038  0.00  0.00    +0.000 OA
ATOM     15  C   UNL     1       4.577   3.507  18.163  0.00  0.00    +0.000 C 
ATOM     16  N   UNL     1       5.730   4.159  18.528  0.00  0.00    +0.000 N 
ATOM     17  H   UNL     1       5.736   4.641  19.420  0.00  0.00    +0.000 HD
BRANCH  16  18
ATOM     18  C   UNL     1       6.808   4.406  17.601  0.00  0.00    +0.000 C 
BRANCH  18  19
ATOM     19  C   UNL     1       7.322   5.779  17.823  0.00  0.00    +0.000 A 
ATOM     20  C   UNL     1       7.995   6.384  18.864  0.00  0.00    +0.000 A 
ATOM     21  C   UNL     1       8.203   7.730  18.476  0.00  0.00    +0.000 A 
ATOM     22  C   UNL     1       7.646   7.859  17.225  0.00  0.00    +0.000 A 
ATOM     23  O   UNL     1       7.112   6.679  16.818  0.00  0.00    +0.000 OA
ENDBRANCH  18  19
ENDBRANCH  16  18
ENDBRANCH  13  15
ENDBRANCH   1  13
TORSDOF 5
ENDMDL
MODEL 9
REMARK VINA RESULT:      -6.7      0.865      1.144
REMARK  Name = 
REMARK  5 active torsions:
REMARK  status: ('A' for Active; 'I' for Inactive)
REMARK    1  A    between atoms: C_2  and  C_3
REMARK    2  A    between atoms: C_3  and  N_4
REMARK    3  A    between atoms: N_7  and  C_8
REMARK    4  A    between atoms: N_16  and  C_17
REMARK    5  A    between atoms: C_17  and  C_18
REMARK                            x       y       z     vdW  Elec       q    Type
REMARK                         _______ _______ _______ _____ _____    ______ ____
ROOT
ATOM      1  N   UNL     1       4.845   6.006  16.379  0.00  0.00    +0.000 NA
ATOM      2  C   UNL     1       4.503   4.557  16.357  0.00  0.00    +0.000 C 
ATOM      3  C   UNL     1       4.754   3.809  17.684  0.00  0.00    +0.000 C 
ATOM      4  N   UNL     1       4.077   4.486  18.797  0.00  0.00    +0.000 N 
ATOM      5  C   UNL     1       4.282   5.940  18.899  0.00  0.00    +0.000 C 
ATOM      6  C   UNL     1       4.098   6.618  17.512  0.00  0.00    +0.000 C 
ENDROOT
BRANCH   4   7
ATOM      7  C   UNL     1       3.122   3.849  19.566  0.00  0.00    +0.000 A 
ATOM      8  C   UNL     1       2.325   2.823  19.036  0.00  0.00    +0.000 A 
ATOM      9  C   UNL     1       1.329   2.198  19.796  0.00  0.00    +0.000 A 
ATOM     10  C   UNL     1       1.115   2.581  21.115  0.00  0.00    +0.000 A 
ATOM     11  C   UNL     1       1.898   3.585  21.671  0.00  0.00    +0.000 A 
ATOM     12  C   UNL     1       2.887   4.208  20.902  0.00  0.00    +0.000 A 
ENDBRANCH   4   7
BRANCH   1  13
ATOM     13  C   UNL     1       6.302   6.223  16.555  0.00  0.00    +0.000 C 
BRANCH  13  15
ATOM     14  O   UNL     1       7.902   4.467  16.096  0.00  0.00    +0.000 OA
ATOM     15  C   UNL     1       7.128   5.308  15.646  0.00  0.00    +0.000 C 
ATOM     16  N   UNL     1       6.940   5.530  14.303  0.00  0.00    +0.000 N 
ATOM     17  H   UNL     1       6.161   6.119  14.028  0.00  0.00    +0.000 HD
BRANCH  16  18
ATOM     18  C   UNL     1       7.620   4.764  13.287  0.00  0.00    +0.000 C 
BRANCH  18  19
ATOM     19  C   UNL     1       6.639   3.870  12.627  0.00  0.00    +0.000 A 
ATOM     20  C   UNL     1       6.759   2.812  11.750  0.00  0.00    +0.000 A 
ATOM     21  C   UNL     1       5.442   2.369  11.476  0.00  0.00    +0.000 A 
ATOM     22  C   UNL     1       4.606   3.184  12.202  0.00  0.00    +0.000 A 
ATOM     23  O   UNL     1       5.322   4.095  12.908  0.00  0.00    +0.000 OA
ENDBRANCH  18  19
ENDBRANCH  16  18
ENDBRANCH  13  15
ENDBRANCH   1  13
TORSDOF 5
ENDMDL
