MODEL 1
REMARK VINA RESULT:      -7.7      0.000      0.000
REMARK  Name = 
REMARK  5 active torsions:
REMARK  status: ('A' for Active; 'I' for Inactive)
REMARK    1  A    between atoms: C_1  and  C_2
REMARK    2  A    between atoms: C_3  and  C_4
REMARK    3  A    between atoms: C_4  and  C_5
REMARK    4  A    between atoms: C_5  and  N_6
REMARK    5  A    between atoms: C_20  and  C_22
REMARK                            x       y       z     vdW  Elec       q    Type
REMARK                         _______ _______ _______ _____ _____    ______ ____
ROOT
ATOM      1  C   UNL     1      -2.254  12.877  21.616  0.00  0.00    +0.000 C 
ATOM      2  C   UNL     1      -2.503  12.289  20.260  0.00  0.00    +0.000 A 
ATOM      3  C   UNL     1      -3.671  12.292  19.513  0.00  0.00    +0.000 A 
ATOM      4  C   UNL     1      -3.404  11.579  18.309  0.00  0.00    +0.000 A 
ATOM      5  C   UNL     1      -4.199  11.286  17.176  0.00  0.00    +0.000 A 
ATOM      6  C   UNL     1      -3.672  10.527  16.142  0.00  0.00    +0.000 A 
ATOM      7  F   UNL     1      -4.442  10.230  15.086  0.00  0.00    +0.000 F 
ATOM      8  C   UNL     1      -2.364  10.086  16.179  0.00  0.00    +0.000 A 
ATOM      9  C   UNL     1      -1.541  10.403  17.265  0.00  0.00    +0.000 A 
ATOM     10  C   UNL     1      -2.079  11.129  18.355  0.00  0.00    +0.000 A 
ATOM     11  N   UNL     1      -1.519  11.571  19.568  0.00  0.00    +0.000 N 
ATOM     12  C   UNL     1      -0.201  11.319  20.056  0.00  0.00    +0.000 C 
ATOM     13  O   UNL     1       0.237  12.051  20.938  0.00  0.00    +0.000 OA
ENDROOT
BRANCH  12  14
ATOM     14  C   UNL     1       0.636  10.167  19.656  0.00  0.00    +0.000 A 
ATOM     15  C   UNL     1       1.350  10.292  18.451  0.00  0.00    +0.000 A 
ATOM     16  C   UNL     1       2.190   9.270  18.025  0.00  0.00    +0.000 A 
ATOM     17  C   UNL     1       2.275   8.097  18.768  0.00  0.00    +0.000 A 
ATOM     18  C   UNL     1       1.515   7.936  19.932  0.00  0.00    +0.000 A 
ATOM     19 CL   UNL     1       1.664   6.423  20.760  0.00  0.00    +0.000 Cl
ATOM     20  C   UNL     1       0.687   8.974  20.394  0.00  0.00    +0.000 A 
ATOM     21 CL   UNL     1      -0.208   8.777  21.867  0.00  0.00    +0.000 Cl
ENDBRANCH  12  14
BRANCH   3  22
ATOM     22  C   UNL     1      -4.977  12.943  19.867  0.00  0.00    +0.000 C 
BRANCH  22  23
ATOM     23  C   UNL     1      -5.827  12.112  20.846  0.00  0.00    +0.000 C 
BRANCH  23  24
ATOM     24  N   UNL     1      -6.080  12.704  22.162  0.00  0.00    +0.000 NA
ATOM     25  C   UNL     1      -5.712  14.129  22.244  0.00  0.00    +0.000 C 
ATOM     26  C   UNL     1      -5.857  14.616  23.692  0.00  0.00    +0.000 C 
ATOM     27  O   UNL     1      -7.206  14.446  24.159  0.00  0.00    +0.000 OA
ATOM     28  C   UNL     1      -7.603  13.070  24.064  0.00  0.00    +0.000 C 
ATOM     29  C   UNL     1      -7.472  12.547  22.625  0.00  0.00    +0.000 C 
ENDBRANCH  23  24
ENDBRANCH  22  23
ENDBRANCH   3  22
TORSDOF 4
ENDMDL
MODEL 2
REMARK VINA RESULT:      -7.6      3.399      8.219
REMARK  Name = 
REMARK  5 active torsions:
REMARK  status: ('A' for Active; 'I' for Inactive)
REMARK    1  A    between atoms: C_1  and  C_2
REMARK    2  A    between atoms: C_3  and  C_4
REMARK    3  A    between atoms: C_4  and  C_5
REMARK    4  A    between atoms: C_5  and  N_6
REMARK    5  A    between atoms: C_20  and  C_22
REMARK                            x       y       z     vdW  Elec       q    Type
REMARK                         _______ _______ _______ _____ _____    ______ ____
ROOT
ATOM      1  C   UNL     1       1.724   9.213  21.928  0.00  0.00    +0.000 C 
ATOM      2  C   UNL     1       0.761   9.696  20.885  0.00  0.00    +0.000 A 
ATOM      3  C   UNL     1       0.802   9.510  19.512  0.00  0.00    +0.000 A 
ATOM      4  C   UNL     1      -0.322  10.188  18.959  0.00  0.00    +0.000 A 
ATOM      5  C   UNL     1      -0.801  10.321  17.636  0.00  0.00    +0.000 A 
ATOM      6  C   UNL     1      -1.930  11.086  17.385  0.00  0.00    +0.000 A 
ATOM      7  F   UNL     1      -2.359  11.231  16.123  0.00  0.00    +0.000 F 
ATOM      8  C   UNL     1      -2.624  11.687  18.415  0.00  0.00    +0.000 A 
ATOM      9  C   UNL     1      -2.201  11.530  19.740  0.00  0.00    +0.000 A 
ATOM     10  C   UNL     1      -1.018  10.800  20.009  0.00  0.00    +0.000 A 
ATOM     11  N   UNL     1      -0.345  10.493  21.205  0.00  0.00    +0.000 N 
ATOM     12  C   UNL     1      -0.679  10.931  22.523  0.00  0.00    +0.000 C 
ATOM     13  O   UNL     1      -0.218  10.306  23.473  0.00  0.00    +0.000 OA
ENDROOT
BRANCH  12  14
ATOM     14  C   UNL     1      -1.448  12.157  22.831  0.00  0.00    +0.000 A 
ATOM     15  C   UNL     1      -2.724  11.977  23.395  0.00  0.00    +0.000 A 
ATOM     16  C   UNL     1      -3.495  13.078  23.749  0.00  0.00    +0.000 A 
ATOM     17  C   UNL     1      -3.021  14.359  23.488  0.00  0.00    +0.000 A 
ATOM     18  C   UNL     1      -1.783  14.547  22.864  0.00  0.00    +0.000 A 
ATOM     19 CL   UNL     1      -1.305  16.180  22.549  0.00  0.00    +0.000 Cl
ATOM     20  C   UNL     1      -0.977  13.444  22.530  0.00  0.00    +0.000 A 
ATOM     21 CL   UNL     1       0.579  13.697  21.805  0.00  0.00    +0.000 Cl
ENDBRANCH  12  14
BRANCH   3  22
ATOM     22  C   UNL     1       1.813   8.720  18.730  0.00  0.00    +0.000 C 
BRANCH  22  23
ATOM     23  C   UNL     1       2.113   7.339  19.341  0.00  0.00    +0.000 C 
BRANCH  23  24
ATOM     24  N   UNL     1       2.519   6.284  18.410  0.00  0.00    +0.000 NA
ATOM     25  C   UNL     1       3.979   6.176  18.245  0.00  0.00    +0.000 C 
ATOM     26  C   UNL     1       4.300   5.164  17.137  0.00  0.00    +0.000 C 
ATOM     27  O   UNL     1       3.761   3.870  17.451  0.00  0.00    +0.000 OA
ATOM     28  C   UNL     1       2.342   3.948  17.646  0.00  0.00    +0.000 C 
ATOM     29  C   UNL     1       1.981   4.953  18.751  0.00  0.00    +0.000 C 
ENDBRANCH  23  24
ENDBRANCH  22  23
ENDBRANCH   3  22
TORSDOF 4
ENDMDL
MODEL 3
REMARK VINA RESULT:      -7.5      5.135      7.875
REMARK  Name = 
REMARK  5 active torsions:
REMARK  status: ('A' for Active; 'I' for Inactive)
REMARK    1  A    between atoms: C_1  and  C_2
REMARK    2  A    between atoms: C_3  and  C_4
REMARK    3  A    between atoms: C_4  and  C_5
REMARK    4  A    between atoms: C_5  and  N_6
REMARK    5  A    between atoms: C_20  and  C_22
REMARK                            x       y       z     vdW  Elec       q    Type
REMARK                         _______ _______ _______ _____ _____    ______ ____
ROOT
ATOM      1  C   UNL     1       2.356   8.803  18.523  0.00  0.00    +0.000 C 
ATOM      2  C   UNL     1       2.364   7.386  19.013  0.00  0.00    +0.000 A 
ATOM      3  C   UNL     1       1.767   6.854  20.144  0.00  0.00    +0.000 A 
ATOM      4  C   UNL     1       2.091   5.467  20.183  0.00  0.00    +0.000 A 
ATOM      5  C   UNL     1       1.744   4.430  21.078  0.00  0.00    +0.000 A 
ATOM      6  C   UNL     1       2.243   3.151  20.878  0.00  0.00    +0.000 A 
ATOM      7  F   UNL     1       1.933   2.181  21.749  0.00  0.00    +0.000 F 
ATOM      8  C   UNL     1       3.043   2.863  19.790  0.00  0.00    +0.000 A 
ATOM      9  C   UNL     1       3.361   3.860  18.862  0.00  0.00    +0.000 A 
ATOM     10  C   UNL     1       2.906   5.183  19.080  0.00  0.00    +0.000 A 
ATOM     11  N   UNL     1       3.076   6.375  18.354  0.00  0.00    +0.000 N 
ATOM     12  C   UNL     1       3.857   6.566  17.173  0.00  0.00    +0.000 C 
ATOM     13  O   UNL     1       3.622   7.551  16.479  0.00  0.00    +0.000 OA
ENDROOT
BRANCH  12  14
ATOM     14  C   UNL     1       5.010   5.725  16.784  0.00  0.00    +0.000 A 
ATOM     15  C   UNL     1       4.956   5.130  15.511  0.00  0.00    +0.000 A 
ATOM     16  C   UNL     1       6.017   4.357  15.053  0.00  0.00    +0.000 A 
ATOM     17  C   UNL     1       7.106   4.126  15.887  0.00  0.00    +0.000 A 
ATOM     18  C   UNL     1       7.137   4.657  17.181  0.00  0.00    +0.000 A 
ATOM     19 CL   UNL     1       8.520   4.277  18.150  0.00  0.00    +0.000 Cl
ATOM     20  C   UNL     1       6.087   5.468  17.646  0.00  0.00    +0.000 A 
ATOM     21 CL   UNL     1       6.166   6.162  19.234  0.00  0.00    +0.000 Cl
ENDBRANCH  12  14
BRANCH   3  22
ATOM     22  C   UNL     1       0.907   7.574  21.144  0.00  0.00    +0.000 C 
BRANCH  22  23
ATOM     23  C   UNL     1       1.635   8.733  21.851  0.00  0.00    +0.000 C 
BRANCH  23  24
ATOM     24  N   UNL     1       0.833   9.919  22.161  0.00  0.00    +0.000 NA
ATOM     25  C   UNL     1       0.653  10.823  21.011  0.00  0.00    +0.000 C 
ATOM     26  C   UNL     1      -0.053  12.106  21.469  0.00  0.00    +0.000 C 
ATOM     27  O   UNL     1      -1.336  11.809  22.044  0.00  0.00    +0.000 OA
ATOM     28  C   UNL     1      -1.196  10.907  23.152  0.00  0.00    +0.000 C 
ATOM     29  C   UNL     1      -0.492   9.607  22.730  0.00  0.00    +0.000 C 
ENDBRANCH  23  24
ENDBRANCH  22  23
ENDBRANCH   3  22
TORSDOF 4
ENDMDL
MODEL 4
REMARK VINA RESULT:      -7.4      1.178      1.587
REMARK  Name = 
REMARK  5 active torsions:
REMARK  status: ('A' for Active; 'I' for Inactive)
REMARK    1  A    between atoms: C_1  and  C_2
REMARK    2  A    between atoms: C_3  and  C_4
REMARK    3  A    between atoms: C_4  and  C_5
REMARK    4  A    between atoms: C_5  and  N_6
REMARK    5  A    between atoms: C_20  and  C_22
REMARK                            x       y       z     vdW  Elec       q    Type
REMARK                         _______ _______ _______ _____ _____    ______ ____
ROOT
ATOM      1  C   UNL     1      -0.316  13.563  21.759  0.00  0.00    +0.000 C 
ATOM      2  C   UNL     1      -1.128  12.857  20.715  0.00  0.00    +0.000 A 
ATOM      3  C   UNL     1      -2.479  12.984  20.431  0.00  0.00    +0.000 A 
ATOM      4  C   UNL     1      -2.776  12.077  19.373  0.00  0.00    +0.000 A 
ATOM      5  C   UNL     1      -3.967  11.794  18.665  0.00  0.00    +0.000 A 
ATOM      6  C   UNL     1      -3.967  10.815  17.682  0.00  0.00    +0.000 A 
ATOM      7  F   UNL     1      -5.108  10.532  17.037  0.00  0.00    +0.000 F 
ATOM      8  C   UNL     1      -2.810  10.139  17.352  0.00  0.00    +0.000 A 
ATOM      9  C   UNL     1      -1.607  10.436  18.003  0.00  0.00    +0.000 A 
ATOM     10  C   UNL     1      -1.600  11.392  19.046  0.00  0.00    +0.000 A 
ATOM     11  N   UNL     1      -0.576  11.877  19.880  0.00  0.00    +0.000 N 
ATOM     12  C   UNL     1       0.784  11.444  19.922  0.00  0.00    +0.000 C 
ATOM     13  O   UNL     1       1.612  12.189  20.438  0.00  0.00    +0.000 OA
ENDROOT
BRANCH  12  14
ATOM     14  C   UNL     1       1.254  10.108  19.492  0.00  0.00    +0.000 A 
ATOM     15  C   UNL     1       1.730  10.000  18.173  0.00  0.00    +0.000 A 
ATOM     16  C   UNL     1       2.226   8.790  17.704  0.00  0.00    +0.000 A 
ATOM     17  C   UNL     1       2.194   7.670  18.528  0.00  0.00    +0.000 A 
ATOM     18  C   UNL     1       1.658   7.752  19.818  0.00  0.00    +0.000 A 
ATOM     19 CL   UNL     1       1.629   6.291  20.747  0.00  0.00    +0.000 Cl
ATOM     20  C   UNL     1       1.184   8.976  20.319  0.00  0.00    +0.000 A 
ATOM     21 CL   UNL     1       0.571   9.071  21.940  0.00  0.00    +0.000 Cl
ENDBRANCH  12  14
BRANCH   3  22
ATOM     22  C   UNL     1      -3.462  13.917  21.080  0.00  0.00    +0.000 C 
BRANCH  22  23
ATOM     23  C   UNL     1      -4.907  13.714  20.591  0.00  0.00    +0.000 C 
BRANCH  23  24
ATOM     24  N   UNL     1      -5.890  13.305  21.598  0.00  0.00    +0.000 NA
ATOM     25  C   UNL     1      -6.680  12.126  21.202  0.00  0.00    +0.000 C 
ATOM     26  C   UNL     1      -7.784  11.874  22.237  0.00  0.00    +0.000 C 
ATOM     27  O   UNL     1      -7.225  11.654  23.542  0.00  0.00    +0.000 OA
ATOM     28  C   UNL     1      -6.425  12.776  23.944  0.00  0.00    +0.000 C 
ATOM     29  C   UNL     1      -5.305  13.058  22.930  0.00  0.00    +0.000 C 
ENDBRANCH  23  24
ENDBRANCH  22  23
ENDBRANCH   3  22
TORSDOF 4
ENDMDL
MODEL 5
REMARK VINA RESULT:      -7.3      1.606      1.919
REMARK  Name = 
REMARK  5 active torsions:
REMARK  status: ('A' for Active; 'I' for Inactive)
REMARK    1  A    between atoms: C_1  and  C_2
REMARK    2  A    between atoms: C_3  and  C_4
REMARK    3  A    between atoms: C_4  and  C_5
REMARK    4  A    between atoms: C_5  and  N_6
REMARK    5  A    between atoms: C_20  and  C_22
REMARK                            x       y       z     vdW  Elec       q    Type
REMARK                         _______ _______ _______ _____ _____    ______ ____
ROOT
ATOM      1  C   UNL     1      -1.068  12.897  22.107  0.00  0.00    +0.000 C 
ATOM      2  C   UNL     1      -1.517  12.291  20.811  0.00  0.00    +0.000 A 
ATOM      3  C   UNL     1      -2.701  12.496  20.120  0.00  0.00    +0.000 A 
ATOM      4  C   UNL     1      -2.664  11.668  18.961  0.00  0.00    +0.000 A 
ATOM      5  C   UNL     1      -3.570  11.481  17.892  0.00  0.00    +0.000 A 
ATOM      6  C   UNL     1      -3.277  10.563  16.894  0.00  0.00    +0.000 A 
ATOM      7  F   UNL     1      -4.156  10.371  15.900  0.00  0.00    +0.000 F 
ATOM      8  C   UNL     1      -2.092   9.856  16.904  0.00  0.00    +0.000 A 
ATOM      9  C   UNL     1      -1.156  10.058  17.924  0.00  0.00    +0.000 A 
ATOM     10  C   UNL     1      -1.462  10.950  18.980  0.00  0.00    +0.000 A 
ATOM     11  N   UNL     1      -0.750  11.337  20.130  0.00  0.00    +0.000 N 
ATOM     12  C   UNL     1       0.513  10.841  20.574  0.00  0.00    +0.000 C 
ATOM     13  O   UNL     1       1.148  11.516  21.378  0.00  0.00    +0.000 OA
ENDROOT
BRANCH  12  14
ATOM     14  C   UNL     1       1.064   9.513  20.223  0.00  0.00    +0.000 A 
ATOM     15  C   UNL     1       0.838   8.473  21.142  0.00  0.00    +0.000 A 
ATOM     16  C   UNL     1       1.288   7.186  20.870  0.00  0.00    +0.000 A 
ATOM     17  C   UNL     1       2.016   6.947  19.709  0.00  0.00    +0.000 A 
ATOM     18  C   UNL     1       2.305   7.990  18.822  0.00  0.00    +0.000 A 
ATOM     19 CL   UNL     1       3.251   7.592  17.428  0.00  0.00    +0.000 Cl
ATOM     20  C   UNL     1       1.828   9.289  19.068  0.00  0.00    +0.000 A 
ATOM     21 CL   UNL     1       2.151  10.560  17.931  0.00  0.00    +0.000 Cl
ENDBRANCH  12  14
BRANCH   3  22
ATOM     22  C   UNL     1      -3.818  13.433  20.484  0.00  0.00    +0.000 C 
BRANCH  22  23
ATOM     23  C   UNL     1      -4.820  12.826  21.483  0.00  0.00    +0.000 C 
BRANCH  23  24
ATOM     24  N   UNL     1      -5.195  13.662  22.626  0.00  0.00    +0.000 NA
ATOM     25  C   UNL     1      -4.290  14.806  22.838  0.00  0.00    +0.000 C 
ATOM     26  C   UNL     1      -4.661  15.523  24.143  0.00  0.00    +0.000 C 
ATOM     27  O   UNL     1      -6.019  15.992  24.103  0.00  0.00    +0.000 OA
ATOM     28  C   UNL     1      -6.923  14.902  23.870  0.00  0.00    +0.000 C 
ATOM     29  C   UNL     1      -6.582  14.160  22.568  0.00  0.00    +0.000 C 
ENDBRANCH  23  24
ENDBRANCH  22  23
ENDBRANCH   3  22
TORSDOF 4
ENDMDL
MODEL 6
REMARK VINA RESULT:      -7.3      1.528      2.020
REMARK  Name = 
REMARK  5 active torsions:
REMARK  status: ('A' for Active; 'I' for Inactive)
REMARK    1  A    between atoms: C_1  and  C_2
REMARK    2  A    between atoms: C_3  and  C_4
REMARK    3  A    between atoms: C_4  and  C_5
REMARK    4  A    between atoms: C_5  and  N_6
REMARK    5  A    between atoms: C_20  and  C_22
REMARK                            x       y       z     vdW  Elec       q    Type
REMARK                         _______ _______ _______ _____ _____    ______ ____
ROOT
ATOM      1  C   UNL     1      -0.894  12.939  22.103  0.00  0.00    +0.000 C 
ATOM      2  C   UNL     1      -1.394  12.326  20.830  0.00  0.00    +0.000 A 
ATOM      3  C   UNL     1      -2.598  12.539  20.177  0.00  0.00    +0.000 A 
ATOM      4  C   UNL     1      -2.611  11.700  19.027  0.00  0.00    +0.000 A 
ATOM      5  C   UNL     1      -3.554  11.514  17.990  0.00  0.00    +0.000 A 
ATOM      6  C   UNL     1      -3.307  10.582  16.993  0.00  0.00    +0.000 A 
ATOM      7  F   UNL     1      -4.221  10.391  16.031  0.00  0.00    +0.000 F 
ATOM      8  C   UNL     1      -2.131   9.859  16.970  0.00  0.00    +0.000 A 
ATOM      9  C   UNL     1      -1.159  10.060  17.956  0.00  0.00    +0.000 A 
ATOM     10  C   UNL     1      -1.418  10.966  19.013  0.00  0.00    +0.000 A 
ATOM     11  N   UNL     1      -0.662  11.356  20.133  0.00  0.00    +0.000 N 
ATOM     12  C   UNL     1       0.609  10.848  20.539  0.00  0.00    +0.000 C 
ATOM     13  O   UNL     1       1.280  11.523  21.315  0.00  0.00    +0.000 OA
ENDROOT
BRANCH  12  14
ATOM     14  C   UNL     1       1.131   9.510  20.185  0.00  0.00    +0.000 A 
ATOM     15  C   UNL     1       0.883   8.471  21.100  0.00  0.00    +0.000 A 
ATOM     16  C   UNL     1       1.305   7.177  20.823  0.00  0.00    +0.000 A 
ATOM     17  C   UNL     1       2.027   6.925  19.662  0.00  0.00    +0.000 A 
ATOM     18  C   UNL     1       2.339   7.965  18.778  0.00  0.00    +0.000 A 
ATOM     19 CL   UNL     1       3.276   7.551  17.383  0.00  0.00    +0.000 Cl
ATOM     20  C   UNL     1       1.890   9.273  19.028  0.00  0.00    +0.000 A 
ATOM     21 CL   UNL     1       2.240  10.541  17.896  0.00  0.00    +0.000 Cl
ENDBRANCH  12  14
BRANCH   3  22
ATOM     22  C   UNL     1      -3.690  13.494  20.570  0.00  0.00    +0.000 C 
BRANCH  22  23
ATOM     23  C   UNL     1      -4.848  12.817  21.324  0.00  0.00    +0.000 C 
BRANCH  23  24
ATOM     24  N   UNL     1      -5.760  13.701  22.056  0.00  0.00    +0.000 NA
ATOM     25  C   UNL     1      -6.948  13.010  22.587  0.00  0.00    +0.000 C 
ATOM     26  C   UNL     1      -7.916  14.036  23.190  0.00  0.00    +0.000 C 
ATOM     27  O   UNL     1      -7.286  14.777  24.248  0.00  0.00    +0.000 OA
ATOM     28  C   UNL     1      -6.107  15.440  23.767  0.00  0.00    +0.000 C 
ATOM     29  C   UNL     1      -5.112  14.441  23.156  0.00  0.00    +0.000 C 
ENDBRANCH  23  24
ENDBRANCH  22  23
ENDBRANCH   3  22
TORSDOF 4
ENDMDL
MODEL 7
REMARK VINA RESULT:      -7.1      1.386      1.836
REMARK  Name = 
REMARK  5 active torsions:
REMARK  status: ('A' for Active; 'I' for Inactive)
REMARK    1  A    between atoms: C_1  and  C_2
REMARK    2  A    between atoms: C_3  and  C_4
REMARK    3  A    between atoms: C_4  and  C_5
REMARK    4  A    between atoms: C_5  and  N_6
REMARK    5  A    between atoms: C_20  and  C_22
REMARK                            x       y       z     vdW  Elec       q    Type
REMARK                         _______ _______ _______ _____ _____    ______ ____
ROOT
ATOM      1  C   UNL     1      -0.895  13.032  21.924  0.00  0.00    +0.000 C 
ATOM      2  C   UNL     1      -1.465  12.441  20.669  0.00  0.00    +0.000 A 
ATOM      3  C   UNL     1      -2.740  12.582  20.144  0.00  0.00    +0.000 A 
ATOM      4  C   UNL     1      -2.796  11.801  18.954  0.00  0.00    +0.000 A 
ATOM      5  C   UNL     1      -3.817  11.586  18.000  0.00  0.00    +0.000 A 
ATOM      6  C   UNL     1      -3.594  10.729  16.932  0.00  0.00    +0.000 A 
ATOM      7  F   UNL     1      -4.579  10.508  16.050  0.00  0.00    +0.000 F 
ATOM      8  C   UNL     1      -2.371  10.112  16.760  0.00  0.00    +0.000 A 
ATOM      9  C   UNL     1      -1.327  10.347  17.662  0.00  0.00    +0.000 A 
ATOM     10  C   UNL     1      -1.555  11.174  18.787  0.00  0.00    +0.000 A 
ATOM     11  N   UNL     1      -0.728  11.572  19.854  0.00  0.00    +0.000 N 
ATOM     12  C   UNL     1       0.613  11.156  20.111  0.00  0.00    +0.000 C 
ATOM     13  O   UNL     1       1.299  11.847  20.858  0.00  0.00    +0.000 OA
ENDROOT
BRANCH  12  14
ATOM     14  C   UNL     1       1.204   9.886  19.634  0.00  0.00    +0.000 A 
ATOM     15  C   UNL     1       1.767   9.896  18.345  0.00  0.00    +0.000 A 
ATOM     16  C   UNL     1       2.378   8.755  17.838  0.00  0.00    +0.000 A 
ATOM     17  C   UNL     1       2.376   7.585  18.590  0.00  0.00    +0.000 A 
ATOM     18  C   UNL     1       1.758   7.547  19.845  0.00  0.00    +0.000 A 
ATOM     19 CL   UNL     1       1.778   6.031  20.681  0.00  0.00    +0.000 Cl
ATOM     20  C   UNL     1       1.166   8.701  20.386  0.00  0.00    +0.000 A 
ATOM     21 CL   UNL     1       0.450   8.650  21.965  0.00  0.00    +0.000 Cl
ENDBRANCH  12  14
BRANCH   3  22
ATOM     22  C   UNL     1      -3.862  13.419  20.689  0.00  0.00    +0.000 C 
BRANCH  22  23
ATOM     23  C   UNL     1      -3.948  13.396  22.226  0.00  0.00    +0.000 C 
BRANCH  23  24
ATOM     24  N   UNL     1      -4.235  14.673  22.886  0.00  0.00    +0.000 NA
ATOM     25  C   UNL     1      -5.623  14.783  23.371  0.00  0.00    +0.000 C 
ATOM     26  C   UNL     1      -5.875  16.203  23.895  0.00  0.00    +0.000 C 
ATOM     27  O   UNL     1      -4.971  16.523  24.966  0.00  0.00    +0.000 OA
ATOM     28  C   UNL     1      -3.609  16.397  24.531  0.00  0.00    +0.000 C 
ATOM     29  C   UNL     1      -3.319  14.984  23.999  0.00  0.00    +0.000 C 
ENDBRANCH  23  24
ENDBRANCH  22  23
ENDBRANCH   3  22
TORSDOF 4
ENDMDL
MODEL 8
REMARK VINA RESULT:      -7.1      3.313      7.848
REMARK  Name = 
REMARK  5 active torsions:
REMARK  status: ('A' for Active; 'I' for Inactive)
REMARK    1  A    between atoms: C_1  and  C_2
REMARK    2  A    between atoms: C_3  and  C_4
REMARK    3  A    between atoms: C_4  and  C_5
REMARK    4  A    between atoms: C_5  and  N_6
REMARK    5  A    between atoms: C_20  and  C_22
REMARK                            x       y       z     vdW  Elec       q    Type
REMARK                         _______ _______ _______ _____ _____    ______ ____
ROOT
ATOM      1  C   UNL     1       1.591   9.103  22.066  0.00  0.00    +0.000 C 
ATOM      2  C   UNL     1       0.681   9.584  20.976  0.00  0.00    +0.000 A 
ATOM      3  C   UNL     1       0.720   9.296  19.620  0.00  0.00    +0.000 A 
ATOM      4  C   UNL     1      -0.340  10.020  19.003  0.00  0.00    +0.000 A 
ATOM      5  C   UNL     1      -0.794  10.095  17.666  0.00  0.00    +0.000 A 
ATOM      6  C   UNL     1      -1.856  10.928  17.344  0.00  0.00    +0.000 A 
ATOM      7  F   UNL     1      -2.259  11.015  16.069  0.00  0.00    +0.000 F 
ATOM      8  C   UNL     1      -2.509  11.656  18.318  0.00  0.00    +0.000 A 
ATOM      9  C   UNL     1      -2.112  11.561  19.657  0.00  0.00    +0.000 A 
ATOM     10  C   UNL     1      -0.995  10.760  19.995  0.00  0.00    +0.000 A 
ATOM     11  N   UNL     1      -0.361  10.489  21.221  0.00  0.00    +0.000 N 
ATOM     12  C   UNL     1      -0.671  11.046  22.498  0.00  0.00    +0.000 C 
ATOM     13  O   UNL     1      -0.271  10.457  23.498  0.00  0.00    +0.000 OA
ENDROOT
BRANCH  12  14
ATOM     14  C   UNL     1      -1.341  12.348  22.706  0.00  0.00    +0.000 A 
ATOM     15  C   UNL     1      -2.634  12.312  23.260  0.00  0.00    +0.000 A 
ATOM     16  C   UNL     1      -3.317  13.494  23.524  0.00  0.00    +0.000 A 
ATOM     17  C   UNL     1      -2.738  14.711  23.180  0.00  0.00    +0.000 A 
ATOM     18  C   UNL     1      -1.482  14.753  22.565  0.00  0.00    +0.000 A 
ATOM     19 CL   UNL     1      -0.870  16.317  22.143  0.00  0.00    +0.000 Cl
ATOM     20  C   UNL     1      -0.764  13.569  22.323  0.00  0.00    +0.000 A 
ATOM     21 CL   UNL     1       0.815  13.643  21.608  0.00  0.00    +0.000 Cl
ENDBRANCH  12  14
BRANCH   3  22
ATOM     22  C   UNL     1       1.671   8.374  18.912  0.00  0.00    +0.000 C 
BRANCH  22  23
ATOM     23  C   UNL     1       2.409   7.414  19.863  0.00  0.00    +0.000 C 
BRANCH  23  24
ATOM     24  N   UNL     1       2.322   5.985  19.550  0.00  0.00    +0.000 NA
ATOM     25  C   UNL     1       1.295   5.275  20.332  0.00  0.00    +0.000 C 
ATOM     26  C   UNL     1       1.388   3.768  20.058  0.00  0.00    +0.000 C 
ATOM     27  O   UNL     1       1.199   3.487  18.662  0.00  0.00    +0.000 OA
ATOM     28  C   UNL     1       2.169   4.188  17.870  0.00  0.00    +0.000 C 
ATOM     29  C   UNL     1       2.105   5.704  18.118  0.00  0.00    +0.000 C 
ENDBRANCH  23  24
ENDBRANCH  22  23
ENDBRANCH   3  22
TORSDOF 4
ENDMDL
MODEL 9
REMARK VINA RESULT:      -7.1      1.664      1.935
REMARK  Name = 
REMARK  5 active torsions:
REMARK  status: ('A' for Active; 'I' for Inactive)
REMARK    1  A    between atoms: C_1  and  C_2
REMARK    2  A    between atoms: C_3  and  C_4
REMARK    3  A    between atoms: C_4  and  C_5
REMARK    4  A    between atoms: C_5  and  N_6
REMARK    5  A    between atoms: C_20  and  C_22
REMARK                            x       y       z     vdW  Elec       q    Type
REMARK                         _______ _______ _______ _____ _____    ______ ____
ROOT
ATOM      1  C   UNL     1      -1.116  12.808  22.338  0.00  0.00    +0.000 C 
ATOM      2  C   UNL     1      -1.664  12.343  21.022  0.00  0.00    +0.000 A 
ATOM      3  C   UNL     1      -2.943  12.496  20.510  0.00  0.00    +0.000 A 
ATOM      4  C   UNL     1      -2.969  11.854  19.239  0.00  0.00    +0.000 A 
ATOM      5  C   UNL     1      -3.981  11.711  18.262  0.00  0.00    +0.000 A 
ATOM      6  C   UNL     1      -3.726  10.990  17.105  0.00  0.00    +0.000 A 
ATOM      7  F   UNL     1      -4.701  10.834  16.199  0.00  0.00    +0.000 F 
ATOM      8  C   UNL     1      -2.481  10.442  16.869  0.00  0.00    +0.000 A 
ATOM      9  C   UNL     1      -1.447  10.611  17.797  0.00  0.00    +0.000 A 
ATOM     10  C   UNL     1      -1.706  11.296  19.008  0.00  0.00    +0.000 A 
ATOM     11  N   UNL     1      -0.895  11.601  20.116  0.00  0.00    +0.000 N 
ATOM     12  C   UNL     1       0.461  11.207  20.331  0.00  0.00    +0.000 C 
ATOM     13  O   UNL     1       1.120  11.834  21.155  0.00  0.00    +0.000 OA
ENDROOT
BRANCH  12  14
ATOM     14  C   UNL     1       1.100  10.023  19.716  0.00  0.00    +0.000 A 
ATOM     15  C   UNL     1       1.593  10.179  18.408  0.00  0.00    +0.000 A 
ATOM     16  C   UNL     1       2.242   9.126  17.774  0.00  0.00    +0.000 A 
ATOM     17  C   UNL     1       2.347   7.898  18.418  0.00  0.00    +0.000 A 
ATOM     18  C   UNL     1       1.798   7.713  19.691  0.00  0.00    +0.000 A 
ATOM     19 CL   UNL     1       1.949   6.135  20.387  0.00  0.00    +0.000 Cl
ATOM     20  C   UNL     1       1.169   8.778  20.360  0.00  0.00    +0.000 A 
ATOM     21 CL   UNL     1       0.539   8.546  21.960  0.00  0.00    +0.000 Cl
ENDBRANCH  12  14
BRANCH   3  22
ATOM     22  C   UNL     1      -4.095  13.224  21.142  0.00  0.00    +0.000 C 
BRANCH  22  23
ATOM     23  C   UNL     1      -3.783  14.696  21.464  0.00  0.00    +0.000 C 
BRANCH  23  24
ATOM     24  N   UNL     1      -4.147  15.166  22.804  0.00  0.00    +0.000 NA
ATOM     25  C   UNL     1      -3.007  15.708  23.565  0.00  0.00    +0.000 C 
ATOM     26  C   UNL     1      -3.448  16.020  25.001  0.00  0.00    +0.000 C 
ATOM     27  O   UNL     1      -4.524  16.973  25.013  0.00  0.00    +0.000 OA
ATOM     28  C   UNL     1      -5.640  16.484  24.254  0.00  0.00    +0.000 C 
ATOM     29  C   UNL     1      -5.236  16.161  22.807  0.00  0.00    +0.000 C 
ENDBRANCH  23  24
ENDBRANCH  22  23
ENDBRANCH   3  22
TORSDOF 4
ENDMDL
