MODEL 1
REMARK VINA RESULT:      -7.2      0.000      0.000
REMARK  Name = 
REMARK  8 active torsions:
REMARK  status: ('A' for Active; 'I' for Inactive)
REMARK    1  A    between atoms: C_1  and  O_2
REMARK    2  A    between atoms: O_2  and  C_3
REMARK    3  A    between atoms: N_5  and  C_6
REMARK    4  A    between atoms: C_6  and  C_7
REMARK    5  A    between atoms: C_7  and  C_8
REMARK    6  A    between atoms: N_10  and  C_11
REMARK    7  A    between atoms: C_11  and  C_12
REMARK    8  A    between atoms: C_12  and  C_13
REMARK                            x       y       z     vdW  Elec       q    Type
REMARK                         _______ _______ _______ _____ _____    ______ ____
ROOT
ATOM      1  C   UNL     1       6.106   4.561  18.778  0.00  0.00    +0.000 C 
ATOM      2  O   UNL     1       6.159   5.257  19.789  0.00  0.00    +0.000 OA
ATOM      3  N   UNL     1       5.063   3.700  18.516  0.00  0.00    +0.000 N 
ATOM      4  H   UNL     1       5.198   2.995  17.802  0.00  0.00    +0.000 HD
ENDROOT
BRANCH   1   5
ATOM      5  C   UNL     1       7.157   4.626  17.694  0.00  0.00    +0.000 C 
BRANCH   5   6
ATOM      6  C   UNL     1       6.641   5.491  16.550  0.00  0.00    +0.000 C 
BRANCH   6   9
ATOM      7  C   UNL     1       6.702   4.725  14.214  0.00  0.00    +0.000 C 
ATOM      8  O   UNL     1       7.711   5.341  13.913  0.00  0.00    +0.000 OA
ATOM      9  N   UNL     1       6.133   4.703  15.451  0.00  0.00    +0.000 N 
ATOM     10  H   UNL     1       5.287   4.162  15.550  0.00  0.00    +0.000 HD
BRANCH   7  12
ATOM     11  C   UNL     1       6.669   3.572  12.193  0.00  0.00    +0.000 C 
ATOM     12  O   UNL     1       5.966   3.957  13.374  0.00  0.00    +0.000 OA
ENDBRANCH   7  12
ENDBRANCH   6   9
ENDBRANCH   5   6
ENDBRANCH   1   5
BRANCH   3  13
ATOM     13  C   UNL     1       4.077   3.449  19.548  0.00  0.00    +0.000 C 
BRANCH  13  14
ATOM     14  C   UNL     1       2.668   3.909  19.211  0.00  0.00    +0.000 C 
ATOM     15  C   UNL     1       1.823   3.106  18.225  0.00  0.00    +0.000 C 
ATOM     16  C   UNL     1       1.459   3.102  19.679  0.00  0.00    +0.000 C 
BRANCH  14  17
ATOM     17  C   UNL     1       2.518   5.429  19.158  0.00  0.00    +0.000 A 
ATOM     18  C   UNL     1       2.831   6.147  17.989  0.00  0.00    +0.000 A 
ATOM     19  C   UNL     1       2.629   7.526  17.902  0.00  0.00    +0.000 A 
ATOM     20  C   UNL     1       2.114   8.221  18.994  0.00  0.00    +0.000 A 
ATOM     21  C   UNL     1       1.836   7.538  20.173  0.00  0.00    +0.000 A 
ATOM     22 CL   UNL     1       1.203   8.390  21.528  0.00  0.00    +0.000 Cl
ATOM     23  C   UNL     1       2.047   6.161  20.261  0.00  0.00    +0.000 A 
ENDBRANCH  14  17
ENDBRANCH  13  14
ENDBRANCH   3  13
TORSDOF 7
ENDMDL
MODEL 2
REMARK VINA RESULT:      -7.2      2.106      3.393
REMARK  Name = 
REMARK  8 active torsions:
REMARK  status: ('A' for Active; 'I' for Inactive)
REMARK    1  A    between atoms: C_1  and  O_2
REMARK    2  A    between atoms: O_2  and  C_3
REMARK    3  A    between atoms: N_5  and  C_6
REMARK    4  A    between atoms: C_6  and  C_7
REMARK    5  A    between atoms: C_7  and  C_8
REMARK    6  A    between atoms: N_10  and  C_11
REMARK    7  A    between atoms: C_11  and  C_12
REMARK    8  A    between atoms: C_12  and  C_13
REMARK                            x       y       z     vdW  Elec       q    Type
REMARK                         _______ _______ _______ _____ _____    ______ ____
ROOT
ATOM      1  C   UNL     1       5.356   5.266  16.484  0.00  0.00    +0.000 C 
ATOM      2  O   UNL     1       5.485   4.157  16.995  0.00  0.00    +0.000 OA
ATOM      3  N   UNL     1       4.944   6.372  17.194  0.00  0.00    +0.000 N 
ATOM      4  H   UNL     1       4.633   7.182  16.671  0.00  0.00    +0.000 HD
ENDROOT
BRANCH   1   5
ATOM      5  C   UNL     1       5.693   5.535  15.036  0.00  0.00    +0.000 C 
BRANCH   5   6
ATOM      6  C   UNL     1       6.732   4.522  14.568  0.00  0.00    +0.000 C 
BRANCH   6   9
ATOM      7  C   UNL     1       6.412   3.431  12.388  0.00  0.00    +0.000 C 
ATOM      8  O   UNL     1       7.173   4.163  11.776  0.00  0.00    +0.000 OA
ATOM      9  N   UNL     1       6.161   3.498  13.724  0.00  0.00    +0.000 N 
ATOM     10  H   UNL     1       5.493   2.837  14.093  0.00  0.00    +0.000 HD
BRANCH   7  12
ATOM     11  C   UNL     1       6.464   1.476  11.127  0.00  0.00    +0.000 C 
ATOM     12  O   UNL     1       5.681   2.425  11.849  0.00  0.00    +0.000 OA
ENDBRANCH   7  12
ENDBRANCH   6   9
ENDBRANCH   5   6
ENDBRANCH   1   5
BRANCH   3  13
ATOM     13  C   UNL     1       4.456   6.204  18.547  0.00  0.00    +0.000 C 
BRANCH  13  14
ATOM     14  C   UNL     1       2.952   6.349  18.709  0.00  0.00    +0.000 C 
ATOM     15  C   UNL     1       2.381   7.563  19.438  0.00  0.00    +0.000 C 
ATOM     16  C   UNL     1       2.196   7.441  17.955  0.00  0.00    +0.000 C 
BRANCH  14  17
ATOM     17  C   UNL     1       2.230   5.020  18.928  0.00  0.00    +0.000 A 
ATOM     18  C   UNL     1       1.739   4.274  17.841  0.00  0.00    +0.000 A 
ATOM     19  C   UNL     1       1.144   3.024  18.021  0.00  0.00    +0.000 A 
ATOM     20  C   UNL     1       1.018   2.494  19.303  0.00  0.00    +0.000 A 
ATOM     21  C   UNL     1       1.460   3.233  20.396  0.00  0.00    +0.000 A 
ATOM     22 CL   UNL     1       1.304   2.588  21.984  0.00  0.00    +0.000 Cl
ATOM     23  C   UNL     1       2.046   4.487  20.215  0.00  0.00    +0.000 A 
ENDBRANCH  14  17
ENDBRANCH  13  14
ENDBRANCH   3  13
TORSDOF 7
ENDMDL
MODEL 3
REMARK VINA RESULT:      -7.2      2.324      3.188
REMARK  Name = 
REMARK  8 active torsions:
REMARK  status: ('A' for Active; 'I' for Inactive)
REMARK    1  A    between atoms: C_1  and  O_2
REMARK    2  A    between atoms: O_2  and  C_3
REMARK    3  A    between atoms: N_5  and  C_6
REMARK    4  A    between atoms: C_6  and  C_7
REMARK    5  A    between atoms: C_7  and  C_8
REMARK    6  A    between atoms: N_10  and  C_11
REMARK    7  A    between atoms: C_11  and  C_12
REMARK    8  A    between atoms: C_12  and  C_13
REMARK                            x       y       z     vdW  Elec       q    Type
REMARK                         _______ _______ _______ _____ _____    ______ ____
ROOT
ATOM      1  C   UNL     1       5.296   3.976  17.701  0.00  0.00    +0.000 C 
ATOM      2  O   UNL     1       5.923   4.212  18.730  0.00  0.00    +0.000 OA
ATOM      3  N   UNL     1       4.034   3.425  17.704  0.00  0.00    +0.000 N 
ATOM      4  H   UNL     1       3.681   3.042  16.835  0.00  0.00    +0.000 HD
ENDROOT
BRANCH   1   5
ATOM      5  C   UNL     1       5.830   4.322  16.330  0.00  0.00    +0.000 C 
BRANCH   5   6
ATOM      6  C   UNL     1       7.242   4.878  16.470  0.00  0.00    +0.000 C 
BRANCH   6   9
ATOM      7  C   UNL     1       7.596   7.051  17.565  0.00  0.00    +0.000 C 
ATOM      8  O   UNL     1       7.956   6.589  18.635  0.00  0.00    +0.000 OA
ATOM      9  N   UNL     1       7.269   6.322  16.463  0.00  0.00    +0.000 N 
ATOM     10  H   UNL     1       6.971   6.840  15.649  0.00  0.00    +0.000 HD
BRANCH   7  12
ATOM     11  C   UNL     1       8.310   9.211  18.053  0.00  0.00    +0.000 C 
ATOM     12  O   UNL     1       7.454   8.370  17.282  0.00  0.00    +0.000 OA
ENDBRANCH   7  12
ENDBRANCH   6   9
ENDBRANCH   5   6
ENDBRANCH   1   5
BRANCH   3  13
ATOM     13  C   UNL     1       3.484   2.921  18.946  0.00  0.00    +0.000 C 
BRANCH  13  14
ATOM     14  C   UNL     1       2.087   3.421  19.277  0.00  0.00    +0.000 C 
ATOM     15  C   UNL     1       0.873   2.764  18.625  0.00  0.00    +0.000 C 
ATOM     16  C   UNL     1       1.128   2.552  20.087  0.00  0.00    +0.000 C 
BRANCH  14  17
ATOM     17  C   UNL     1       2.013   4.933  19.488  0.00  0.00    +0.000 A 
ATOM     18  C   UNL     1       1.595   5.472  20.718  0.00  0.00    +0.000 A 
ATOM     19  C   UNL     1       1.593   6.850  20.950  0.00  0.00    +0.000 A 
ATOM     20  C   UNL     1       2.005   7.722  19.945  0.00  0.00    +0.000 A 
ATOM     21  C   UNL     1       2.384   7.212  18.707  0.00  0.00    +0.000 A 
ATOM     22 CL   UNL     1       2.890   8.283  17.459  0.00  0.00    +0.000 Cl
ATOM     23  C   UNL     1       2.376   5.836  18.474  0.00  0.00    +0.000 A 
ENDBRANCH  14  17
ENDBRANCH  13  14
ENDBRANCH   3  13
TORSDOF 7
ENDMDL
MODEL 4
REMARK VINA RESULT:      -7.2      2.282      3.695
REMARK  Name = 
REMARK  8 active torsions:
REMARK  status: ('A' for Active; 'I' for Inactive)
REMARK    1  A    between atoms: C_1  and  O_2
REMARK    2  A    between atoms: O_2  and  C_3
REMARK    3  A    between atoms: N_5  and  C_6
REMARK    4  A    between atoms: C_6  and  C_7
REMARK    5  A    between atoms: C_7  and  C_8
REMARK    6  A    between atoms: N_10  and  C_11
REMARK    7  A    between atoms: C_11  and  C_12
REMARK    8  A    between atoms: C_12  and  C_13
REMARK                            x       y       z     vdW  Elec       q    Type
REMARK                         _______ _______ _______ _____ _____    ______ ____
ROOT
ATOM      1  C   UNL     1       5.343   5.255  15.772  0.00  0.00    +0.000 C 
ATOM      2  O   UNL     1       5.366   6.338  15.193  0.00  0.00    +0.000 OA
ATOM      3  N   UNL     1       4.861   5.102  17.053  0.00  0.00    +0.000 N 
ATOM      4  H   UNL     1       5.089   4.248  17.547  0.00  0.00    +0.000 HD
ENDROOT
BRANCH   1   5
ATOM      5  C   UNL     1       5.790   3.972  15.109  0.00  0.00    +0.000 C 
BRANCH   5   6
ATOM      6  C   UNL     1       6.408   4.299  13.755  0.00  0.00    +0.000 C 
BRANCH   6   9
ATOM      7  C   UNL     1       5.421   2.886  12.002  0.00  0.00    +0.000 C 
ATOM      8  O   UNL     1       4.436   3.585  11.825  0.00  0.00    +0.000 OA
ATOM      9  N   UNL     1       6.433   3.158  12.871  0.00  0.00    +0.000 N 
ATOM     10  H   UNL     1       7.179   2.479  12.924  0.00  0.00    +0.000 HD
BRANCH   7  12
ATOM     11  C   UNL     1       7.072   1.488  11.148  0.00  0.00    +0.000 C 
ATOM     12  O   UNL     1       5.682   1.717  11.368  0.00  0.00    +0.000 OA
ENDBRANCH   7  12
ENDBRANCH   6   9
ENDBRANCH   5   6
ENDBRANCH   1   5
BRANCH   3  13
ATOM     13  C   UNL     1       4.544   6.280  17.835  0.00  0.00    +0.000 C 
BRANCH  13  14
ATOM     14  C   UNL     1       3.080   6.414  18.224  0.00  0.00    +0.000 C 
ATOM     15  C   UNL     1       2.598   7.673  18.940  0.00  0.00    +0.000 C 
ATOM     16  C   UNL     1       2.183   7.429  17.521  0.00  0.00    +0.000 C 
BRANCH  14  17
ATOM     17  C   UNL     1       2.441   5.095  18.659  0.00  0.00    +0.000 A 
ATOM     18  C   UNL     1       1.622   4.363  17.781  0.00  0.00    +0.000 A 
ATOM     19  C   UNL     1       1.092   3.121  18.139  0.00  0.00    +0.000 A 
ATOM     20  C   UNL     1       1.366   2.587  19.396  0.00  0.00    +0.000 A 
ATOM     21  C   UNL     1       2.141   3.313  20.295  0.00  0.00    +0.000 A 
ATOM     22 CL   UNL     1       2.480   2.662  21.852  0.00  0.00    +0.000 Cl
ATOM     23  C   UNL     1       2.661   4.558  19.939  0.00  0.00    +0.000 A 
ENDBRANCH  14  17
ENDBRANCH  13  14
ENDBRANCH   3  13
TORSDOF 7
ENDMDL
MODEL 5
REMARK VINA RESULT:      -7.1      1.794      3.080
REMARK  Name = 
REMARK  8 active torsions:
REMARK  status: ('A' for Active; 'I' for Inactive)
REMARK    1  A    between atoms: C_1  and  O_2
REMARK    2  A    between atoms: O_2  and  C_3
REMARK    3  A    between atoms: N_5  and  C_6
REMARK    4  A    between atoms: C_6  and  C_7
REMARK    5  A    between atoms: C_7  and  C_8
REMARK    6  A    between atoms: N_10  and  C_11
REMARK    7  A    between atoms: C_11  and  C_12
REMARK    8  A    between atoms: C_12  and  C_13
REMARK                            x       y       z     vdW  Elec       q    Type
REMARK                         _______ _______ _______ _____ _____    ______ ____
ROOT
ATOM      1  C   UNL     1       6.718   5.265  18.829  0.00  0.00    +0.000 C 
ATOM      2  O   UNL     1       7.151   5.429  19.966  0.00  0.00    +0.000 OA
ATOM      3  N   UNL     1       5.449   5.643  18.451  0.00  0.00    +0.000 N 
ATOM      4  H   UNL     1       5.080   5.268  17.586  0.00  0.00    +0.000 HD
ENDROOT
BRANCH   1   5
ATOM      5  C   UNL     1       7.560   4.683  17.717  0.00  0.00    +0.000 C 
BRANCH   5   6
ATOM      6  C   UNL     1       7.402   5.543  16.469  0.00  0.00    +0.000 C 
BRANCH   6   9
ATOM      7  C   UNL     1       6.104   4.123  14.938  0.00  0.00    +0.000 C 
ATOM      8  O   UNL     1       5.058   4.202  15.560  0.00  0.00    +0.000 OA
ATOM      9  N   UNL     1       7.265   4.752  15.269  0.00  0.00    +0.000 N 
ATOM     10  H   UNL     1       8.060   4.581  14.669  0.00  0.00    +0.000 HD
BRANCH   7  12
ATOM     11  C   UNL     1       5.455   3.785  12.729  0.00  0.00    +0.000 C 
ATOM     12  O   UNL     1       6.299   3.395  13.811  0.00  0.00    +0.000 OA
ENDBRANCH   7  12
ENDBRANCH   6   9
ENDBRANCH   5   6
ENDBRANCH   1   5
BRANCH   3  13
ATOM     13  C   UNL     1       4.508   6.076  19.464  0.00  0.00    +0.000 C 
BRANCH  13  14
ATOM     14  C   UNL     1       3.067   6.190  18.993  0.00  0.00    +0.000 C 
ATOM     15  C   UNL     1       2.307   7.500  19.185  0.00  0.00    +0.000 C 
ATOM     16  C   UNL     1       2.711   7.079  17.804  0.00  0.00    +0.000 C 
BRANCH  14  17
ATOM     17  C   UNL     1       2.263   4.902  19.172  0.00  0.00    +0.000 A 
ATOM     18  C   UNL     1       1.707   4.236  18.065  0.00  0.00    +0.000 A 
ATOM     19  C   UNL     1       1.034   3.020  18.205  0.00  0.00    +0.000 A 
ATOM     20  C   UNL     1       0.894   2.448  19.467  0.00  0.00    +0.000 A 
ATOM     21  C   UNL     1       1.401   3.110  20.581  0.00  0.00    +0.000 A 
ATOM     22 CL   UNL     1       1.228   2.411  22.144  0.00  0.00    +0.000 Cl
ATOM     23  C   UNL     1       2.065   4.329  20.439  0.00  0.00    +0.000 A 
ENDBRANCH  14  17
ENDBRANCH  13  14
ENDBRANCH   3  13
TORSDOF 7
ENDMDL
MODEL 6
REMARK VINA RESULT:      -7.1      1.879      3.259
REMARK  Name = 
REMARK  8 active torsions:
REMARK  status: ('A' for Active; 'I' for Inactive)
REMARK    1  A    between atoms: C_1  and  O_2
REMARK    2  A    between atoms: O_2  and  C_3
REMARK    3  A    between atoms: N_5  and  C_6
REMARK    4  A    between atoms: C_6  and  C_7
REMARK    5  A    between atoms: C_7  and  C_8
REMARK    6  A    between atoms: N_10  and  C_11
REMARK    7  A    between atoms: C_11  and  C_12
REMARK    8  A    between atoms: C_12  and  C_13
REMARK                            x       y       z     vdW  Elec       q    Type
REMARK                         _______ _______ _______ _____ _____    ______ ____
ROOT
ATOM      1  C   UNL     1       6.294   6.717  17.689  0.00  0.00    +0.000 C 
ATOM      2  O   UNL     1       6.614   7.661  16.971  0.00  0.00    +0.000 OA
ATOM      3  N   UNL     1       4.984   6.340  17.888  0.00  0.00    +0.000 N 
ATOM      4  H   UNL     1       4.781   5.721  18.664  0.00  0.00    +0.000 HD
ENDROOT
BRANCH   1   5
ATOM      5  C   UNL     1       7.314   5.840  18.378  0.00  0.00    +0.000 C 
BRANCH   5   6
ATOM      6  C   UNL     1       7.493   4.557  17.575  0.00  0.00    +0.000 C 
BRANCH   6   9
ATOM      7  C   UNL     1       6.449   4.498  15.350  0.00  0.00    +0.000 C 
ATOM      8  O   UNL     1       5.373   4.069  15.734  0.00  0.00    +0.000 OA
ATOM      9  N   UNL     1       7.508   4.795  16.151  0.00  0.00    +0.000 N 
ATOM     10  H   UNL     1       8.344   5.128  15.692  0.00  0.00    +0.000 HD
BRANCH   7  12
ATOM     11  C   UNL     1       6.381   3.724  13.157  0.00  0.00    +0.000 C 
ATOM     12  O   UNL     1       6.782   4.752  14.061  0.00  0.00    +0.000 OA
ENDBRANCH   7  12
ENDBRANCH   6   9
ENDBRANCH   5   6
ENDBRANCH   1   5
BRANCH   3  13
ATOM     13  C   UNL     1       3.920   7.192  17.397  0.00  0.00    +0.000 C 
BRANCH  13  14
ATOM     14  C   UNL     1       2.614   7.092  18.168  0.00  0.00    +0.000 C 
ATOM     15  C   UNL     1       2.221   8.200  19.143  0.00  0.00    +0.000 C 
ATOM     16  C   UNL     1       1.460   8.044  17.861  0.00  0.00    +0.000 C 
BRANCH  14  17
ATOM     17  C   UNL     1       2.254   5.664  18.579  0.00  0.00    +0.000 A 
ATOM     18  C   UNL     1       1.845   4.717  17.623  0.00  0.00    +0.000 A 
ATOM     19  C   UNL     1       1.585   3.390  17.973  0.00  0.00    +0.000 A 
ATOM     20  C   UNL     1       1.723   2.983  19.298  0.00  0.00    +0.000 A 
ATOM     21  C   UNL     1       2.087   3.913  20.267  0.00  0.00    +0.000 A 
ATOM     22 CL   UNL     1       2.255   3.420  21.907  0.00  0.00    +0.000 Cl
ATOM     23  C   UNL     1       2.337   5.241  19.917  0.00  0.00    +0.000 A 
ENDBRANCH  14  17
ENDBRANCH  13  14
ENDBRANCH   3  13
TORSDOF 7
ENDMDL
MODEL 7
REMARK VINA RESULT:      -7.1      2.147      4.182
REMARK  Name = 
REMARK  8 active torsions:
REMARK  status: ('A' for Active; 'I' for Inactive)
REMARK    1  A    between atoms: C_1  and  O_2
REMARK    2  A    between atoms: O_2  and  C_3
REMARK    3  A    between atoms: N_5  and  C_6
REMARK    4  A    between atoms: C_6  and  C_7
REMARK    5  A    between atoms: C_7  and  C_8
REMARK    6  A    between atoms: N_10  and  C_11
REMARK    7  A    between atoms: C_11  and  C_12
REMARK    8  A    between atoms: C_12  and  C_13
REMARK                            x       y       z     vdW  Elec       q    Type
REMARK                         _______ _______ _______ _____ _____    ______ ____
ROOT
ATOM      1  C   UNL     1       6.761   4.737  15.168  0.00  0.00    +0.000 C 
ATOM      2  O   UNL     1       7.507   5.702  15.021  0.00  0.00    +0.000 OA
ATOM      3  N   UNL     1       6.627   4.072  16.367  0.00  0.00    +0.000 N 
ATOM      4  H   UNL     1       6.190   3.159  16.357  0.00  0.00    +0.000 HD
ENDROOT
BRANCH   1   5
ATOM      5  C   UNL     1       5.875   4.222  14.059  0.00  0.00    +0.000 C 
BRANCH   5   6
ATOM      6  C   UNL     1       6.706   4.056  12.792  0.00  0.00    +0.000 C 
BRANCH   6   9
ATOM      7  C   UNL     1       5.275   2.500  11.536  0.00  0.00    +0.000 C 
ATOM      8  O   UNL     1       4.330   3.266  11.431  0.00  0.00    +0.000 OA
ATOM      9  N   UNL     1       6.462   2.793  12.134  0.00  0.00    +0.000 N 
ATOM     10  H   UNL     1       7.149   2.054  12.163  0.00  0.00    +0.000 HD
BRANCH   7  12
ATOM     11  C   UNL     1       6.613   0.642  11.122  0.00  0.00    +0.000 C 
ATOM     12  O   UNL     1       5.311   1.224  11.081  0.00  0.00    +0.000 OA
ENDBRANCH   7  12
ENDBRANCH   6   9
ENDBRANCH   5   6
ENDBRANCH   1   5
BRANCH   3  13
ATOM     13  C   UNL     1       7.531   4.385  17.455  0.00  0.00    +0.000 C 
BRANCH  13  14
ATOM     14  C   UNL     1       7.083   5.529  18.351  0.00  0.00    +0.000 C 
ATOM     15  C   UNL     1       7.939   5.934  19.548  0.00  0.00    +0.000 C 
ATOM     16  C   UNL     1       7.852   6.847  18.363  0.00  0.00    +0.000 C 
BRANCH  14  17
ATOM     17  C   UNL     1       5.568   5.599  18.540  0.00  0.00    +0.000 A 
ATOM     18  C   UNL     1       4.888   4.629  19.299  0.00  0.00    +0.000 A 
ATOM     19  C   UNL     1       3.516   4.721  19.542  0.00  0.00    +0.000 A 
ATOM     20  C   UNL     1       2.789   5.788  19.020  0.00  0.00    +0.000 A 
ATOM     21  C   UNL     1       3.435   6.737  18.233  0.00  0.00    +0.000 A 
ATOM     22 CL   UNL     1       2.543   8.057  17.581  0.00  0.00    +0.000 Cl
ATOM     23  C   UNL     1       4.804   6.638  17.983  0.00  0.00    +0.000 A 
ENDBRANCH  14  17
ENDBRANCH  13  14
ENDBRANCH   3  13
TORSDOF 7
ENDMDL
MODEL 8
REMARK VINA RESULT:      -7.1      3.336      6.332
REMARK  Name = 
REMARK  8 active torsions:
REMARK  status: ('A' for Active; 'I' for Inactive)
REMARK    1  A    between atoms: C_1  and  O_2
REMARK    2  A    between atoms: O_2  and  C_3
REMARK    3  A    between atoms: N_5  and  C_6
REMARK    4  A    between atoms: C_6  and  C_7
REMARK    5  A    between atoms: C_7  and  C_8
REMARK    6  A    between atoms: N_10  and  C_11
REMARK    7  A    between atoms: C_11  and  C_12
REMARK    8  A    between atoms: C_12  and  C_13
REMARK                            x       y       z     vdW  Elec       q    Type
REMARK                         _______ _______ _______ _____ _____    ______ ____
ROOT
ATOM      1  C   UNL     1       2.494   5.428  18.349  0.00  0.00    +0.000 C 
ATOM      2  O   UNL     1       1.694   4.565  17.997  0.00  0.00    +0.000 OA
ATOM      3  N   UNL     1       3.713   5.613  17.734  0.00  0.00    +0.000 N 
ATOM      4  H   UNL     1       4.409   6.167  18.217  0.00  0.00    +0.000 HD
ENDROOT
BRANCH   1   5
ATOM      5  C   UNL     1       2.192   6.410  19.457  0.00  0.00    +0.000 C 
BRANCH   5   6
ATOM      6  C   UNL     1       1.750   5.642  20.698  0.00  0.00    +0.000 C 
BRANCH   6   9
ATOM      7  C   UNL     1       2.182   3.281  21.233  0.00  0.00    +0.000 C 
ATOM      8  O   UNL     1       1.020   2.922  21.135  0.00  0.00    +0.000 OA
ATOM      9  N   UNL     1       2.636   4.545  21.010  0.00  0.00    +0.000 N 
ATOM     10  H   UNL     1       3.625   4.701  21.146  0.00  0.00    +0.000 HD
BRANCH   7  12
ATOM     11  C   UNL     1       4.164   2.288  20.526  0.00  0.00    +0.000 C 
ATOM     12  O   UNL     1       3.225   2.489  21.582  0.00  0.00    +0.000 OA
ENDBRANCH   7  12
ENDBRANCH   6   9
ENDBRANCH   5   6
ENDBRANCH   1   5
BRANCH   3  13
ATOM     13  C   UNL     1       4.169   4.641  16.761  0.00  0.00    +0.000 C 
BRANCH  13  14
ATOM     14  C   UNL     1       5.565   4.890  16.214  0.00  0.00    +0.000 C 
ATOM     15  C   UNL     1       6.218   3.855  15.301  0.00  0.00    +0.000 C 
ATOM     16  C   UNL     1       5.775   5.167  14.728  0.00  0.00    +0.000 C 
BRANCH  14  17
ATOM     17  C   UNL     1       6.487   5.609  17.199  0.00  0.00    +0.000 A 
ATOM     18  C   UNL     1       7.055   4.926  18.290  0.00  0.00    +0.000 A 
ATOM     19  C   UNL     1       7.957   5.551  19.154  0.00  0.00    +0.000 A 
ATOM     20  C   UNL     1       8.305   6.884  18.948  0.00  0.00    +0.000 A 
ATOM     21  C   UNL     1       7.724   7.589  17.899  0.00  0.00    +0.000 A 
ATOM     22 CL   UNL     1       8.146   9.238  17.640  0.00  0.00    +0.000 Cl
ATOM     23  C   UNL     1       6.816   6.966  17.042  0.00  0.00    +0.000 A 
ENDBRANCH  14  17
ENDBRANCH  13  14
ENDBRANCH   3  13
TORSDOF 7
ENDMDL
MODEL 9
REMARK VINA RESULT:      -7.0      1.456      1.757
REMARK  Name = 
REMARK  8 active torsions:
REMARK  status: ('A' for Active; 'I' for Inactive)
REMARK    1  A    between atoms: C_1  and  O_2
REMARK    2  A    between atoms: O_2  and  C_3
REMARK    3  A    between atoms: N_5  and  C_6
REMARK    4  A    between atoms: C_6  and  C_7
REMARK    5  A    between atoms: C_7  and  C_8
REMARK    6  A    between atoms: N_10  and  C_11
REMARK    7  A    between atoms: C_11  and  C_12
REMARK    8  A    between atoms: C_12  and  C_13
REMARK                            x       y       z     vdW  Elec       q    Type
REMARK                         _______ _______ _______ _____ _____    ______ ____
ROOT
ATOM      1  C   UNL     1       5.946   5.178  18.798  0.00  0.00    +0.000 C 
ATOM      2  O   UNL     1       5.934   4.066  19.319  0.00  0.00    +0.000 OA
ATOM      3  N   UNL     1       4.802   5.813  18.365  0.00  0.00    +0.000 N 
ATOM      4  H   UNL     1       4.906   6.603  17.740  0.00  0.00    +0.000 HD
ENDROOT
BRANCH   1   5
ATOM      5  C   UNL     1       7.214   5.982  18.633  0.00  0.00    +0.000 C 
BRANCH   5   6
ATOM      6  C   UNL     1       7.233   6.605  17.242  0.00  0.00    +0.000 C 
BRANCH   6   9
ATOM      7  C   UNL     1       6.479   5.198  15.372  0.00  0.00    +0.000 C 
ATOM      8  O   UNL     1       5.333   5.619  15.361  0.00  0.00    +0.000 OA
ATOM      9  N   UNL     1       7.466   5.628  16.204  0.00  0.00    +0.000 N 
ATOM     10  H   UNL     1       8.365   5.177  16.112  0.00  0.00    +0.000 HD
BRANCH   7  12
ATOM     11  C   UNL     1       6.086   3.869  13.503  0.00  0.00    +0.000 C 
ATOM     12  O   UNL     1       6.971   4.229  14.562  0.00  0.00    +0.000 OA
ENDBRANCH   7  12
ENDBRANCH   6   9
ENDBRANCH   5   6
ENDBRANCH   1   5
BRANCH   3  13
ATOM     13  C   UNL     1       3.553   5.080  18.339  0.00  0.00    +0.000 C 
BRANCH  13  14
ATOM     14  C   UNL     1       2.533   5.518  19.378  0.00  0.00    +0.000 C 
ATOM     15  C   UNL     1       1.436   4.552  19.818  0.00  0.00    +0.000 C 
ATOM     16  C   UNL     1       2.537   4.900  20.773  0.00  0.00    +0.000 C 
BRANCH  14  17
ATOM     17  C   UNL     1       2.139   6.991  19.263  0.00  0.00    +0.000 A 
ATOM     18  C   UNL     1       2.191   7.660  18.027  0.00  0.00    +0.000 A 
ATOM     19  C   UNL     1       1.764   8.983  17.893  0.00  0.00    +0.000 A 
ATOM     20  C   UNL     1       1.281   9.671  19.004  0.00  0.00    +0.000 A 
ATOM     21  C   UNL     1       1.258   9.041  20.244  0.00  0.00    +0.000 A 
ATOM     22 CL   UNL     1       0.666   9.885  21.623  0.00  0.00    +0.000 Cl
ATOM     23  C   UNL     1       1.694   7.722  20.378  0.00  0.00    +0.000 A 
ENDBRANCH  14  17
ENDBRANCH  13  14
ENDBRANCH   3  13
TORSDOF 7
ENDMDL
