MODEL 1
REMARK VINA RESULT:      -7.2      0.000      0.000
REMARK  Name = 
REMARK  12 active torsions:
REMARK  status: ('A' for Active; 'I' for Inactive)
REMARK    1  A    between atoms: C_1  and  C_2
REMARK    2  A    between atoms: C_2  and  N_3
REMARK    3  A    between atoms: N_3  and  C_4
REMARK    4  A    between atoms: N_3  and  C_6
REMARK    5  A    between atoms: C_4  and  C_5
REMARK    6  A    between atoms: C_6  and  C_7
REMARK    7  A    between atoms: C_7  and  O_8
REMARK    8  A    between atoms: O_8  and  C_9
REMARK    9  A    between atoms: C_9  and  O_10
REMARK   10  A    between atoms: O_10  and  C_11
REMARK   11  A    between atoms: C_11  and  C_13
REMARK   12  A    between atoms: C_13  and  C_14
REMARK                            x       y       z     vdW  Elec       q    Type
REMARK                         _______ _______ _______ _____ _____    ______ ____
ROOT
ATOM      1  C   UNL     1       2.426   4.852  19.333  0.00  0.00    +0.000 C 
ATOM      2  C   UNL     1       1.367   4.081  18.491  0.00  0.00    +0.000 C 
ATOM      3  C   UNL     1       1.443   2.563  18.683  0.00  0.00    +0.000 C 
ATOM      4  C   UNL     1       1.313   2.179  20.151  0.00  0.00    +0.000 C 
ATOM      5  C   UNL     1       2.355   2.883  21.011  0.00  0.00    +0.000 C 
ATOM      6  C   UNL     1       2.315   4.400  20.821  0.00  0.00    +0.000 C 
ENDROOT
BRANCH   1   7
ATOM      7  C   UNL     1       2.160   6.380  19.259  0.00  0.00    +0.000 A 
ATOM      8  C   UNL     1       2.215   7.052  18.021  0.00  0.00    +0.000 A 
ATOM      9  C   UNL     1       1.911   8.412  17.911  0.00  0.00    +0.000 A 
ATOM     10  C   UNL     1       1.541   9.143  19.039  0.00  0.00    +0.000 A 
ATOM     11 CL   UNL     1       1.140  10.809  18.824  0.00  0.00    +0.000 Cl
ATOM     12  C   UNL     1       1.500   8.510  20.281  0.00  0.00    +0.000 A 
ATOM     13 CL   UNL     1       1.039   9.344  21.726  0.00  0.00    +0.000 Cl
ATOM     14  C   UNL     1       1.819   7.147  20.389  0.00  0.00    +0.000 A 
ENDBRANCH   1   7
BRANCH   1  15
ATOM     15  C   UNL     1       3.807   4.482  18.741  0.00  0.00    +0.000 C 
ATOM     16  O   UNL     1       3.980   4.183  17.563  0.00  0.00    +0.000 OA
BRANCH  15  17
ATOM     17  O   UNL     1       4.808   4.589  19.653  0.00  0.00    +0.000 OA
BRANCH  17  18
ATOM     18  C   UNL     1       5.914   5.396  19.245  0.00  0.00    +0.000 C 
BRANCH  18  19
ATOM     19  O   UNL     1       7.082   4.620  19.015  0.00  0.00    +0.000 OA
BRANCH  19  20
ATOM     20  C   UNL     1       7.526   4.615  17.658  0.00  0.00    +0.000 C 
BRANCH  20  21
ATOM     21  C   UNL     1       7.253   5.922  16.889  0.00  0.00    +0.000 C 
BRANCH  21  22
ATOM     22  N   UNL     1       6.756   5.744  15.508  0.00  0.00    +0.000 NA
BRANCH  22  24
ATOM     23  C   UNL     1       6.009   3.877  13.971  0.00  0.00    +0.000 C 
ATOM     24  C   UNL     1       6.985   4.367  15.034  0.00  0.00    +0.000 C 
ENDBRANCH  22  24
BRANCH  22  25
ATOM     25  C   UNL     1       5.370   6.214  15.369  0.00  0.00    +0.000 C 
ATOM     26  C   UNL     1       4.929   7.304  16.342  0.00  0.00    +0.000 C 
ENDBRANCH  22  25
ENDBRANCH  21  22
ENDBRANCH  20  21
ENDBRANCH  19  20
ENDBRANCH  18  19
ENDBRANCH  17  18
ENDBRANCH  15  17
ENDBRANCH   1  15
TORSDOF 10
ENDMDL
MODEL 2
REMARK VINA RESULT:      -7.0      0.898      1.070
REMARK  Name = 
REMARK  12 active torsions:
REMARK  status: ('A' for Active; 'I' for Inactive)
REMARK    1  A    between atoms: C_1  and  C_2
REMARK    2  A    between atoms: C_2  and  N_3
REMARK    3  A    between atoms: N_3  and  C_4
REMARK    4  A    between atoms: N_3  and  C_6
REMARK    5  A    between atoms: C_4  and  C_5
REMARK    6  A    between atoms: C_6  and  C_7
REMARK    7  A    between atoms: C_7  and  O_8
REMARK    8  A    between atoms: O_8  and  C_9
REMARK    9  A    between atoms: C_9  and  O_10
REMARK   10  A    between atoms: O_10  and  C_11
REMARK   11  A    between atoms: C_11  and  C_13
REMARK   12  A    between atoms: C_13  and  C_14
REMARK                            x       y       z     vdW  Elec       q    Type
REMARK                         _______ _______ _______ _____ _____    ______ ____
ROOT
ATOM      1  C   UNL     1       2.095   4.929  19.447  0.00  0.00    +0.000 C 
ATOM      2  C   UNL     1       1.902   4.477  17.969  0.00  0.00    +0.000 C 
ATOM      3  C   UNL     1       1.853   2.953  17.815  0.00  0.00    +0.000 C 
ATOM      4  C   UNL     1       0.767   2.338  18.688  0.00  0.00    +0.000 C 
ATOM      5  C   UNL     1       0.935   2.725  20.151  0.00  0.00    +0.000 C 
ATOM      6  C   UNL     1       1.010   4.242  20.331  0.00  0.00    +0.000 C 
ENDROOT
BRANCH   1   7
ATOM      7  C   UNL     1       1.924   6.468  19.562  0.00  0.00    +0.000 A 
ATOM      8  C   UNL     1       2.183   7.297  18.451  0.00  0.00    +0.000 A 
ATOM      9  C   UNL     1       1.970   8.678  18.502  0.00  0.00    +0.000 A 
ATOM     10  C   UNL     1       1.490   9.273  19.667  0.00  0.00    +0.000 A 
ATOM     11 CL   UNL     1       1.212  10.978  19.646  0.00  0.00    +0.000 Cl
ATOM     12  C   UNL     1       1.246   8.481  20.790  0.00  0.00    +0.000 A 
ATOM     13 CL   UNL     1       0.639   9.141  22.269  0.00  0.00    +0.000 Cl
ATOM     14  C   UNL     1       1.474   7.097  20.738  0.00  0.00    +0.000 A 
ENDBRANCH   1   7
BRANCH   1  15
ATOM     15  C   UNL     1       3.516   4.479  19.859  0.00  0.00    +0.000 C 
ATOM     16  O   UNL     1       3.734   3.572  20.658  0.00  0.00    +0.000 OA
BRANCH  15  17
ATOM     17  O   UNL     1       4.489   5.154  19.192  0.00  0.00    +0.000 OA
BRANCH  17  18
ATOM     18  C   UNL     1       5.657   4.389  18.891  0.00  0.00    +0.000 C 
BRANCH  18  19
ATOM     19  O   UNL     1       6.850   5.117  19.151  0.00  0.00    +0.000 OA
BRANCH  19  20
ATOM     20  C   UNL     1       7.671   5.328  18.002  0.00  0.00    +0.000 C 
BRANCH  20  21
ATOM     21  C   UNL     1       7.208   4.582  16.736  0.00  0.00    +0.000 C 
BRANCH  21  22
ATOM     22  N   UNL     1       6.688   5.446  15.655  0.00  0.00    +0.000 NA
BRANCH  22  24
ATOM     23  C   UNL     1       6.207   3.886  13.721  0.00  0.00    +0.000 C 
ATOM     24  C   UNL     1       7.109   4.951  14.332  0.00  0.00    +0.000 C 
ENDBRANCH  22  24
BRANCH  22  25
ATOM     25  C   UNL     1       5.241   5.669  15.791  0.00  0.00    +0.000 C 
ATOM     26  C   UNL     1       4.817   7.051  16.276  0.00  0.00    +0.000 C 
ENDBRANCH  22  25
ENDBRANCH  21  22
ENDBRANCH  20  21
ENDBRANCH  19  20
ENDBRANCH  18  19
ENDBRANCH  17  18
ENDBRANCH  15  17
ENDBRANCH   1  15
TORSDOF 10
ENDMDL
MODEL 3
REMARK VINA RESULT:      -6.9      0.911      1.726
REMARK  Name = 
REMARK  12 active torsions:
REMARK  status: ('A' for Active; 'I' for Inactive)
REMARK    1  A    between atoms: C_1  and  C_2
REMARK    2  A    between atoms: C_2  and  N_3
REMARK    3  A    between atoms: N_3  and  C_4
REMARK    4  A    between atoms: N_3  and  C_6
REMARK    5  A    between atoms: C_4  and  C_5
REMARK    6  A    between atoms: C_6  and  C_7
REMARK    7  A    between atoms: C_7  and  O_8
REMARK    8  A    between atoms: O_8  and  C_9
REMARK    9  A    between atoms: C_9  and  O_10
REMARK   10  A    between atoms: O_10  and  C_11
REMARK   11  A    between atoms: C_11  and  C_13
REMARK   12  A    between atoms: C_13  and  C_14
REMARK                            x       y       z     vdW  Elec       q    Type
REMARK                         _______ _______ _______ _____ _____    ______ ____
ROOT
ATOM      1  C   UNL     1       2.138   5.082  19.403  0.00  0.00    +0.000 C 
ATOM      2  C   UNL     1       1.958   4.636  17.922  0.00  0.00    +0.000 C 
ATOM      3  C   UNL     1       1.989   3.114  17.750  0.00  0.00    +0.000 C 
ATOM      4  C   UNL     1       0.944   2.433  18.623  0.00  0.00    +0.000 C 
ATOM      5  C   UNL     1       1.102   2.812  20.090  0.00  0.00    +0.000 C 
ATOM      6  C   UNL     1       1.097   4.328  20.287  0.00  0.00    +0.000 C 
ENDROOT
BRANCH   1   7
ATOM      7  C   UNL     1       1.886   6.608  19.538  0.00  0.00    +0.000 A 
ATOM      8  C   UNL     1       1.937   7.439  18.399  0.00  0.00    +0.000 A 
ATOM      9  C   UNL     1       1.645   8.805  18.476  0.00  0.00    +0.000 A 
ATOM     10  C   UNL     1       1.291   9.381  19.694  0.00  0.00    +0.000 A 
ATOM     11 CL   UNL     1       0.904  11.065  19.708  0.00  0.00    +0.000 Cl
ATOM     12  C   UNL     1       1.254   8.588  20.841  0.00  0.00    +0.000 A 
ATOM     13 CL   UNL     1       0.812   9.224  22.388  0.00  0.00    +0.000 Cl
ATOM     14  C   UNL     1       1.561   7.220  20.762  0.00  0.00    +0.000 A 
ENDBRANCH   1   7
BRANCH   1  15
ATOM     15  C   UNL     1       3.584   4.704  19.801  0.00  0.00    +0.000 C 
ATOM     16  O   UNL     1       3.856   3.787  20.571  0.00  0.00    +0.000 OA
BRANCH  15  17
ATOM     17  O   UNL     1       4.513   5.455  19.154  0.00  0.00    +0.000 OA
BRANCH  17  18
ATOM     18  C   UNL     1       5.870   5.095  19.416  0.00  0.00    +0.000 C 
BRANCH  18  19
ATOM     19  O   UNL     1       6.398   4.243  18.409  0.00  0.00    +0.000 OA
BRANCH  19  20
ATOM     20  C   UNL     1       7.581   4.740  17.780  0.00  0.00    +0.000 C 
BRANCH  20  21
ATOM     21  C   UNL     1       7.389   5.196  16.321  0.00  0.00    +0.000 C 
BRANCH  21  22
ATOM     22  N   UNL     1       6.124   4.765  15.691  0.00  0.00    +0.000 NA
BRANCH  22  24
ATOM     23  C   UNL     1       4.803   6.849  16.257  0.00  0.00    +0.000 C 
ATOM     24  C   UNL     1       5.362   5.922  15.185  0.00  0.00    +0.000 C 
ENDBRANCH  22  24
BRANCH  22  25
ATOM     25  C   UNL     1       6.349   3.702  14.700  0.00  0.00    +0.000 C 
ATOM     26  C   UNL     1       5.599   3.844  13.380  0.00  0.00    +0.000 C 
ENDBRANCH  22  25
ENDBRANCH  21  22
ENDBRANCH  20  21
ENDBRANCH  19  20
ENDBRANCH  18  19
ENDBRANCH  17  18
ENDBRANCH  15  17
ENDBRANCH   1  15
TORSDOF 10
ENDMDL
MODEL 4
REMARK VINA RESULT:      -6.8      2.161      3.215
REMARK  Name = 
REMARK  12 active torsions:
REMARK  status: ('A' for Active; 'I' for Inactive)
REMARK    1  A    between atoms: C_1  and  C_2
REMARK    2  A    between atoms: C_2  and  N_3
REMARK    3  A    between atoms: N_3  and  C_4
REMARK    4  A    between atoms: N_3  and  C_6
REMARK    5  A    between atoms: C_4  and  C_5
REMARK    6  A    between atoms: C_6  and  C_7
REMARK    7  A    between atoms: C_7  and  O_8
REMARK    8  A    between atoms: O_8  and  C_9
REMARK    9  A    between atoms: C_9  and  O_10
REMARK   10  A    between atoms: O_10  and  C_11
REMARK   11  A    between atoms: C_11  and  C_13
REMARK   12  A    between atoms: C_13  and  C_14
REMARK                            x       y       z     vdW  Elec       q    Type
REMARK                         _______ _______ _______ _____ _____    ______ ____
ROOT
ATOM      1  C   UNL     1       3.828   4.852  18.610  0.00  0.00    +0.000 C 
ATOM      2  C   UNL     1       3.196   4.054  17.431  0.00  0.00    +0.000 C 
ATOM      3  C   UNL     1       3.672   2.599  17.375  0.00  0.00    +0.000 C 
ATOM      4  C   UNL     1       3.408   1.874  18.688  0.00  0.00    +0.000 C 
ATOM      5  C   UNL     1       4.038   2.600  19.869  0.00  0.00    +0.000 C 
ATOM      6  C   UNL     1       3.596   4.063  19.935  0.00  0.00    +0.000 C 
ENDROOT
BRANCH   1   7
ATOM      7  C   UNL     1       3.150   6.243  18.739  0.00  0.00    +0.000 A 
ATOM      8  C   UNL     1       3.181   7.151  17.660  0.00  0.00    +0.000 A 
ATOM      9  C   UNL     1       2.521   8.382  17.719  0.00  0.00    +0.000 A 
ATOM     10  C   UNL     1       1.805   8.742  18.859  0.00  0.00    +0.000 A 
ATOM     11 CL   UNL     1       0.979  10.259  18.847  0.00  0.00    +0.000 Cl
ATOM     12  C   UNL     1       1.774   7.873  19.951  0.00  0.00    +0.000 A 
ATOM     13 CL   UNL     1       0.900   8.240  21.397  0.00  0.00    +0.000 Cl
ATOM     14  C   UNL     1       2.451   6.644  19.892  0.00  0.00    +0.000 A 
ENDBRANCH   1   7
BRANCH   1  15
ATOM     15  C   UNL     1       5.337   4.978  18.293  0.00  0.00    +0.000 C 
ATOM     16  O   UNL     1       6.210   4.997  19.156  0.00  0.00    +0.000 OA
BRANCH  15  17
ATOM     17  O   UNL     1       5.587   4.998  16.958  0.00  0.00    +0.000 OA
BRANCH  17  18
ATOM     18  C   UNL     1       6.803   4.364  16.561  0.00  0.00    +0.000 C 
BRANCH  18  19
ATOM     19  O   UNL     1       7.050   4.511  15.169  0.00  0.00    +0.000 OA
BRANCH  19  20
ATOM     20  C   UNL     1       5.946   4.157  14.336  0.00  0.00    +0.000 C 
BRANCH  20  21
ATOM     21  C   UNL     1       6.336   3.635  12.940  0.00  0.00    +0.000 C 
BRANCH  21  22
ATOM     22  N   UNL     1       5.278   2.881  12.234  0.00  0.00    +0.000 NA
BRANCH  22  24
ATOM     23  C   UNL     1       3.370   3.117  10.588  0.00  0.00    +0.000 C 
ATOM     24  C   UNL     1       4.353   3.792  11.537  0.00  0.00    +0.000 C 
ENDBRANCH  22  24
BRANCH  22  25
ATOM     25  C   UNL     1       5.845   1.822  11.387  0.00  0.00    +0.000 C 
ATOM     26  C   UNL     1       7.346   1.901  11.125  0.00  0.00    +0.000 C 
ENDBRANCH  22  25
ENDBRANCH  21  22
ENDBRANCH  20  21
ENDBRANCH  19  20
ENDBRANCH  18  19
ENDBRANCH  17  18
ENDBRANCH  15  17
ENDBRANCH   1  15
TORSDOF 10
ENDMDL
MODEL 5
REMARK VINA RESULT:      -6.7      0.665      1.587
REMARK  Name = 
REMARK  12 active torsions:
REMARK  status: ('A' for Active; 'I' for Inactive)
REMARK    1  A    between atoms: C_1  and  C_2
REMARK    2  A    between atoms: C_2  and  N_3
REMARK    3  A    between atoms: N_3  and  C_4
REMARK    4  A    between atoms: N_3  and  C_6
REMARK    5  A    between atoms: C_4  and  C_5
REMARK    6  A    between atoms: C_6  and  C_7
REMARK    7  A    between atoms: C_7  and  O_8
REMARK    8  A    between atoms: O_8  and  C_9
REMARK    9  A    between atoms: C_9  and  O_10
REMARK   10  A    between atoms: O_10  and  C_11
REMARK   11  A    between atoms: C_11  and  C_13
REMARK   12  A    between atoms: C_13  and  C_14
REMARK                            x       y       z     vdW  Elec       q    Type
REMARK                         _______ _______ _______ _____ _____    ______ ____
ROOT
ATOM      1  C   UNL     1       2.348   4.929  19.702  0.00  0.00    +0.000 C 
ATOM      2  C   UNL     1       1.122   4.152  19.139  0.00  0.00    +0.000 C 
ATOM      3  C   UNL     1       1.169   2.654  19.455  0.00  0.00    +0.000 C 
ATOM      4  C   UNL     1       1.295   2.403  20.952  0.00  0.00    +0.000 C 
ATOM      5  C   UNL     1       2.504   3.116  21.543  0.00  0.00    +0.000 C 
ATOM      6  C   UNL     1       2.492   4.611  21.222  0.00  0.00    +0.000 C 
ENDROOT
BRANCH   1   7
ATOM      7  C   UNL     1       2.136   6.458  19.534  0.00  0.00    +0.000 A 
ATOM      8  C   UNL     1       2.363   7.074  18.286  0.00  0.00    +0.000 A 
ATOM      9  C   UNL     1       2.114   8.435  18.085  0.00  0.00    +0.000 A 
ATOM     10  C   UNL     1       1.627   9.222  19.127  0.00  0.00    +0.000 A 
ATOM     11 CL   UNL     1       1.302  10.886  18.797  0.00  0.00    +0.000 Cl
ATOM     12  C   UNL     1       1.414   8.644  20.379  0.00  0.00    +0.000 A 
ATOM     13 CL   UNL     1       0.800   9.550  21.719  0.00  0.00    +0.000 Cl
ATOM     14  C   UNL     1       1.679   7.280  20.580  0.00  0.00    +0.000 A 
ENDBRANCH   1   7
BRANCH   1  15
ATOM     15  C   UNL     1       3.581   4.432  18.910  0.00  0.00    +0.000 C 
ATOM     16  O   UNL     1       3.518   3.995  17.764  0.00  0.00    +0.000 OA
BRANCH  15  17
ATOM     17  O   UNL     1       4.740   4.594  19.600  0.00  0.00    +0.000 OA
BRANCH  17  18
ATOM     18  C   UNL     1       5.767   5.299  18.900  0.00  0.00    +0.000 C 
BRANCH  18  19
ATOM     19  O   UNL     1       6.870   4.460  18.587  0.00  0.00    +0.000 OA
BRANCH  19  20
ATOM     20  C   UNL     1       7.250   4.479  17.211  0.00  0.00    +0.000 C 
BRANCH  20  21
ATOM     21  C   UNL     1       6.187   3.925  16.243  0.00  0.00    +0.000 C 
BRANCH  21  22
ATOM     22  N   UNL     1       5.946   4.747  15.039  0.00  0.00    +0.000 NA
BRANCH  22  24
ATOM     23  C   UNL     1       4.790   6.835  15.882  0.00  0.00    +0.000 C 
ATOM     24  C   UNL     1       6.060   6.185  15.345  0.00  0.00    +0.000 C 
ENDBRANCH  22  24
BRANCH  22  25
ATOM     25  C   UNL     1       6.769   4.298  13.906  0.00  0.00    +0.000 C 
ATOM     26  C   UNL     1       6.043   3.519  12.814  0.00  0.00    +0.000 C 
ENDBRANCH  22  25
ENDBRANCH  21  22
ENDBRANCH  20  21
ENDBRANCH  19  20
ENDBRANCH  18  19
ENDBRANCH  17  18
ENDBRANCH  15  17
ENDBRANCH   1  15
TORSDOF 10
ENDMDL
MODEL 6
REMARK VINA RESULT:      -6.7      4.107      6.128
REMARK  Name = 
REMARK  12 active torsions:
REMARK  status: ('A' for Active; 'I' for Inactive)
REMARK    1  A    between atoms: C_1  and  C_2
REMARK    2  A    between atoms: C_2  and  N_3
REMARK    3  A    between atoms: N_3  and  C_4
REMARK    4  A    between atoms: N_3  and  C_6
REMARK    5  A    between atoms: C_4  and  C_5
REMARK    6  A    between atoms: C_6  and  C_7
REMARK    7  A    between atoms: C_7  and  O_8
REMARK    8  A    between atoms: O_8  and  C_9
REMARK    9  A    between atoms: C_9  and  O_10
REMARK   10  A    between atoms: O_10  and  C_11
REMARK   11  A    between atoms: C_11  and  C_13
REMARK   12  A    between atoms: C_13  and  C_14
REMARK                            x       y       z     vdW  Elec       q    Type
REMARK                         _______ _______ _______ _____ _____    ______ ____
ROOT
ATOM      1  C   UNL     1       5.277   4.731  17.355  0.00  0.00    +0.000 C 
ATOM      2  C   UNL     1       4.657   5.879  16.505  0.00  0.00    +0.000 C 
ATOM      3  C   UNL     1       5.481   6.208  15.256  0.00  0.00    +0.000 C 
ATOM      4  C   UNL     1       5.688   4.976  14.384  0.00  0.00    +0.000 C 
ATOM      5  C   UNL     1       6.326   3.834  15.165  0.00  0.00    +0.000 C 
ATOM      6  C   UNL     1       5.535   3.502  16.430  0.00  0.00    +0.000 C 
ENDROOT
BRANCH   1   7
ATOM      7  C   UNL     1       4.295   4.306  18.480  0.00  0.00    +0.000 A 
ATOM      8  C   UNL     1       4.320   2.990  18.985  0.00  0.00    +0.000 A 
ATOM      9  C   UNL     1       3.498   2.596  20.045  0.00  0.00    +0.000 A 
ATOM     10  C   UNL     1       2.625   3.509  20.634  0.00  0.00    +0.000 A 
ATOM     11 CL   UNL     1       1.668   2.966  21.966  0.00  0.00    +0.000 Cl
ATOM     12  C   UNL     1       2.562   4.813  20.140  0.00  0.00    +0.000 A 
ATOM     13 CL   UNL     1       1.514   6.008  20.823  0.00  0.00    +0.000 Cl
ATOM     14  C   UNL     1       3.380   5.199  19.067  0.00  0.00    +0.000 A 
ENDBRANCH   1   7
BRANCH   1  15
ATOM     15  C   UNL     1       6.603   5.282  17.931  0.00  0.00    +0.000 C 
ATOM     16  O   UNL     1       7.585   4.580  18.159  0.00  0.00    +0.000 OA
BRANCH  15  17
ATOM     17  O   UNL     1       6.578   6.630  18.093  0.00  0.00    +0.000 OA
BRANCH  17  18
ATOM     18  C   UNL     1       7.714   7.323  17.572  0.00  0.00    +0.000 C 
BRANCH  18  19
ATOM     19  O   UNL     1       8.441   7.994  18.592  0.00  0.00    +0.000 OA
BRANCH  19  20
ATOM     20  C   UNL     1       8.558   9.404  18.399  0.00  0.00    +0.000 C 
BRANCH  20  21
ATOM     21  C   UNL     1       9.214  10.160  19.571  0.00  0.00    +0.000 C 
BRANCH  21  22
ATOM     22  N   UNL     1       9.747  11.497  19.234  0.00  0.00    +0.000 NA
BRANCH  22  24
ATOM     23  C   UNL     1      10.160  13.237  21.025  0.00  0.00    +0.000 C 
ATOM     24  C   UNL     1      10.646  11.992  20.293  0.00  0.00    +0.000 C 
ENDBRANCH  22  24
BRANCH  22  25
ATOM     25  C   UNL     1      10.325  11.522  17.882  0.00  0.00    +0.000 C 
ATOM     26  C   UNL     1      11.703  12.163  17.752  0.00  0.00    +0.000 C 
ENDBRANCH  22  25
ENDBRANCH  21  22
ENDBRANCH  20  21
ENDBRANCH  19  20
ENDBRANCH  18  19
ENDBRANCH  17  18
ENDBRANCH  15  17
ENDBRANCH   1  15
TORSDOF 10
ENDMDL
MODEL 7
REMARK VINA RESULT:      -6.7      1.029      1.716
REMARK  Name = 
REMARK  12 active torsions:
REMARK  status: ('A' for Active; 'I' for Inactive)
REMARK    1  A    between atoms: C_1  and  C_2
REMARK    2  A    between atoms: C_2  and  N_3
REMARK    3  A    between atoms: N_3  and  C_4
REMARK    4  A    between atoms: N_3  and  C_6
REMARK    5  A    between atoms: C_4  and  C_5
REMARK    6  A    between atoms: C_6  and  C_7
REMARK    7  A    between atoms: C_7  and  O_8
REMARK    8  A    between atoms: O_8  and  C_9
REMARK    9  A    between atoms: C_9  and  O_10
REMARK   10  A    between atoms: O_10  and  C_11
REMARK   11  A    between atoms: C_11  and  C_13
REMARK   12  A    between atoms: C_13  and  C_14
REMARK                            x       y       z     vdW  Elec       q    Type
REMARK                         _______ _______ _______ _____ _____    ______ ____
ROOT
ATOM      1  C   UNL     1       2.088   5.127  19.505  0.00  0.00    +0.000 C 
ATOM      2  C   UNL     1       2.010   4.805  17.984  0.00  0.00    +0.000 C 
ATOM      3  C   UNL     1       2.124   3.307  17.686  0.00  0.00    +0.000 C 
ATOM      4  C   UNL     1       1.068   2.506  18.437  0.00  0.00    +0.000 C 
ATOM      5  C   UNL     1       1.128   2.763  19.937  0.00  0.00    +0.000 C 
ATOM      6  C   UNL     1       1.039   4.254  20.260  0.00  0.00    +0.000 C 
ENDROOT
BRANCH   1   7
ATOM      7  C   UNL     1       1.756   6.624  19.753  0.00  0.00    +0.000 A 
ATOM      8  C   UNL     1       1.292   7.049  21.016  0.00  0.00    +0.000 A 
ATOM      9  C   UNL     1       1.052   8.398  21.292  0.00  0.00    +0.000 A 
ATOM     10  C   UNL     1       1.270   9.366  20.312  0.00  0.00    +0.000 A 
ATOM     11 CL   UNL     1       0.992  11.017  20.735  0.00  0.00    +0.000 Cl
ATOM     12  C   UNL     1       1.707   8.972  19.047  0.00  0.00    +0.000 A 
ATOM     13 CL   UNL     1       2.012  10.112  17.782  0.00  0.00    +0.000 Cl
ATOM     14  C   UNL     1       1.934   7.615  18.771  0.00  0.00    +0.000 A 
ENDBRANCH   1   7
BRANCH   1  15
ATOM     15  C   UNL     1       3.527   4.779  19.952  0.00  0.00    +0.000 C 
ATOM     16  O   UNL     1       3.796   3.843  20.700  0.00  0.00    +0.000 OA
BRANCH  15  17
ATOM     17  O   UNL     1       4.459   5.582  19.375  0.00  0.00    +0.000 OA
BRANCH  17  18
ATOM     18  C   UNL     1       5.787   5.057  19.364  0.00  0.00    +0.000 C 
BRANCH  18  19
ATOM     19  O   UNL     1       6.041   4.278  18.204  0.00  0.00    +0.000 OA
BRANCH  19  20
ATOM     20  C   UNL     1       7.269   4.590  17.545  0.00  0.00    +0.000 C 
BRANCH  20  21
ATOM     21  C   UNL     1       7.281   5.949  16.819  0.00  0.00    +0.000 C 
BRANCH  21  22
ATOM     22  N   UNL     1       6.672   5.946  15.472  0.00  0.00    +0.000 NA
BRANCH  22  24
ATOM     23  C   UNL     1       6.186   3.874  14.102  0.00  0.00    +0.000 C 
ATOM     24  C   UNL     1       7.218   4.855  14.645  0.00  0.00    +0.000 C 
ENDBRANCH  22  24
BRANCH  22  25
ATOM     25  C   UNL     1       5.204   5.980  15.544  0.00  0.00    +0.000 C 
ATOM     26  C   UNL     1       4.598   7.103  16.380  0.00  0.00    +0.000 C 
ENDBRANCH  22  25
ENDBRANCH  21  22
ENDBRANCH  20  21
ENDBRANCH  19  20
ENDBRANCH  18  19
ENDBRANCH  17  18
ENDBRANCH  15  17
ENDBRANCH   1  15
TORSDOF 10
ENDMDL
MODEL 8
REMARK VINA RESULT:      -6.7      4.145      5.827
REMARK  Name = 
REMARK  12 active torsions:
REMARK  status: ('A' for Active; 'I' for Inactive)
REMARK    1  A    between atoms: C_1  and  C_2
REMARK    2  A    between atoms: C_2  and  N_3
REMARK    3  A    between atoms: N_3  and  C_4
REMARK    4  A    between atoms: N_3  and  C_6
REMARK    5  A    between atoms: C_4  and  C_5
REMARK    6  A    between atoms: C_6  and  C_7
REMARK    7  A    between atoms: C_7  and  O_8
REMARK    8  A    between atoms: O_8  and  C_9
REMARK    9  A    between atoms: C_9  and  O_10
REMARK   10  A    between atoms: O_10  and  C_11
REMARK   11  A    between atoms: C_11  and  C_13
REMARK   12  A    between atoms: C_13  and  C_14
REMARK                            x       y       z     vdW  Elec       q    Type
REMARK                         _______ _______ _______ _____ _____    ______ ____
ROOT
ATOM      1  C   UNL     1       5.233   5.666  16.930  0.00  0.00    +0.000 C 
ATOM      2  C   UNL     1       5.103   6.267  15.499  0.00  0.00    +0.000 C 
ATOM      3  C   UNL     1       6.033   5.596  14.484  0.00  0.00    +0.000 C 
ATOM      4  C   UNL     1       5.808   4.090  14.432  0.00  0.00    +0.000 C 
ATOM      5  C   UNL     1       5.960   3.450  15.806  0.00  0.00    +0.000 C 
ATOM      6  C   UNL     1       5.057   4.118  16.844  0.00  0.00    +0.000 C 
ENDROOT
BRANCH   1   7
ATOM      7  C   UNL     1       4.124   6.238  17.854  0.00  0.00    +0.000 A 
ATOM      8  C   UNL     1       3.806   5.591  19.066  0.00  0.00    +0.000 A 
ATOM      9  C   UNL     1       2.862   6.120  19.953  0.00  0.00    +0.000 A 
ATOM     10  C   UNL     1       2.209   7.314  19.654  0.00  0.00    +0.000 A 
ATOM     11 CL   UNL     1       1.087   7.931  20.814  0.00  0.00    +0.000 Cl
ATOM     12  C   UNL     1       2.487   7.965  18.452  0.00  0.00    +0.000 A 
ATOM     13 CL   UNL     1       1.728   9.456  18.014  0.00  0.00    +0.000 Cl
ATOM     14  C   UNL     1       3.425   7.423  17.558  0.00  0.00    +0.000 A 
ENDBRANCH   1   7
BRANCH   1  15
ATOM     15  C   UNL     1       6.647   6.039  17.434  0.00  0.00    +0.000 C 
ATOM     16  O   UNL     1       7.381   5.256  18.030  0.00  0.00    +0.000 OA
BRANCH  15  17
ATOM     17  O   UNL     1       7.004   7.303  17.086  0.00  0.00    +0.000 OA
BRANCH  17  18
ATOM     18  C   UNL     1       7.983   7.909  17.933  0.00  0.00    +0.000 C 
BRANCH  18  19
ATOM     19  O   UNL     1       7.900   9.327  17.910  0.00  0.00    +0.000 OA
BRANCH  19  20
ATOM     20  C   UNL     1       9.061   9.990  18.412  0.00  0.00    +0.000 C 
BRANCH  20  21
ATOM     21  C   UNL     1       9.019  11.527  18.305  0.00  0.00    +0.000 C 
BRANCH  21  22
ATOM     22  N   UNL     1      10.228  12.223  18.795  0.00  0.00    +0.000 NA
BRANCH  22  24
ATOM     23  C   UNL     1       9.852  12.552  21.276  0.00  0.00    +0.000 C 
ATOM     24  C   UNL     1      10.569  11.796  20.164  0.00  0.00    +0.000 C 
ENDBRANCH  22  24
BRANCH  22  25
ATOM     25  C   UNL     1      11.334  12.124  17.831  0.00  0.00    +0.000 C 
ATOM     26  C   UNL     1      11.396  13.212  16.764  0.00  0.00    +0.000 C 
ENDBRANCH  22  25
ENDBRANCH  21  22
ENDBRANCH  20  21
ENDBRANCH  19  20
ENDBRANCH  18  19
ENDBRANCH  17  18
ENDBRANCH  15  17
ENDBRANCH   1  15
TORSDOF 10
ENDMDL
MODEL 9
REMARK VINA RESULT:      -6.7      3.470      4.262
REMARK  Name = 
REMARK  12 active torsions:
REMARK  status: ('A' for Active; 'I' for Inactive)
REMARK    1  A    between atoms: C_1  and  C_2
REMARK    2  A    between atoms: C_2  and  N_3
REMARK    3  A    between atoms: N_3  and  C_4
REMARK    4  A    between atoms: N_3  and  C_6
REMARK    5  A    between atoms: C_4  and  C_5
REMARK    6  A    between atoms: C_6  and  C_7
REMARK    7  A    between atoms: C_7  and  O_8
REMARK    8  A    between atoms: O_8  and  C_9
REMARK    9  A    between atoms: C_9  and  O_10
REMARK   10  A    between atoms: O_10  and  C_11
REMARK   11  A    between atoms: C_11  and  C_13
REMARK   12  A    between atoms: C_13  and  C_14
REMARK                            x       y       z     vdW  Elec       q    Type
REMARK                         _______ _______ _______ _____ _____    ______ ____
ROOT
ATOM      1  C   UNL     1       3.623   5.917  18.255  0.00  0.00    +0.000 C 
ATOM      2  C   UNL     1       2.729   4.889  17.501  0.00  0.00    +0.000 C 
ATOM      3  C   UNL     1       3.415   3.533  17.307  0.00  0.00    +0.000 C 
ATOM      4  C   UNL     1       3.872   2.943  18.635  0.00  0.00    +0.000 C 
ATOM      5  C   UNL     1       4.779   3.902  19.395  0.00  0.00    +0.000 C 
ATOM      6  C   UNL     1       4.126   5.271  19.583  0.00  0.00    +0.000 C 
ENDROOT
BRANCH   1   7
ATOM      7  C   UNL     1       2.800   7.187  18.605  0.00  0.00    +0.000 A 
ATOM      8  C   UNL     1       2.594   8.189  17.634  0.00  0.00    +0.000 A 
ATOM      9  C   UNL     1       1.800   9.310  17.895  0.00  0.00    +0.000 A 
ATOM     10  C   UNL     1       1.184   9.461  19.136  0.00  0.00    +0.000 A 
ATOM     11 CL   UNL     1       0.183  10.848  19.376  0.00  0.00    +0.000 Cl
ATOM     12  C   UNL     1       1.387   8.496  20.124  0.00  0.00    +0.000 A 
ATOM     13 CL   UNL     1       0.650   8.605  21.684  0.00  0.00    +0.000 Cl
ATOM     14  C   UNL     1       2.197   7.380  19.861  0.00  0.00    +0.000 A 
ENDBRANCH   1   7
BRANCH   1  15
ATOM     15  C   UNL     1       4.805   6.243  17.312  0.00  0.00    +0.000 C 
ATOM     16  O   UNL     1       4.788   6.021  16.104  0.00  0.00    +0.000 OA
BRANCH  15  17
ATOM     17  O   UNL     1       5.830   6.858  17.958  0.00  0.00    +0.000 OA
BRANCH  17  18
ATOM     18  C   UNL     1       7.130   6.567  17.443  0.00  0.00    +0.000 C 
BRANCH  18  19
ATOM     19  O   UNL     1       7.800   7.738  16.998  0.00  0.00    +0.000 OA
BRANCH  19  20
ATOM     20  C   UNL     1       8.223   8.608  18.049  0.00  0.00    +0.000 C 
BRANCH  20  21
ATOM     21  C   UNL     1       8.272  10.100  17.668  0.00  0.00    +0.000 C 
BRANCH  21  22
ATOM     22  N   UNL     1       9.318  10.888  18.353  0.00  0.00    +0.000 NA
BRANCH  22  24
ATOM     23  C   UNL     1      10.341  12.964  17.328  0.00  0.00    +0.000 C 
ATOM     24  C   UNL     1       9.171  12.327  18.068  0.00  0.00    +0.000 C 
ENDBRANCH  22  24
BRANCH  22  25
ATOM     25  C   UNL     1       9.396  10.554  19.783  0.00  0.00    +0.000 C 
ATOM     26  C   UNL     1      10.248  11.480  20.644  0.00  0.00    +0.000 C 
ENDBRANCH  22  25
ENDBRANCH  21  22
ENDBRANCH  20  21
ENDBRANCH  19  20
ENDBRANCH  18  19
ENDBRANCH  17  18
ENDBRANCH  15  17
ENDBRANCH   1  15
TORSDOF 10
ENDMDL
