MODEL 1
REMARK VINA RESULT:      -7.1      0.000      0.000
REMARK  Name = 
REMARK  10 active torsions:
REMARK  status: ('A' for Active; 'I' for Inactive)
REMARK    1  A    between atoms: C_1  and  C_2
REMARK    2  A    between atoms: C_2  and  C_3
REMARK    3  A    between atoms: C_2  and  C_4
REMARK    4  A    between atoms: C_4  and  N_5
REMARK    5  A    between atoms: N_5  and  C_6
REMARK    6  A    between atoms: N_5  and  C_17
REMARK    7  A    between atoms: C_6  and  C_7
REMARK    8  A    between atoms: C_10  and  C_11
REMARK    9  A    between atoms: C_17  and  C_18
REMARK   10  A    between atoms: N_21  and  C_22
REMARK                            x       y       z     vdW  Elec       q    Type
REMARK                         _______ _______ _______ _____ _____    ______ ____
ROOT
ATOM      1  N   UNL     1       4.016   4.747  19.130  0.00  0.00    +0.000 NA
ENDROOT
BRANCH   1   2
ATOM      2  C   UNL     1       4.051   3.270  19.240  0.00  0.00    +0.000 C 
BRANCH   2   4
ATOM      3  C   UNL     1       1.849   1.974  19.120  0.00  0.00    +0.000 C 
ATOM      4  C   UNL     1       3.086   2.449  18.359  0.00  0.00    +0.000 C 
ATOM      5  C   UNL     1       2.643   3.321  17.175  0.00  0.00    +0.000 C 
ENDBRANCH   2   4
ENDBRANCH   1   2
BRANCH   1   6
ATOM      6  C   UNL     1       3.143   5.359  20.163  0.00  0.00    +0.000 C 
BRANCH   6   7
ATOM      7  C   UNL     1       2.425   6.600  19.673  0.00  0.00    +0.000 A 
ATOM      8  C   UNL     1       2.568   7.051  18.359  0.00  0.00    +0.000 A 
ATOM      9  C   UNL     1       2.122   8.325  18.012  0.00  0.00    +0.000 A 
ATOM     10  C   UNL     1       1.532   9.129  18.989  0.00  0.00    +0.000 A 
ATOM     11  N   UNL     1       1.270   8.653  20.241  0.00  0.00    +0.000 NA
ATOM     12  C   UNL     1       1.714   7.412  20.549  0.00  0.00    +0.000 A 
BRANCH  10  13
ATOM     13  C   UNL     1       1.275  10.604  18.696  0.00  0.00    +0.000 C 
ATOM     14  F   UNL     1       1.227  11.378  19.824  0.00  0.00    +0.000 F 
ATOM     15  F   UNL     1       2.220  11.179  17.900  0.00  0.00    +0.000 F 
ATOM     16  F   UNL     1       0.077  10.815  18.073  0.00  0.00    +0.000 F 
ENDBRANCH  10  13
ENDBRANCH   6   7
ENDBRANCH   1   6
BRANCH   1  17
ATOM     17  C   UNL     1       5.400   5.287  19.244  0.00  0.00    +0.000 C 
BRANCH  17  18
ATOM     18  C   UNL     1       6.160   5.090  17.976  0.00  0.00    +0.000 A 
ATOM     19  C   UNL     1       7.499   4.663  17.832  0.00  0.00    +0.000 A 
ATOM     20  N   UNL     1       7.865   4.531  16.555  0.00  0.00    +0.000 NA
ATOM     21  N   UNL     1       6.761   4.881  15.874  0.00  0.00    +0.000 N 
ATOM     22  C   UNL     1       6.730   4.772  14.437  0.00  0.00    +0.000 C 
ATOM     23  C   UNL     1       5.725   5.260  16.674  0.00  0.00    +0.000 A 
ENDBRANCH  17  18
ENDBRANCH   1  17
TORSDOF 7
ENDMDL
MODEL 2
REMARK VINA RESULT:      -7.0      1.155      1.569
REMARK  Name = 
REMARK  10 active torsions:
REMARK  status: ('A' for Active; 'I' for Inactive)
REMARK    1  A    between atoms: C_1  and  C_2
REMARK    2  A    between atoms: C_2  and  C_3
REMARK    3  A    between atoms: C_2  and  C_4
REMARK    4  A    between atoms: C_4  and  N_5
REMARK    5  A    between atoms: N_5  and  C_6
REMARK    6  A    between atoms: N_5  and  C_17
REMARK    7  A    between atoms: C_6  and  C_7
REMARK    8  A    between atoms: C_10  and  C_11
REMARK    9  A    between atoms: C_17  and  C_18
REMARK   10  A    between atoms: N_21  and  C_22
REMARK                            x       y       z     vdW  Elec       q    Type
REMARK                         _______ _______ _______ _____ _____    ______ ____
ROOT
ATOM      1  N   UNL     1       3.915   4.525  18.660  0.00  0.00    +0.000 NA
ENDROOT
BRANCH   1   2
ATOM      2  C   UNL     1       3.242   3.328  19.217  0.00  0.00    +0.000 C 
BRANCH   2   4
ATOM      3  C   UNL     1       0.866   3.621  20.121  0.00  0.00    +0.000 C 
ATOM      4  C   UNL     1       1.732   3.150  18.953  0.00  0.00    +0.000 C 
ATOM      5  C   UNL     1       1.358   3.950  17.696  0.00  0.00    +0.000 C 
ENDBRANCH   2   4
ENDBRANCH   1   2
BRANCH   1   6
ATOM      6  C   UNL     1       3.931   5.651  19.627  0.00  0.00    +0.000 C 
BRANCH   6   7
ATOM      7  C   UNL     1       2.922   6.733  19.292  0.00  0.00    +0.000 A 
ATOM      8  C   UNL     1       2.907   7.348  18.038  0.00  0.00    +0.000 A 
ATOM      9  C   UNL     1       2.160   8.510  17.847  0.00  0.00    +0.000 A 
ATOM     10  C   UNL     1       1.434   9.036  18.917  0.00  0.00    +0.000 A 
ATOM     11  N   UNL     1       1.339   8.375  20.108  0.00  0.00    +0.000 NA
ATOM     12  C   UNL     1       2.073   7.249  20.264  0.00  0.00    +0.000 A 
BRANCH  10  13
ATOM     13  C   UNL     1       0.826  10.430  18.801  0.00  0.00    +0.000 C 
ATOM     14  F   UNL     1      -0.258  10.478  17.967  0.00  0.00    +0.000 F 
ATOM     15  F   UNL     1       0.394  10.942  19.988  0.00  0.00    +0.000 F 
ATOM     16  F   UNL     1       1.703  11.346  18.291  0.00  0.00    +0.000 F 
ENDBRANCH  10  13
ENDBRANCH   6   7
ENDBRANCH   1   6
BRANCH   1  17
ATOM     17  C   UNL     1       5.306   4.171  18.263  0.00  0.00    +0.000 C 
BRANCH  17  18
ATOM     18  C   UNL     1       5.554   4.492  16.827  0.00  0.00    +0.000 A 
ATOM     19  C   UNL     1       5.738   5.768  16.249  0.00  0.00    +0.000 A 
ATOM     20  N   UNL     1       5.997   5.710  14.941  0.00  0.00    +0.000 NA
ATOM     21  N   UNL     1       5.973   4.394  14.674  0.00  0.00    +0.000 N 
ATOM     22  C   UNL     1       6.311   3.914  13.357  0.00  0.00    +0.000 C 
ATOM     23  C   UNL     1       5.675   3.623  15.757  0.00  0.00    +0.000 A 
ENDBRANCH  17  18
ENDBRANCH   1  17
TORSDOF 7
ENDMDL
MODEL 3
REMARK VINA RESULT:      -6.9      3.674      5.356
REMARK  Name = 
REMARK  10 active torsions:
REMARK  status: ('A' for Active; 'I' for Inactive)
REMARK    1  A    between atoms: C_1  and  C_2
REMARK    2  A    between atoms: C_2  and  C_3
REMARK    3  A    between atoms: C_2  and  C_4
REMARK    4  A    between atoms: C_4  and  N_5
REMARK    5  A    between atoms: N_5  and  C_6
REMARK    6  A    between atoms: N_5  and  C_17
REMARK    7  A    between atoms: C_6  and  C_7
REMARK    8  A    between atoms: C_10  and  C_11
REMARK    9  A    between atoms: C_17  and  C_18
REMARK   10  A    between atoms: N_21  and  C_22
REMARK                            x       y       z     vdW  Elec       q    Type
REMARK                         _______ _______ _______ _____ _____    ______ ____
ROOT
ATOM      1  N   UNL     1       5.639   4.658  15.851  0.00  0.00    +0.000 NA
ENDROOT
BRANCH   1   2
ATOM      2  C   UNL     1       5.774   5.019  14.420  0.00  0.00    +0.000 C 
BRANCH   2   4
ATOM      3  C   UNL     1       5.566   3.403  12.447  0.00  0.00    +0.000 C 
ATOM      4  C   UNL     1       6.498   4.030  13.483  0.00  0.00    +0.000 C 
ATOM      5  C   UNL     1       7.624   4.780  12.755  0.00  0.00    +0.000 C 
ENDBRANCH   2   4
ENDBRANCH   1   2
BRANCH   1   6
ATOM      6  C   UNL     1       4.835   3.424  16.037  0.00  0.00    +0.000 C 
BRANCH   6   7
ATOM      7  C   UNL     1       3.764   3.570  17.100  0.00  0.00    +0.000 A 
ATOM      8  C   UNL     1       3.271   4.825  17.466  0.00  0.00    +0.000 A 
ATOM      9  C   UNL     1       2.495   4.955  18.617  0.00  0.00    +0.000 A 
ATOM     10  C   UNL     1       2.221   3.821  19.384  0.00  0.00    +0.000 A 
ATOM     11  N   UNL     1       2.589   2.573  18.969  0.00  0.00    +0.000 NA
ATOM     12  C   UNL     1       3.339   2.478  17.847  0.00  0.00    +0.000 A 
BRANCH  10  13
ATOM     13  C   UNL     1       1.600   3.981  20.768  0.00  0.00    +0.000 C 
ATOM     14  F   UNL     1       2.359   4.743  21.615  0.00  0.00    +0.000 F 
ATOM     15  F   UNL     1       0.371   4.568  20.755  0.00  0.00    +0.000 F 
ATOM     16  F   UNL     1       1.443   2.787  21.415  0.00  0.00    +0.000 F 
ENDBRANCH  10  13
ENDBRANCH   6   7
ENDBRANCH   1   6
BRANCH   1  17
ATOM     17  C   UNL     1       6.993   4.481  16.447  0.00  0.00    +0.000 C 
BRANCH  17  18
ATOM     18  C   UNL     1       7.379   5.668  17.267  0.00  0.00    +0.000 A 
ATOM     19  C   UNL     1       7.811   5.682  18.612  0.00  0.00    +0.000 A 
ATOM     20  N   UNL     1       8.137   6.904  19.037  0.00  0.00    +0.000 NA
ATOM     21  N   UNL     1       7.907   7.681  17.965  0.00  0.00    +0.000 N 
ATOM     22  C   UNL     1       8.239   9.083  18.001  0.00  0.00    +0.000 C 
ATOM     23  C   UNL     1       7.417   6.999  16.893  0.00  0.00    +0.000 A 
ENDBRANCH  17  18
ENDBRANCH   1  17
TORSDOF 7
ENDMDL
MODEL 4
REMARK VINA RESULT:      -6.9      1.000      1.509
REMARK  Name = 
REMARK  10 active torsions:
REMARK  status: ('A' for Active; 'I' for Inactive)
REMARK    1  A    between atoms: C_1  and  C_2
REMARK    2  A    between atoms: C_2  and  C_3
REMARK    3  A    between atoms: C_2  and  C_4
REMARK    4  A    between atoms: C_4  and  N_5
REMARK    5  A    between atoms: N_5  and  C_6
REMARK    6  A    between atoms: N_5  and  C_17
REMARK    7  A    between atoms: C_6  and  C_7
REMARK    8  A    between atoms: C_10  and  C_11
REMARK    9  A    between atoms: C_17  and  C_18
REMARK   10  A    between atoms: N_21  and  C_22
REMARK                            x       y       z     vdW  Elec       q    Type
REMARK                         _______ _______ _______ _____ _____    ______ ____
ROOT
ATOM      1  N   UNL     1       3.836   4.637  18.809  0.00  0.00    +0.000 NA
ENDROOT
BRANCH   1   2
ATOM      2  C   UNL     1       2.826   3.756  19.441  0.00  0.00    +0.000 C 
BRANCH   2   4
ATOM      3  C   UNL     1       1.372   4.206  17.384  0.00  0.00    +0.000 C 
ATOM      4  C   UNL     1       1.409   3.717  18.832  0.00  0.00    +0.000 C 
ATOM      5  C   UNL     1       0.892   2.273  18.887  0.00  0.00    +0.000 C 
ENDBRANCH   2   4
ENDBRANCH   1   2
BRANCH   1   6
ATOM      6  C   UNL     1       4.009   5.907  19.557  0.00  0.00    +0.000 C 
BRANCH   6   7
ATOM      7  C   UNL     1       2.936   6.931  19.241  0.00  0.00    +0.000 A 
ATOM      8  C   UNL     1       2.864   7.544  17.988  0.00  0.00    +0.000 A 
ATOM      9  C   UNL     1       2.051   8.662  17.811  0.00  0.00    +0.000 A 
ATOM     10  C   UNL     1       1.316   9.148  18.894  0.00  0.00    +0.000 A 
ATOM     11  N   UNL     1       1.279   8.483  20.086  0.00  0.00    +0.000 NA
ATOM     12  C   UNL     1       2.077   7.400  20.229  0.00  0.00    +0.000 A 
BRANCH  10  13
ATOM     13  C   UNL     1       0.630  10.506  18.790  0.00  0.00    +0.000 C 
ATOM     14  F   UNL     1      -0.431  10.509  17.925  0.00  0.00    +0.000 F 
ATOM     15  F   UNL     1       0.135  10.965  19.974  0.00  0.00    +0.000 F 
ATOM     16  F   UNL     1       1.465  11.483  18.326  0.00  0.00    +0.000 F 
ENDBRANCH  10  13
ENDBRANCH   6   7
ENDBRANCH   1   6
BRANCH   1  17
ATOM     17  C   UNL     1       5.137   3.915  18.719  0.00  0.00    +0.000 C 
BRANCH  17  18
ATOM     18  C   UNL     1       5.804   4.171  17.409  0.00  0.00    +0.000 A 
ATOM     19  C   UNL     1       7.103   4.682  17.190  0.00  0.00    +0.000 A 
ATOM     20  N   UNL     1       7.425   4.738  15.896  0.00  0.00    +0.000 NA
ATOM     21  N   UNL     1       6.327   4.269  15.278  0.00  0.00    +0.000 N 
ATOM     22  C   UNL     1       6.322   4.083  13.849  0.00  0.00    +0.000 C 
ATOM     23  C   UNL     1       5.315   3.952  16.134  0.00  0.00    +0.000 A 
ENDBRANCH  17  18
ENDBRANCH   1  17
TORSDOF 7
ENDMDL
MODEL 5
REMARK VINA RESULT:      -6.8      3.871      5.574
REMARK  Name = 
REMARK  10 active torsions:
REMARK  status: ('A' for Active; 'I' for Inactive)
REMARK    1  A    between atoms: C_1  and  C_2
REMARK    2  A    between atoms: C_2  and  C_3
REMARK    3  A    between atoms: C_2  and  C_4
REMARK    4  A    between atoms: C_4  and  N_5
REMARK    5  A    between atoms: N_5  and  C_6
REMARK    6  A    between atoms: N_5  and  C_17
REMARK    7  A    between atoms: C_6  and  C_7
REMARK    8  A    between atoms: C_10  and  C_11
REMARK    9  A    between atoms: C_17  and  C_18
REMARK   10  A    between atoms: N_21  and  C_22
REMARK                            x       y       z     vdW  Elec       q    Type
REMARK                         _______ _______ _______ _____ _____    ______ ____
ROOT
ATOM      1  N   UNL     1       5.425   4.717  15.765  0.00  0.00    +0.000 NA
ENDROOT
BRANCH   1   2
ATOM      2  C   UNL     1       5.593   4.958  14.312  0.00  0.00    +0.000 C 
BRANCH   2   4
ATOM      3  C   UNL     1       6.088   3.319  12.411  0.00  0.00    +0.000 C 
ATOM      4  C   UNL     1       6.667   4.147  13.557  0.00  0.00    +0.000 C 
ATOM      5  C   UNL     1       7.711   5.123  12.994  0.00  0.00    +0.000 C 
ENDBRANCH   2   4
ENDBRANCH   1   2
BRANCH   1   6
ATOM      6  C   UNL     1       4.455   3.627  16.037  0.00  0.00    +0.000 C 
BRANCH   6   7
ATOM      7  C   UNL     1       4.039   3.555  17.493  0.00  0.00    +0.000 A 
ATOM      8  C   UNL     1       3.880   2.328  18.142  0.00  0.00    +0.000 A 
ATOM      9  C   UNL     1       3.245   2.279  19.382  0.00  0.00    +0.000 A 
ATOM     10  C   UNL     1       2.780   3.464  19.956  0.00  0.00    +0.000 A 
ATOM     11  N   UNL     1       3.042   4.680  19.393  0.00  0.00    +0.000 NA
ATOM     12  C   UNL     1       3.662   4.697  18.190  0.00  0.00    +0.000 A 
BRANCH  10  13
ATOM     13  C   UNL     1       1.864   3.401  21.174  0.00  0.00    +0.000 C 
ATOM     14  F   UNL     1       2.279   4.205  22.202  0.00  0.00    +0.000 F 
ATOM     15  F   UNL     1       0.579   3.776  20.917  0.00  0.00    +0.000 F 
ATOM     16  F   UNL     1       1.792   2.148  21.714  0.00  0.00    +0.000 F 
ENDBRANCH  10  13
ENDBRANCH   6   7
ENDBRANCH   1   6
BRANCH   1  17
ATOM     17  C   UNL     1       6.747   4.389  16.369  0.00  0.00    +0.000 C 
BRANCH  17  18
ATOM     18  C   UNL     1       7.236   5.504  17.231  0.00  0.00    +0.000 A 
ATOM     19  C   UNL     1       7.765   5.414  18.538  0.00  0.00    +0.000 A 
ATOM     20  N   UNL     1       8.167   6.594  19.015  0.00  0.00    +0.000 NA
ATOM     21  N   UNL     1       7.891   7.448  18.015  0.00  0.00    +0.000 N 
ATOM     22  C   UNL     1       8.278   8.832  18.116  0.00  0.00    +0.000 C 
ATOM     23  C   UNL     1       7.299   6.855  16.941  0.00  0.00    +0.000 A 
ENDBRANCH  17  18
ENDBRANCH   1  17
TORSDOF 7
ENDMDL
MODEL 6
REMARK VINA RESULT:      -6.8      0.994      1.482
REMARK  Name = 
REMARK  10 active torsions:
REMARK  status: ('A' for Active; 'I' for Inactive)
REMARK    1  A    between atoms: C_1  and  C_2
REMARK    2  A    between atoms: C_2  and  C_3
REMARK    3  A    between atoms: C_2  and  C_4
REMARK    4  A    between atoms: C_4  and  N_5
REMARK    5  A    between atoms: N_5  and  C_6
REMARK    6  A    between atoms: N_5  and  C_17
REMARK    7  A    between atoms: C_6  and  C_7
REMARK    8  A    between atoms: C_10  and  C_11
REMARK    9  A    between atoms: C_17  and  C_18
REMARK   10  A    between atoms: N_21  and  C_22
REMARK                            x       y       z     vdW  Elec       q    Type
REMARK                         _______ _______ _______ _____ _____    ______ ____
ROOT
ATOM      1  N   UNL     1       3.957   4.298  18.775  0.00  0.00    +0.000 NA
ENDROOT
BRANCH   1   2
ATOM      2  C   UNL     1       3.119   3.207  19.326  0.00  0.00    +0.000 C 
BRANCH   2   4
ATOM      3  C   UNL     1       0.786   2.369  18.693  0.00  0.00    +0.000 C 
ATOM      4  C   UNL     1       1.597   3.436  19.428  0.00  0.00    +0.000 C 
ATOM      5  C   UNL     1       1.200   3.433  20.912  0.00  0.00    +0.000 C 
ENDBRANCH   2   4
ENDBRANCH   1   2
BRANCH   1   6
ATOM      6  C   UNL     1       4.004   5.471  19.684  0.00  0.00    +0.000 C 
BRANCH   6   7
ATOM      7  C   UNL     1       3.052   6.577  19.273  0.00  0.00    +0.000 A 
ATOM      8  C   UNL     1       3.146   7.189  18.021  0.00  0.00    +0.000 A 
ATOM      9  C   UNL     1       2.446   8.368  17.773  0.00  0.00    +0.000 A 
ATOM     10  C   UNL     1       1.656   8.916  18.785  0.00  0.00    +0.000 A 
ATOM     11  N   UNL     1       1.455   8.262  19.966  0.00  0.00    +0.000 NA
ATOM     12  C   UNL     1       2.146   7.118  20.178  0.00  0.00    +0.000 A 
BRANCH  10  13
ATOM     13  C   UNL     1       1.095  10.325  18.622  0.00  0.00    +0.000 C 
ATOM     14  F   UNL     1       1.938  11.167  17.948  0.00  0.00    +0.000 F 
ATOM     15  F   UNL     1      -0.085  10.372  17.942  0.00  0.00    +0.000 F 
ATOM     16  F   UNL     1       0.865  10.942  19.819  0.00  0.00    +0.000 F 
ENDBRANCH  10  13
ENDBRANCH   6   7
ENDBRANCH   1   6
BRANCH   1  17
ATOM     17  C   UNL     1       5.334   3.789  18.525  0.00  0.00    +0.000 C 
BRANCH  17  18
ATOM     18  C   UNL     1       5.939   4.440  17.326  0.00  0.00    +0.000 A 
ATOM     19  C   UNL     1       6.733   5.608  17.289  0.00  0.00    +0.000 A 
ATOM     20  N   UNL     1       7.169   5.897  16.061  0.00  0.00    +0.000 NA
ATOM     21  N   UNL     1       6.648   4.917  15.304  0.00  0.00    +0.000 N 
ATOM     22  C   UNL     1       6.981   4.828  13.904  0.00  0.00    +0.000 C 
ATOM     23  C   UNL     1       5.874   4.042  16.003  0.00  0.00    +0.000 A 
ENDBRANCH  17  18
ENDBRANCH   1  17
TORSDOF 7
ENDMDL
MODEL 7
REMARK VINA RESULT:      -6.8      3.630      5.562
REMARK  Name = 
REMARK  10 active torsions:
REMARK  status: ('A' for Active; 'I' for Inactive)
REMARK    1  A    between atoms: C_1  and  C_2
REMARK    2  A    between atoms: C_2  and  C_3
REMARK    3  A    between atoms: C_2  and  C_4
REMARK    4  A    between atoms: C_4  and  N_5
REMARK    5  A    between atoms: N_5  and  C_6
REMARK    6  A    between atoms: N_5  and  C_17
REMARK    7  A    between atoms: C_6  and  C_7
REMARK    8  A    between atoms: C_10  and  C_11
REMARK    9  A    between atoms: C_17  and  C_18
REMARK   10  A    between atoms: N_21  and  C_22
REMARK                            x       y       z     vdW  Elec       q    Type
REMARK                         _______ _______ _______ _____ _____    ______ ____
ROOT
ATOM      1  N   UNL     1       6.362   4.930  16.181  0.00  0.00    +0.000 NA
ENDROOT
BRANCH   1   2
ATOM      2  C   UNL     1       7.336   4.947  17.298  0.00  0.00    +0.000 C 
BRANCH   2   4
ATOM      3  C   UNL     1       7.805   5.637  19.716  0.00  0.00    +0.000 C 
ATOM      4  C   UNL     1       7.192   6.041  18.376  0.00  0.00    +0.000 C 
ATOM      5  C   UNL     1       7.882   7.317  17.873  0.00  0.00    +0.000 C 
ENDBRANCH   2   4
ENDBRANCH   1   2
BRANCH   1   6
ATOM      6  C   UNL     1       5.081   5.580  16.554  0.00  0.00    +0.000 C 
BRANCH   6   7
ATOM      7  C   UNL     1       4.229   4.726  17.472  0.00  0.00    +0.000 A 
ATOM      8  C   UNL     1       3.655   3.532  17.028  0.00  0.00    +0.000 A 
ATOM      9  C   UNL     1       2.669   2.911  17.793  0.00  0.00    +0.000 A 
ATOM     10  C   UNL     1       2.276   3.495  18.999  0.00  0.00    +0.000 A 
ATOM     11  N   UNL     1       2.918   4.589  19.505  0.00  0.00    +0.000 NA
ATOM     12  C   UNL     1       3.872   5.169  18.741  0.00  0.00    +0.000 A 
BRANCH  10  13
ATOM     13  C   UNL     1       1.033   2.977  19.716  0.00  0.00    +0.000 C 
ATOM     14  F   UNL     1       0.311   3.966  20.327  0.00  0.00    +0.000 F 
ATOM     15  F   UNL     1       0.152   2.337  18.897  0.00  0.00    +0.000 F 
ATOM     16  F   UNL     1       1.332   2.092  20.714  0.00  0.00    +0.000 F 
ENDBRANCH  10  13
ENDBRANCH   6   7
ENDBRANCH   1   6
BRANCH   1  17
ATOM     17  C   UNL     1       6.955   5.610  14.995  0.00  0.00    +0.000 C 
BRANCH  17  18
ATOM     18  C   UNL     1       6.785   4.787  13.762  0.00  0.00    +0.000 A 
ATOM     19  C   UNL     1       7.535   4.861  12.567  0.00  0.00    +0.000 A 
ATOM     20  N   UNL     1       7.170   3.943  11.671  0.00  0.00    +0.000 NA
ATOM     21  N   UNL     1       6.176   3.280  12.286  0.00  0.00    +0.000 N 
ATOM     22  C   UNL     1       5.577   2.128  11.661  0.00  0.00    +0.000 C 
ATOM     23  C   UNL     1       5.881   3.768  13.523  0.00  0.00    +0.000 A 
ENDBRANCH  17  18
ENDBRANCH   1  17
TORSDOF 7
ENDMDL
MODEL 8
REMARK VINA RESULT:      -6.8      1.906      4.537
REMARK  Name = 
REMARK  10 active torsions:
REMARK  status: ('A' for Active; 'I' for Inactive)
REMARK    1  A    between atoms: C_1  and  C_2
REMARK    2  A    between atoms: C_2  and  C_3
REMARK    3  A    between atoms: C_2  and  C_4
REMARK    4  A    between atoms: C_4  and  N_5
REMARK    5  A    between atoms: N_5  and  C_6
REMARK    6  A    between atoms: N_5  and  C_17
REMARK    7  A    between atoms: C_6  and  C_7
REMARK    8  A    between atoms: C_10  and  C_11
REMARK    9  A    between atoms: C_17  and  C_18
REMARK   10  A    between atoms: N_21  and  C_22
REMARK                            x       y       z     vdW  Elec       q    Type
REMARK                         _______ _______ _______ _____ _____    ______ ____
ROOT
ATOM      1  N   UNL     1       4.195   5.886  18.202  0.00  0.00    +0.000 NA
ENDROOT
BRANCH   1   2
ATOM      2  C   UNL     1       5.671   5.769  18.133  0.00  0.00    +0.000 C 
BRANCH   2   4
ATOM      3  C   UNL     1       7.590   7.336  17.495  0.00  0.00    +0.000 C 
ATOM      4  C   UNL     1       6.410   6.504  16.995  0.00  0.00    +0.000 C 
ATOM      5  C   UNL     1       6.921   5.462  15.990  0.00  0.00    +0.000 C 
ENDBRANCH   2   4
ENDBRANCH   1   2
BRANCH   1   6
ATOM      6  C   UNL     1       3.706   7.117  17.532  0.00  0.00    +0.000 C 
BRANCH   6   7
ATOM      7  C   UNL     1       2.570   7.787  18.278  0.00  0.00    +0.000 A 
ATOM      8  C   UNL     1       1.840   8.831  17.705  0.00  0.00    +0.000 A 
ATOM      9  C   UNL     1       0.991   9.600  18.500  0.00  0.00    +0.000 A 
ATOM     10  C   UNL     1       0.883   9.307  19.861  0.00  0.00    +0.000 A 
ATOM     11  N   UNL     1       1.490   8.212  20.405  0.00  0.00    +0.000 NA
ATOM     12  C   UNL     1       2.306   7.483  19.609  0.00  0.00    +0.000 A 
BRANCH  10  13
ATOM     13  C   UNL     1       0.168  10.286  20.786  0.00  0.00    +0.000 C 
ATOM     14  F   UNL     1      -0.638  11.168  20.119  0.00  0.00    +0.000 F 
ATOM     15  F   UNL     1      -0.636   9.684  21.708  0.00  0.00    +0.000 F 
ATOM     16  F   UNL     1       1.035  11.069  21.495  0.00  0.00    +0.000 F 
ENDBRANCH  10  13
ENDBRANCH   6   7
ENDBRANCH   1   6
BRANCH   1  17
ATOM     17  C   UNL     1       3.572   4.684  17.582  0.00  0.00    +0.000 C 
BRANCH  17  18
ATOM     18  C   UNL     1       2.636   4.013  18.531  0.00  0.00    +0.000 A 
ATOM     19  C   UNL     1       1.412   3.376  18.228  0.00  0.00    +0.000 A 
ATOM     20  N   UNL     1       0.840   2.821  19.298  0.00  0.00    +0.000 NA
ATOM     21  N   UNL     1       1.693   3.108  20.295  0.00  0.00    +0.000 N 
ATOM     22  C   UNL     1       1.465   2.584  21.618  0.00  0.00    +0.000 C 
ATOM     23  C   UNL     1       2.764   3.851  19.899  0.00  0.00    +0.000 A 
ENDBRANCH  17  18
ENDBRANCH   1  17
TORSDOF 7
ENDMDL
MODEL 9
REMARK VINA RESULT:      -6.8      1.650      2.142
REMARK  Name = 
REMARK  10 active torsions:
REMARK  status: ('A' for Active; 'I' for Inactive)
REMARK    1  A    between atoms: C_1  and  C_2
REMARK    2  A    between atoms: C_2  and  C_3
REMARK    3  A    between atoms: C_2  and  C_4
REMARK    4  A    between atoms: C_4  and  N_5
REMARK    5  A    between atoms: N_5  and  C_6
REMARK    6  A    between atoms: N_5  and  C_17
REMARK    7  A    between atoms: C_6  and  C_7
REMARK    8  A    between atoms: C_10  and  C_11
REMARK    9  A    between atoms: C_17  and  C_18
REMARK   10  A    between atoms: N_21  and  C_22
REMARK                            x       y       z     vdW  Elec       q    Type
REMARK                         _______ _______ _______ _____ _____    ______ ____
ROOT
ATOM      1  N   UNL     1       2.806   5.300  18.119  0.00  0.00    +0.000 NA
ENDROOT
BRANCH   1   2
ATOM      2  C   UNL     1       1.561   4.528  18.346  0.00  0.00    +0.000 C 
BRANCH   2   4
ATOM      3  C   UNL     1       1.084   3.642  20.698  0.00  0.00    +0.000 C 
ATOM      4  C   UNL     1       1.616   3.319  19.302  0.00  0.00    +0.000 C 
ATOM      5  C   UNL     1       0.783   2.179  18.699  0.00  0.00    +0.000 C 
ENDBRANCH   2   4
ENDBRANCH   1   2
BRANCH   1   6
ATOM      6  C   UNL     1       3.160   6.138  19.292  0.00  0.00    +0.000 C 
BRANCH   6   7
ATOM      7  C   UNL     1       2.444   7.474  19.302  0.00  0.00    +0.000 A 
ATOM      8  C   UNL     1       1.730   7.906  20.422  0.00  0.00    +0.000 A 
ATOM      9  C   UNL     1       0.869   8.997  20.316  0.00  0.00    +0.000 A 
ATOM     10  C   UNL     1       0.740   9.644  19.085  0.00  0.00    +0.000 A 
ATOM     11  N   UNL     1       1.526   9.313  18.020  0.00  0.00    +0.000 NA
ATOM     12  C   UNL     1       2.354   8.251  18.153  0.00  0.00    +0.000 A 
BRANCH  10  13
ATOM     13  C   UNL     1      -0.377  10.664  18.884  0.00  0.00    +0.000 C 
ATOM     14  F   UNL     1      -1.013  11.002  20.048  0.00  0.00    +0.000 F 
ATOM     15  F   UNL     1       0.045  11.842  18.345  0.00  0.00    +0.000 F 
ATOM     16  F   UNL     1      -1.367  10.205  18.062  0.00  0.00    +0.000 F 
ENDBRANCH  10  13
ENDBRANCH   6   7
ENDBRANCH   1   6
BRANCH   1  17
ATOM     17  C   UNL     1       3.920   4.362  17.804  0.00  0.00    +0.000 C 
BRANCH  17  18
ATOM     18  C   UNL     1       4.739   4.864  16.663  0.00  0.00    +0.000 A 
ATOM     19  C   UNL     1       4.974   6.208  16.297  0.00  0.00    +0.000 A 
ATOM     20  N   UNL     1       5.802   6.323  15.257  0.00  0.00    +0.000 NA
ATOM     21  N   UNL     1       6.096   5.050  14.946  0.00  0.00    +0.000 N 
ATOM     22  C   UNL     1       7.059   4.758  13.914  0.00  0.00    +0.000 C 
ATOM     23  C   UNL     1       5.458   4.137  15.731  0.00  0.00    +0.000 A 
ENDBRANCH  17  18
ENDBRANCH   1  17
TORSDOF 7
ENDMDL
