MODEL 1
REMARK VINA RESULT:      -7.6      0.000      0.000
REMARK  Name = 
REMARK  11 active torsions:
REMARK  status: ('A' for Active; 'I' for Inactive)
REMARK    1  A    between atoms: C_1  and  O_2
REMARK    2  A    between atoms: O_2  and  C_3
REMARK    3  A    between atoms: C_6  and  C_7
REMARK    4  A    between atoms: C_8  and  C_9
REMARK    5  A    between atoms: C_12  and  C_13
REMARK    6  A    between atoms: C_13  and  C_14
REMARK    7  A    between atoms: C_14  and  C_15
REMARK    8  A    between atoms: C_14  and  N_16
REMARK    9  A    between atoms: C_17  and  C_19
REMARK   10  A    between atoms: C_24  and  O_25
REMARK   11  A    between atoms: O_25  and  C_26
REMARK                            x       y       z     vdW  Elec       q    Type
REMARK                         _______ _______ _______ _____ _____    ______ ____
ROOT
ATOM      1  C   UNL     1       8.161   8.084  18.319  0.00  0.00    +0.000 A 
ATOM      2  C   UNL     1       7.186   8.026  17.320  0.00  0.00    +0.000 A 
ATOM      3  C   UNL     1       6.448   6.851  17.121  0.00  0.00    +0.000 A 
ATOM      4  C   UNL     1       6.682   5.714  17.908  0.00  0.00    +0.000 A 
ATOM      5  C   UNL     1       7.707   5.765  18.864  0.00  0.00    +0.000 A 
ATOM      6  C   UNL     1       8.440   6.940  19.068  0.00  0.00    +0.000 A 
ENDROOT
BRANCH   1   8
ATOM      7  C   UNL     1       9.293  10.369  18.983  0.00  0.00    +0.000 C 
ATOM      8  C   UNL     1       8.807   9.323  18.643  0.00  0.00    +0.000 C 
BRANCH   7  12
ATOM      9  C   UNL     1      10.908  14.002  20.143  0.00  0.00    +0.000 A 
ATOM     10  N   UNL     1      11.218  13.536  18.925  0.00  0.00    +0.000 NA
ATOM     11  C   UNL     1      10.679  12.346  18.588  0.00  0.00    +0.000 A 
ATOM     12  C   UNL     1       9.852  11.615  19.412  0.00  0.00    +0.000 A 
ATOM     13  C   UNL     1       9.623  12.186  20.654  0.00  0.00    +0.000 A 
ATOM     14  N   UNL     1      10.136  13.374  21.043  0.00  0.00    +0.000 NA
BRANCH   9  16
ATOM     15  C   UNL     1      11.624  16.056  19.279  0.00  0.00    +0.000 C 
ATOM     16  O   UNL     1      11.435  15.243  20.427  0.00  0.00    +0.000 OA
ENDBRANCH   9  16
BRANCH  13  17
ATOM     17  O   UNL     1       8.813  11.491  21.536  0.00  0.00    +0.000 OA
ATOM     18  C   UNL     1       8.579  12.175  22.763  0.00  0.00    +0.000 C 
ENDBRANCH  13  17
ENDBRANCH   7  12
ENDBRANCH   1   8
BRANCH   4  19
ATOM     19  C   UNL     1       5.777   4.498  17.820  0.00  0.00    +0.000 C 
BRANCH  19  20
ATOM     20  C   UNL     1       4.670   4.549  16.744  0.00  0.00    +0.000 C 
ATOM     21  C   UNL     1       5.134   3.942  15.423  0.00  0.00    +0.000 C 
BRANCH  20  22
ATOM     22  N   UNL     1       3.457   3.856  17.194  0.00  0.00    +0.000 N 
ATOM     23  C   UNL     1       2.434   4.524  17.826  0.00  0.00    +0.000 C 
ATOM     24  O   UNL     1       2.447   5.724  18.065  0.00  0.00    +0.000 OA
ATOM     25  H   UNL     1       3.404   2.851  17.099  0.00  0.00    +0.000 HD
BRANCH  23  26
ATOM     26  C   UNL     1       1.264   3.674  18.201  0.00  0.00    +0.000 C 
ATOM     27  C   UNL     1       1.488   2.272  18.719  0.00  0.00    +0.000 C 
ATOM     28  C   UNL     1       1.010   3.342  19.656  0.00  0.00    +0.000 C 
ENDBRANCH  23  26
ENDBRANCH  20  22
ENDBRANCH  19  20
ENDBRANCH   4  19
TORSDOF 8
ENDMDL
MODEL 2
REMARK VINA RESULT:      -7.4      1.607      1.895
REMARK  Name = 
REMARK  11 active torsions:
REMARK  status: ('A' for Active; 'I' for Inactive)
REMARK    1  A    between atoms: C_1  and  O_2
REMARK    2  A    between atoms: O_2  and  C_3
REMARK    3  A    between atoms: C_6  and  C_7
REMARK    4  A    between atoms: C_8  and  C_9
REMARK    5  A    between atoms: C_12  and  C_13
REMARK    6  A    between atoms: C_13  and  C_14
REMARK    7  A    between atoms: C_14  and  C_15
REMARK    8  A    between atoms: C_14  and  N_16
REMARK    9  A    between atoms: C_17  and  C_19
REMARK   10  A    between atoms: C_24  and  O_25
REMARK   11  A    between atoms: O_25  and  C_26
REMARK                            x       y       z     vdW  Elec       q    Type
REMARK                         _______ _______ _______ _____ _____    ______ ____
ROOT
ATOM      1  C   UNL     1       8.222   8.279  18.127  0.00  0.00    +0.000 A 
ATOM      2  C   UNL     1       7.436   7.913  17.033  0.00  0.00    +0.000 A 
ATOM      3  C   UNL     1       6.863   6.635  16.971  0.00  0.00    +0.000 A 
ATOM      4  C   UNL     1       7.078   5.701  17.996  0.00  0.00    +0.000 A 
ATOM      5  C   UNL     1       7.922   6.060  19.057  0.00  0.00    +0.000 A 
ATOM      6  C   UNL     1       8.489   7.339  19.122  0.00  0.00    +0.000 A 
ENDROOT
BRANCH   1   8
ATOM      7  C   UNL     1       9.119  10.747  18.354  0.00  0.00    +0.000 C 
ATOM      8  C   UNL     1       8.677   9.631  18.284  0.00  0.00    +0.000 C 
BRANCH   7  12
ATOM      9  C   UNL     1      10.781  14.537  18.520  0.00  0.00    +0.000 A 
ATOM     10  N   UNL     1      11.486  13.518  19.030  0.00  0.00    +0.000 NA
ATOM     11  C   UNL     1      10.907  12.301  18.965  0.00  0.00    +0.000 A 
ATOM     12  C   UNL     1       9.667  12.069  18.414  0.00  0.00    +0.000 A 
ATOM     13  C   UNL     1       9.023  13.201  17.941  0.00  0.00    +0.000 A 
ATOM     14  N   UNL     1       9.556  14.442  17.981  0.00  0.00    +0.000 NA
BRANCH   9  16
ATOM     15  C   UNL     1      11.484  16.325  19.857  0.00  0.00    +0.000 C 
ATOM     16  O   UNL     1      11.429  15.752  18.559  0.00  0.00    +0.000 OA
ENDBRANCH   9  16
BRANCH  13  17
ATOM     17  O   UNL     1       7.763  13.036  17.391  0.00  0.00    +0.000 OA
ATOM     18  C   UNL     1       6.888  14.136  17.618  0.00  0.00    +0.000 C 
ENDBRANCH  13  17
ENDBRANCH   7  12
ENDBRANCH   1   8
BRANCH   4  19
ATOM     19  C   UNL     1       6.327   4.382  18.027  0.00  0.00    +0.000 C 
BRANCH  19  20
ATOM     20  C   UNL     1       4.892   4.401  17.456  0.00  0.00    +0.000 C 
ATOM     21  C   UNL     1       4.860   3.989  15.987  0.00  0.00    +0.000 C 
BRANCH  20  22
ATOM     22  N   UNL     1       4.002   3.523  18.224  0.00  0.00    +0.000 N 
ATOM     23  C   UNL     1       2.844   3.991  18.802  0.00  0.00    +0.000 C 
ATOM     24  O   UNL     1       2.467   5.152  18.730  0.00  0.00    +0.000 OA
ATOM     25  H   UNL     1       4.283   2.566  18.390  0.00  0.00    +0.000 HD
BRANCH  23  26
ATOM     26  C   UNL     1       2.043   2.961  19.530  0.00  0.00    +0.000 C 
ATOM     27  C   UNL     1       0.758   3.359  20.220  0.00  0.00    +0.000 C 
ATOM     28  C   UNL     1       0.705   2.520  18.978  0.00  0.00    +0.000 C 
ENDBRANCH  23  26
ENDBRANCH  20  22
ENDBRANCH  19  20
ENDBRANCH   4  19
TORSDOF 8
ENDMDL
MODEL 3
REMARK VINA RESULT:      -7.4      1.673      1.998
REMARK  Name = 
REMARK  11 active torsions:
REMARK  status: ('A' for Active; 'I' for Inactive)
REMARK    1  A    between atoms: C_1  and  O_2
REMARK    2  A    between atoms: O_2  and  C_3
REMARK    3  A    between atoms: C_6  and  C_7
REMARK    4  A    between atoms: C_8  and  C_9
REMARK    5  A    between atoms: C_12  and  C_13
REMARK    6  A    between atoms: C_13  and  C_14
REMARK    7  A    between atoms: C_14  and  C_15
REMARK    8  A    between atoms: C_14  and  N_16
REMARK    9  A    between atoms: C_17  and  C_19
REMARK   10  A    between atoms: C_24  and  O_25
REMARK   11  A    between atoms: O_25  and  C_26
REMARK                            x       y       z     vdW  Elec       q    Type
REMARK                         _______ _______ _______ _____ _____    ______ ____
ROOT
ATOM      1  C   UNL     1       8.071   8.353  18.100  0.00  0.00    +0.000 A 
ATOM      2  C   UNL     1       7.137   8.032  17.113  0.00  0.00    +0.000 A 
ATOM      3  C   UNL     1       6.549   6.759  17.085  0.00  0.00    +0.000 A 
ATOM      4  C   UNL     1       6.894   5.787  18.035  0.00  0.00    +0.000 A 
ATOM      5  C   UNL     1       7.881   6.102  18.982  0.00  0.00    +0.000 A 
ATOM      6  C   UNL     1       8.464   7.375  19.014  0.00  0.00    +0.000 A 
ENDROOT
BRANCH   1   8
ATOM      7  C   UNL     1       8.883  10.849  18.340  0.00  0.00    +0.000 C 
ATOM      8  C   UNL     1       8.556   9.696  18.242  0.00  0.00    +0.000 C 
BRANCH   7  12
ATOM      9  C   UNL     1       9.839  14.868  18.642  0.00  0.00    +0.000 A 
ATOM     10  N   UNL     1       8.858  14.515  17.800  0.00  0.00    +0.000 NA
ATOM     11  C   UNL     1       8.583  13.197  17.723  0.00  0.00    +0.000 A 
ATOM     12  C   UNL     1       9.242  12.231  18.450  0.00  0.00    +0.000 A 
ATOM     13  C   UNL     1      10.251  12.711  19.269  0.00  0.00    +0.000 A 
ATOM     14  N   UNL     1      10.569  14.020  19.384  0.00  0.00    +0.000 NA
BRANCH   9  16
ATOM     15  C   UNL     1      10.025  16.887  17.474  0.00  0.00    +0.000 C 
ATOM     16  O   UNL     1      10.053  16.225  18.730  0.00  0.00    +0.000 OA
ENDBRANCH   9  16
BRANCH  13  17
ATOM     17  O   UNL     1      10.963  11.786  20.013  0.00  0.00    +0.000 OA
ATOM     18  C   UNL     1      12.307  11.607  19.575  0.00  0.00    +0.000 C 
ENDBRANCH  13  17
ENDBRANCH   7  12
ENDBRANCH   1   8
BRANCH   4  19
ATOM     19  C   UNL     1       6.143   4.471  18.122  0.00  0.00    +0.000 C 
BRANCH  19  20
ATOM     20  C   UNL     1       4.602   4.560  18.048  0.00  0.00    +0.000 C 
ATOM     21  C   UNL     1       4.039   3.713  16.911  0.00  0.00    +0.000 C 
BRANCH  20  22
ATOM     22  N   UNL     1       3.983   4.144  19.312  0.00  0.00    +0.000 N 
ATOM     23  C   UNL     1       2.797   4.685  19.750  0.00  0.00    +0.000 C 
ATOM     24  O   UNL     1       2.171   5.542  19.140  0.00  0.00    +0.000 OA
ATOM     25  H   UNL     1       4.478   3.495  19.908  0.00  0.00    +0.000 HD
BRANCH  23  26
ATOM     26  C   UNL     1       2.295   4.137  21.046  0.00  0.00    +0.000 C 
ATOM     27  C   UNL     1       1.164   3.133  21.050  0.00  0.00    +0.000 C 
ATOM     28  C   UNL     1       2.554   2.688  21.401  0.00  0.00    +0.000 C 
ENDBRANCH  23  26
ENDBRANCH  20  22
ENDBRANCH  19  20
ENDBRANCH   4  19
TORSDOF 8
ENDMDL
MODEL 4
REMARK VINA RESULT:      -7.4      1.881      2.577
REMARK  Name = 
REMARK  11 active torsions:
REMARK  status: ('A' for Active; 'I' for Inactive)
REMARK    1  A    between atoms: C_1  and  O_2
REMARK    2  A    between atoms: O_2  and  C_3
REMARK    3  A    between atoms: C_6  and  C_7
REMARK    4  A    between atoms: C_8  and  C_9
REMARK    5  A    between atoms: C_12  and  C_13
REMARK    6  A    between atoms: C_13  and  C_14
REMARK    7  A    between atoms: C_14  and  C_15
REMARK    8  A    between atoms: C_14  and  N_16
REMARK    9  A    between atoms: C_17  and  C_19
REMARK   10  A    between atoms: C_24  and  O_25
REMARK   11  A    between atoms: O_25  and  C_26
REMARK                            x       y       z     vdW  Elec       q    Type
REMARK                         _______ _______ _______ _____ _____    ______ ____
ROOT
ATOM      1  C   UNL     1       7.474   7.400  17.739  0.00  0.00    +0.000 A 
ATOM      2  C   UNL     1       6.472   7.317  16.769  0.00  0.00    +0.000 A 
ATOM      3  C   UNL     1       5.793   6.109  16.558  0.00  0.00    +0.000 A 
ATOM      4  C   UNL     1       6.112   4.965  17.304  0.00  0.00    +0.000 A 
ATOM      5  C   UNL     1       7.163   5.045  18.229  0.00  0.00    +0.000 A 
ATOM      6  C   UNL     1       7.838   6.253  18.445  0.00  0.00    +0.000 A 
ENDROOT
BRANCH   1   8
ATOM      7  C   UNL     1       8.630   9.679  18.382  0.00  0.00    +0.000 C 
ATOM      8  C   UNL     1       8.062   8.663  18.079  0.00  0.00    +0.000 C 
BRANCH   7  12
ATOM      9  C   UNL     1      10.735  13.082  19.453  0.00  0.00    +0.000 A 
ATOM     10  N   UNL     1      11.067  11.925  20.042  0.00  0.00    +0.000 NA
ATOM     11  C   UNL     1      10.353  10.841  19.673  0.00  0.00    +0.000 A 
ATOM     12  C   UNL     1       9.333  10.872  18.748  0.00  0.00    +0.000 A 
ATOM     13  C   UNL     1       9.065  12.126  18.224  0.00  0.00    +0.000 A 
ATOM     14  N   UNL     1       9.748  13.243  18.558  0.00  0.00    +0.000 NA
BRANCH   9  16
ATOM     15  C   UNL     1      10.871  15.064  20.689  0.00  0.00    +0.000 C 
ATOM     16  O   UNL     1      11.522  14.152  19.817  0.00  0.00    +0.000 OA
ENDBRANCH   9  16
BRANCH  13  17
ATOM     17  O   UNL     1       8.038  12.226  17.301  0.00  0.00    +0.000 OA
ATOM     18  C   UNL     1       7.314  13.450  17.376  0.00  0.00    +0.000 C 
ENDBRANCH  13  17
ENDBRANCH   7  12
ENDBRANCH   1   8
BRANCH   4  19
ATOM     19  C   UNL     1       5.271   3.704  17.208  0.00  0.00    +0.000 C 
BRANCH  19  20
ATOM     20  C   UNL     1       4.106   3.584  18.215  0.00  0.00    +0.000 C 
ATOM     21  C   UNL     1       4.563   2.984  19.542  0.00  0.00    +0.000 C 
BRANCH  20  22
ATOM     22  N   UNL     1       3.483   4.889  18.466  0.00  0.00    +0.000 N 
ATOM     23  C   UNL     1       2.223   5.190  18.003  0.00  0.00    +0.000 C 
ATOM     24  O   UNL     1       1.531   4.416  17.356  0.00  0.00    +0.000 OA
ATOM     25  H   UNL     1       4.022   5.608  18.930  0.00  0.00    +0.000 HD
BRANCH  23  26
ATOM     26  C   UNL     1       1.729   6.553  18.362  0.00  0.00    +0.000 C 
ATOM     27  C   UNL     1       2.483   7.384  19.376  0.00  0.00    +0.000 C 
ATOM     28  C   UNL     1       2.510   7.775  17.928  0.00  0.00    +0.000 C 
ENDBRANCH  23  26
ENDBRANCH  20  22
ENDBRANCH  19  20
ENDBRANCH   4  19
TORSDOF 8
ENDMDL
MODEL 5
REMARK VINA RESULT:      -7.3      1.398      2.048
REMARK  Name = 
REMARK  11 active torsions:
REMARK  status: ('A' for Active; 'I' for Inactive)
REMARK    1  A    between atoms: C_1  and  O_2
REMARK    2  A    between atoms: O_2  and  C_3
REMARK    3  A    between atoms: C_6  and  C_7
REMARK    4  A    between atoms: C_8  and  C_9
REMARK    5  A    between atoms: C_12  and  C_13
REMARK    6  A    between atoms: C_13  and  C_14
REMARK    7  A    between atoms: C_14  and  C_15
REMARK    8  A    between atoms: C_14  and  N_16
REMARK    9  A    between atoms: C_17  and  C_19
REMARK   10  A    between atoms: C_24  and  O_25
REMARK   11  A    between atoms: O_25  and  C_26
REMARK                            x       y       z     vdW  Elec       q    Type
REMARK                         _______ _______ _______ _____ _____    ______ ____
ROOT
ATOM      1  C   UNL     1       7.492   7.419  17.996  0.00  0.00    +0.000 A 
ATOM      2  C   UNL     1       7.786   6.169  18.545  0.00  0.00    +0.000 A 
ATOM      3  C   UNL     1       7.093   5.028  18.115  0.00  0.00    +0.000 A 
ATOM      4  C   UNL     1       6.089   5.122  17.139  0.00  0.00    +0.000 A 
ATOM      5  C   UNL     1       5.760   6.393  16.643  0.00  0.00    +0.000 A 
ATOM      6  C   UNL     1       6.456   7.531  17.068  0.00  0.00    +0.000 A 
ENDROOT
BRANCH   1   8
ATOM      7  C   UNL     1       8.926   9.570  18.508  0.00  0.00    +0.000 C 
ATOM      8  C   UNL     1       8.299   8.564  18.305  0.00  0.00    +0.000 C 
BRANCH   7  12
ATOM      9  C   UNL     1      11.007  13.107  19.071  0.00  0.00    +0.000 A 
ATOM     10  N   UNL     1      10.976  12.584  17.838  0.00  0.00    +0.000 NA
ATOM     11  C   UNL     1      10.296  11.427  17.697  0.00  0.00    +0.000 A 
ATOM     12  C   UNL     1       9.652  10.784  18.731  0.00  0.00    +0.000 A 
ATOM     13  C   UNL     1       9.773  11.405  19.963  0.00  0.00    +0.000 A 
ATOM     14  N   UNL     1      10.441  12.563  20.161  0.00  0.00    +0.000 NA
BRANCH   9  16
ATOM     15  C   UNL     1      10.867  15.426  18.788  0.00  0.00    +0.000 C 
ATOM     16  O   UNL     1      11.665  14.313  19.162  0.00  0.00    +0.000 OA
ENDBRANCH   9  16
BRANCH  13  17
ATOM     17  O   UNL     1       9.162  10.797  21.047  0.00  0.00    +0.000 OA
ATOM     18  C   UNL     1       8.659  11.715  22.013  0.00  0.00    +0.000 C 
ENDBRANCH  13  17
ENDBRANCH   7  12
ENDBRANCH   1   8
BRANCH   4  19
ATOM     19  C   UNL     1       5.455   3.879  16.542  0.00  0.00    +0.000 C 
BRANCH  19  20
ATOM     20  C   UNL     1       4.042   3.523  17.053  0.00  0.00    +0.000 C 
ATOM     21  C   UNL     1       4.035   2.215  17.839  0.00  0.00    +0.000 C 
BRANCH  20  22
ATOM     22  N   UNL     1       3.494   4.594  17.893  0.00  0.00    +0.000 N 
ATOM     23  C   UNL     1       2.146   4.867  17.931  0.00  0.00    +0.000 C 
ATOM     24  O   UNL     1       1.308   4.258  17.281  0.00  0.00    +0.000 OA
ATOM     25  H   UNL     1       4.132   5.190  18.403  0.00  0.00    +0.000 HD
BRANCH  23  26
ATOM     26  C   UNL     1       1.754   5.975  18.853  0.00  0.00    +0.000 C 
ATOM     27  C   UNL     1       2.818   6.732  19.616  0.00  0.00    +0.000 C 
ATOM     28  C   UNL     1       2.086   7.408  18.494  0.00  0.00    +0.000 C 
ENDBRANCH  23  26
ENDBRANCH  20  22
ENDBRANCH  19  20
ENDBRANCH   4  19
TORSDOF 8
ENDMDL
MODEL 6
REMARK VINA RESULT:      -7.3      6.416      9.604
REMARK  Name = 
REMARK  11 active torsions:
REMARK  status: ('A' for Active; 'I' for Inactive)
REMARK    1  A    between atoms: C_1  and  O_2
REMARK    2  A    between atoms: O_2  and  C_3
REMARK    3  A    between atoms: C_6  and  C_7
REMARK    4  A    between atoms: C_8  and  C_9
REMARK    5  A    between atoms: C_12  and  C_13
REMARK    6  A    between atoms: C_13  and  C_14
REMARK    7  A    between atoms: C_14  and  C_15
REMARK    8  A    between atoms: C_14  and  N_16
REMARK    9  A    between atoms: C_17  and  C_19
REMARK   10  A    between atoms: C_24  and  O_25
REMARK   11  A    between atoms: O_25  and  C_26
REMARK                            x       y       z     vdW  Elec       q    Type
REMARK                         _______ _______ _______ _____ _____    ______ ____
ROOT
ATOM      1  C   UNL     1       0.975  10.141  18.303  0.00  0.00    +0.000 A 
ATOM      2  C   UNL     1       1.387  11.364  18.838  0.00  0.00    +0.000 A 
ATOM      3  C   UNL     1       0.438  12.312  19.243  0.00  0.00    +0.000 A 
ATOM      4  C   UNL     1      -0.935  12.058  19.109  0.00  0.00    +0.000 A 
ATOM      5  C   UNL     1      -1.334  10.853  18.511  0.00  0.00    +0.000 A 
ATOM      6  C   UNL     1      -0.386   9.903  18.112  0.00  0.00    +0.000 A 
ENDROOT
BRANCH   1   8
ATOM      7  C   UNL     1       2.687   8.182  17.883  0.00  0.00    +0.000 C 
ATOM      8  C   UNL     1       1.925   9.099  18.037  0.00  0.00    +0.000 C 
BRANCH   7  12
ATOM      9  C   UNL     1       5.341   5.037  17.413  0.00  0.00    +0.000 A 
ATOM     10  N   UNL     1       5.583   6.171  16.741  0.00  0.00    +0.000 NA
ATOM     11  C   UNL     1       4.691   7.168  16.914  0.00  0.00    +0.000 A 
ATOM     12  C   UNL     1       3.582   7.076  17.724  0.00  0.00    +0.000 A 
ATOM     13  C   UNL     1       3.423   5.849  18.349  0.00  0.00    +0.000 A 
ATOM     14  N   UNL     1       4.285   4.817  18.211  0.00  0.00    +0.000 NA
BRANCH   9  16
ATOM     15  C   UNL     1       7.620   4.516  17.521  0.00  0.00    +0.000 C 
ATOM     16  O   UNL     1       6.302   4.063  17.251  0.00  0.00    +0.000 OA
ENDBRANCH   9  16
BRANCH  13  17
ATOM     17  O   UNL     1       2.316   5.687  19.164  0.00  0.00    +0.000 OA
ATOM     18  C   UNL     1       2.595   5.003  20.382  0.00  0.00    +0.000 C 
ENDBRANCH  13  17
ENDBRANCH   7  12
ENDBRANCH   1   8
BRANCH   4  19
ATOM     19  C   UNL     1      -1.970  12.999  19.701  0.00  0.00    +0.000 C 
BRANCH  19  20
ATOM     20  C   UNL     1      -2.390  12.718  21.161  0.00  0.00    +0.000 C 
ATOM     21  C   UNL     1      -3.907  12.724  21.326  0.00  0.00    +0.000 C 
BRANCH  20  22
ATOM     22  N   UNL     1      -1.859  11.433  21.629  0.00  0.00    +0.000 N 
ATOM     23  C   UNL     1      -0.909  11.361  22.622  0.00  0.00    +0.000 C 
ATOM     24  O   UNL     1      -0.433  12.338  23.183  0.00  0.00    +0.000 OA
ATOM     25  H   UNL     1      -2.148  10.584  21.162  0.00  0.00    +0.000 HD
BRANCH  23  26
ATOM     26  C   UNL     1      -0.491   9.975  22.994  0.00  0.00    +0.000 C 
ATOM     27  C   UNL     1      -0.450   8.893  21.939  0.00  0.00    +0.000 C 
ATOM     28  C   UNL     1       0.833   9.430  22.502  0.00  0.00    +0.000 C 
ENDBRANCH  23  26
ENDBRANCH  20  22
ENDBRANCH  19  20
ENDBRANCH   4  19
TORSDOF 8
ENDMDL
MODEL 7
REMARK VINA RESULT:      -7.2      1.362      2.305
REMARK  Name = 
REMARK  11 active torsions:
REMARK  status: ('A' for Active; 'I' for Inactive)
REMARK    1  A    between atoms: C_1  and  O_2
REMARK    2  A    between atoms: O_2  and  C_3
REMARK    3  A    between atoms: C_6  and  C_7
REMARK    4  A    between atoms: C_8  and  C_9
REMARK    5  A    between atoms: C_12  and  C_13
REMARK    6  A    between atoms: C_13  and  C_14
REMARK    7  A    between atoms: C_14  and  C_15
REMARK    8  A    between atoms: C_14  and  N_16
REMARK    9  A    between atoms: C_17  and  C_19
REMARK   10  A    between atoms: C_24  and  O_25
REMARK   11  A    between atoms: O_25  and  C_26
REMARK                            x       y       z     vdW  Elec       q    Type
REMARK                         _______ _______ _______ _____ _____    ______ ____
ROOT
ATOM      1  C   UNL     1       8.240   8.278  18.444  0.00  0.00    +0.000 A 
ATOM      2  C   UNL     1       8.424   7.116  19.197  0.00  0.00    +0.000 A 
ATOM      3  C   UNL     1       7.961   5.883  18.717  0.00  0.00    +0.000 A 
ATOM      4  C   UNL     1       7.297   5.795  17.484  0.00  0.00    +0.000 A 
ATOM      5  C   UNL     1       7.062   6.979  16.768  0.00  0.00    +0.000 A 
ATOM      6  C   UNL     1       7.530   8.210  17.244  0.00  0.00    +0.000 A 
ENDROOT
BRANCH   1   8
ATOM      7  C   UNL     1       9.280  10.582  19.189  0.00  0.00    +0.000 C 
ATOM      8  C   UNL     1       8.850   9.514  18.841  0.00  0.00    +0.000 C 
BRANCH   7  12
ATOM      9  C   UNL     1      10.696  14.253  20.483  0.00  0.00    +0.000 A 
ATOM     10  N   UNL     1      10.135  13.440  21.389  0.00  0.00    +0.000 NA
ATOM     11  C   UNL     1       9.678  12.257  20.926  0.00  0.00    +0.000 A 
ATOM     12  C   UNL     1       9.763  11.862  19.610  0.00  0.00    +0.000 A 
ATOM     13  C   UNL     1      10.341  12.794  18.763  0.00  0.00    +0.000 A 
ATOM     14  N   UNL     1      10.814  13.992  19.172  0.00  0.00    +0.000 NA
BRANCH   9  16
ATOM     15  C   UNL     1      10.597  15.801  22.235  0.00  0.00    +0.000 C 
ATOM     16  O   UNL     1      11.196  15.425  21.005  0.00  0.00    +0.000 OA
ENDBRANCH   9  16
BRANCH  13  17
ATOM     17  O   UNL     1      10.439  12.463  17.422  0.00  0.00    +0.000 OA
ATOM     18  C   UNL     1      11.402  13.233  16.709  0.00  0.00    +0.000 C 
ENDBRANCH  13  17
ENDBRANCH   7  12
ENDBRANCH   1   8
BRANCH   4  19
ATOM     19  C   UNL     1       6.946   4.449  16.875  0.00  0.00    +0.000 C 
BRANCH  19  20
ATOM     20  C   UNL     1       5.772   4.442  15.871  0.00  0.00    +0.000 C 
ATOM     21  C   UNL     1       6.201   3.923  14.501  0.00  0.00    +0.000 C 
BRANCH  20  22
ATOM     22  N   UNL     1       4.653   3.631  16.365  0.00  0.00    +0.000 N 
ATOM     23  C   UNL     1       3.697   4.152  17.206  0.00  0.00    +0.000 C 
ATOM     24  O   UNL     1       3.699   5.308  17.608  0.00  0.00    +0.000 OA
ATOM     25  H   UNL     1       4.625   2.647  16.137  0.00  0.00    +0.000 HD
BRANCH  23  26
ATOM     26  C   UNL     1       2.617   3.199  17.599  0.00  0.00    +0.000 C 
ATOM     27  C   UNL     1       2.973   1.901  18.289  0.00  0.00    +0.000 C 
ATOM     28  C   UNL     1       2.292   2.991  19.063  0.00  0.00    +0.000 C 
ENDBRANCH  23  26
ENDBRANCH  20  22
ENDBRANCH  19  20
ENDBRANCH   4  19
TORSDOF 8
ENDMDL
MODEL 8
REMARK VINA RESULT:      -7.2      6.594      9.822
REMARK  Name = 
REMARK  11 active torsions:
REMARK  status: ('A' for Active; 'I' for Inactive)
REMARK    1  A    between atoms: C_1  and  O_2
REMARK    2  A    between atoms: O_2  and  C_3
REMARK    3  A    between atoms: C_6  and  C_7
REMARK    4  A    between atoms: C_8  and  C_9
REMARK    5  A    between atoms: C_12  and  C_13
REMARK    6  A    between atoms: C_13  and  C_14
REMARK    7  A    between atoms: C_14  and  C_15
REMARK    8  A    between atoms: C_14  and  N_16
REMARK    9  A    between atoms: C_17  and  C_19
REMARK   10  A    between atoms: C_24  and  O_25
REMARK   11  A    between atoms: O_25  and  C_26
REMARK                            x       y       z     vdW  Elec       q    Type
REMARK                         _______ _______ _______ _____ _____    ______ ____
ROOT
ATOM      1  C   UNL     1       1.475   9.301  19.123  0.00  0.00    +0.000 A 
ATOM      2  C   UNL     1       0.666   9.114  20.245  0.00  0.00    +0.000 A 
ATOM      3  C   UNL     1      -0.206  10.128  20.665  0.00  0.00    +0.000 A 
ATOM      4  C   UNL     1      -0.273  11.349  19.976  0.00  0.00    +0.000 A 
ATOM      5  C   UNL     1       0.592  11.548  18.889  0.00  0.00    +0.000 A 
ATOM      6  C   UNL     1       1.458  10.532  18.466  0.00  0.00    +0.000 A 
ENDROOT
BRANCH   1   8
ATOM      7  C   UNL     1       2.900   7.356  18.061  0.00  0.00    +0.000 C 
ATOM      8  C   UNL     1       2.248   8.218  18.586  0.00  0.00    +0.000 C 
BRANCH   7  12
ATOM      9  C   UNL     1       5.221   4.491  16.173  0.00  0.00    +0.000 A 
ATOM     10  N   UNL     1       5.450   5.778  15.882  0.00  0.00    +0.000 NA
ATOM     11  C   UNL     1       4.667   6.680  16.510  0.00  0.00    +0.000 A 
ATOM     12  C   UNL     1       3.679   6.346  17.409  0.00  0.00    +0.000 A 
ATOM     13  C   UNL     1       3.519   4.985  17.613  0.00  0.00    +0.000 A 
ATOM     14  N   UNL     1       4.274   4.040  17.011  0.00  0.00    +0.000 NA
BRANCH   9  16
ATOM     15  C   UNL     1       6.646   4.114  14.355  0.00  0.00    +0.000 C 
ATOM     16  O   UNL     1       6.074   3.606  15.552  0.00  0.00    +0.000 OA
ENDBRANCH   9  16
BRANCH  13  17
ATOM     17  O   UNL     1       2.528   4.584  18.493  0.00  0.00    +0.000 OA
ATOM     18  C   UNL     1       3.019   3.876  19.627  0.00  0.00    +0.000 C 
ENDBRANCH  13  17
ENDBRANCH   7  12
ENDBRANCH   1   8
BRANCH   4  19
ATOM     19  C   UNL     1      -1.331  12.384  20.313  0.00  0.00    +0.000 C 
BRANCH  19  20
ATOM     20  C   UNL     1      -2.746  12.118  19.754  0.00  0.00    +0.000 C 
ATOM     21  C   UNL     1      -3.754  13.153  20.247  0.00  0.00    +0.000 C 
BRANCH  20  22
ATOM     22  N   UNL     1      -2.746  12.106  18.287  0.00  0.00    +0.000 N 
ATOM     23  C   UNL     1      -2.716  10.931  17.573  0.00  0.00    +0.000 C 
ATOM     24  O   UNL     1      -2.686   9.821  18.086  0.00  0.00    +0.000 OA
ATOM     25  H   UNL     1      -2.695  12.986  17.791  0.00  0.00    +0.000 HD
BRANCH  23  26
ATOM     26  C   UNL     1      -2.741  11.096  16.088  0.00  0.00    +0.000 C 
ATOM     27  C   UNL     1      -2.714   9.875  15.195  0.00  0.00    +0.000 C 
ATOM     28  C   UNL     1      -3.971  10.687  15.306  0.00  0.00    +0.000 C 
ENDBRANCH  23  26
ENDBRANCH  20  22
ENDBRANCH  19  20
ENDBRANCH   4  19
TORSDOF 8
ENDMDL
MODEL 9
REMARK VINA RESULT:      -7.2      1.747      2.176
REMARK  Name = 
REMARK  11 active torsions:
REMARK  status: ('A' for Active; 'I' for Inactive)
REMARK    1  A    between atoms: C_1  and  O_2
REMARK    2  A    between atoms: O_2  and  C_3
REMARK    3  A    between atoms: C_6  and  C_7
REMARK    4  A    between atoms: C_8  and  C_9
REMARK    5  A    between atoms: C_12  and  C_13
REMARK    6  A    between atoms: C_13  and  C_14
REMARK    7  A    between atoms: C_14  and  C_15
REMARK    8  A    between atoms: C_14  and  N_16
REMARK    9  A    between atoms: C_17  and  C_19
REMARK   10  A    between atoms: C_24  and  O_25
REMARK   11  A    between atoms: O_25  and  C_26
REMARK                            x       y       z     vdW  Elec       q    Type
REMARK                         _______ _______ _______ _____ _____    ______ ____
ROOT
ATOM      1  C   UNL     1       7.635   7.488  17.892  0.00  0.00    +0.000 A 
ATOM      2  C   UNL     1       6.640   7.389  16.917  0.00  0.00    +0.000 A 
ATOM      3  C   UNL     1       5.887   6.214  16.794  0.00  0.00    +0.000 A 
ATOM      4  C   UNL     1       6.124   5.116  17.635  0.00  0.00    +0.000 A 
ATOM      5  C   UNL     1       7.170   5.205  18.567  0.00  0.00    +0.000 A 
ATOM      6  C   UNL     1       7.918   6.382  18.694  0.00  0.00    +0.000 A 
ENDROOT
BRANCH   1   8
ATOM      7  C   UNL     1       8.884   9.747  18.423  0.00  0.00    +0.000 C 
ATOM      8  C   UNL     1       8.300   8.735  18.139  0.00  0.00    +0.000 C 
BRANCH   7  12
ATOM      9  C   UNL     1      10.907  13.227  19.400  0.00  0.00    +0.000 A 
ATOM     10  N   UNL     1      10.938  12.818  18.124  0.00  0.00    +0.000 NA
ATOM     11  C   UNL     1      10.275  11.676  17.848  0.00  0.00    +0.000 A 
ATOM     12  C   UNL     1       9.589  10.939  18.788  0.00  0.00    +0.000 A 
ATOM     13  C   UNL     1       9.647  11.447  20.075  0.00  0.00    +0.000 A 
ATOM     14  N   UNL     1      10.296  12.585  20.408  0.00  0.00    +0.000 NA
BRANCH   9  16
ATOM     15  C   UNL     1      11.687  15.227  18.467  0.00  0.00    +0.000 C 
ATOM     16  O   UNL     1      11.550  14.423  19.630  0.00  0.00    +0.000 OA
ENDBRANCH   9  16
BRANCH  13  17
ATOM     17  O   UNL     1       8.992  10.741  21.070  0.00  0.00    +0.000 OA
ATOM     18  C   UNL     1       8.558  11.550  22.159  0.00  0.00    +0.000 C 
ENDBRANCH  13  17
ENDBRANCH   7  12
ENDBRANCH   1   8
BRANCH   4  19
ATOM     19  C   UNL     1       5.206   3.908  17.628  0.00  0.00    +0.000 C 
BRANCH  19  20
ATOM     20  C   UNL     1       4.062   3.916  18.666  0.00  0.00    +0.000 C 
ATOM     21  C   UNL     1       4.326   2.940  19.809  0.00  0.00    +0.000 C 
BRANCH  20  22
ATOM     22  N   UNL     1       3.854   5.260  19.218  0.00  0.00    +0.000 N 
ATOM     23  C   UNL     1       2.829   6.069  18.786  0.00  0.00    +0.000 C 
ATOM     24  O   UNL     1       2.024   5.749  17.922  0.00  0.00    +0.000 OA
ATOM     25  H   UNL     1       4.523   5.625  19.883  0.00  0.00    +0.000 HD
BRANCH  23  26
ATOM     26  C   UNL     1       2.747   7.398  19.465  0.00  0.00    +0.000 C 
ATOM     27  C   UNL     1       1.657   8.373  19.080  0.00  0.00    +0.000 C 
ATOM     28  C   UNL     1       1.603   7.688  20.414  0.00  0.00    +0.000 C 
ENDBRANCH  23  26
ENDBRANCH  20  22
ENDBRANCH  19  20
ENDBRANCH   4  19
TORSDOF 8
ENDMDL
