MODEL 1
REMARK VINA RESULT:      -8.2      0.000      0.000
REMARK  Name = 
REMARK  6 active torsions:
REMARK  status: ('A' for Active; 'I' for Inactive)
REMARK    1  A    between atoms: C_1  and  N_2
REMARK    2  A    between atoms: N_2  and  C_3
REMARK    3  A    between atoms: N_2  and  C_4
REMARK    4  A    between atoms: C_7  and  C_8
REMARK    5  A    between atoms: N_10  and  C_11
REMARK    6  A    between atoms: N_19  and  C_20
REMARK                            x       y       z     vdW  Elec       q    Type
REMARK                         _______ _______ _______ _____ _____    ______ ____
ROOT
ATOM      1  C   UNL     1       0.504   9.819  19.620  0.00  0.00    +0.000 A 
ATOM      2  C   UNL     1       1.440   8.850  19.858  0.00  0.00    +0.000 A 
ATOM      3  N   UNL     1       1.907   8.437  18.620  0.00  0.00    +0.000 N 
ATOM      4  N   UNL     1       1.260   9.193  17.675  0.00  0.00    +0.000 NA
ATOM      5  N   UNL     1       0.413  10.021  18.276  0.00  0.00    +0.000 NA
ENDROOT
BRANCH   3   6
ATOM      6  C   UNL     1       2.781   7.368  18.379  0.00  0.00    +0.000 A 
ATOM      7  C   UNL     1       3.760   7.393  17.446  0.00  0.00    +0.000 A 
ATOM      8  C   UNL     1       4.463   6.153  17.089  0.00  0.00    +0.000 A 
ATOM      9  C   UNL     1       5.651   6.146  16.359  0.00  0.00    +0.000 A 
ATOM     10  C   UNL     1       6.224   4.928  15.981  0.00  0.00    +0.000 A 
ATOM     11  C   UNL     1       5.593   3.721  16.292  0.00  0.00    +0.000 A 
ATOM     12  C   UNL     1       4.389   3.719  16.995  0.00  0.00    +0.000 A 
ATOM     13  C   UNL     1       3.840   4.934  17.405  0.00  0.00    +0.000 A 
ATOM     14  N   UNL     1       2.719   4.946  18.274  0.00  0.00    +0.000 N 
ATOM     15  C   UNL     1       1.458   4.510  17.693  0.00  0.00    +0.000 C 
ATOM     16  C   UNL     1       2.581   6.068  19.086  0.00  0.00    +0.000 A 
ATOM     17  O   UNL     1       2.200   5.997  20.250  0.00  0.00    +0.000 OA
ENDBRANCH   3   6
BRANCH   1  21
ATOM     18  C   UNL     1      -1.668  12.043  22.599  0.00  0.00    +0.000 A 
ATOM     19  C   UNL     1      -1.687  12.381  21.233  0.00  0.00    +0.000 A 
ATOM     20  C   UNL     1      -0.997  11.644  20.264  0.00  0.00    +0.000 A 
ATOM     21  C   UNL     1      -0.242  10.538  20.629  0.00  0.00    +0.000 A 
ATOM     22  C   UNL     1      -0.200  10.171  21.976  0.00  0.00    +0.000 A 
ATOM     23  C   UNL     1      -0.909  10.912  22.938  0.00  0.00    +0.000 A 
BRANCH  18  25
ATOM     24  C   UNL     1      -3.691  12.324  23.993  0.00  0.00    +0.000 C 
ATOM     25  N   UNL     1      -2.376  12.770  23.551  0.00  0.00    +0.000 N 
ATOM     26  C   UNL     1      -1.991  14.142  23.868  0.00  0.00    +0.000 C 
ENDBRANCH  18  25
ENDBRANCH   1  21
TORSDOF 3
ENDMDL
MODEL 2
REMARK VINA RESULT:      -8.1      1.834      2.449
REMARK  Name = 
REMARK  6 active torsions:
REMARK  status: ('A' for Active; 'I' for Inactive)
REMARK    1  A    between atoms: C_1  and  N_2
REMARK    2  A    between atoms: N_2  and  C_3
REMARK    3  A    between atoms: N_2  and  C_4
REMARK    4  A    between atoms: C_7  and  C_8
REMARK    5  A    between atoms: N_10  and  C_11
REMARK    6  A    between atoms: N_19  and  C_20
REMARK                            x       y       z     vdW  Elec       q    Type
REMARK                         _______ _______ _______ _____ _____    ______ ____
ROOT
ATOM      1  C   UNL     1       1.363   7.695  20.666  0.00  0.00    +0.000 A 
ATOM      2  C   UNL     1       2.231   7.578  19.615  0.00  0.00    +0.000 A 
ATOM      3  N   UNL     1       2.578   6.239  19.534  0.00  0.00    +0.000 N 
ATOM      4  N   UNL     1       1.884   5.584  20.520  0.00  0.00    +0.000 NA
ATOM      5  N   UNL     1       1.157   6.460  21.204  0.00  0.00    +0.000 NA
ENDROOT
BRANCH   3   6
ATOM      6  C   UNL     1       3.545   5.683  18.685  0.00  0.00    +0.000 A 
ATOM      7  C   UNL     1       3.977   6.275  17.548  0.00  0.00    +0.000 A 
ATOM      8  C   UNL     1       4.800   5.518  16.596  0.00  0.00    +0.000 A 
ATOM      9  C   UNL     1       5.506   6.130  15.560  0.00  0.00    +0.000 A 
ATOM     10  C   UNL     1       6.204   5.342  14.638  0.00  0.00    +0.000 A 
ATOM     11  C   UNL     1       6.164   3.948  14.723  0.00  0.00    +0.000 A 
ATOM     12  C   UNL     1       5.435   3.328  15.736  0.00  0.00    +0.000 A 
ATOM     13  C   UNL     1       4.773   4.116  16.678  0.00  0.00    +0.000 A 
ATOM     14  N   UNL     1       4.182   3.510  17.817  0.00  0.00    +0.000 N 
ATOM     15  C   UNL     1       2.992   2.711  17.568  0.00  0.00    +0.000 C 
ATOM     16  C   UNL     1       4.070   4.310  18.950  0.00  0.00    +0.000 A 
ATOM     17  O   UNL     1       4.260   3.879  20.082  0.00  0.00    +0.000 OA
ENDBRANCH   3   6
BRANCH   1  21
ATOM     18  C   UNL     1      -0.582  11.294  22.008  0.00  0.00    +0.000 A 
ATOM     19  C   UNL     1      -0.532  10.121  22.785  0.00  0.00    +0.000 A 
ATOM     20  C   UNL     1       0.119   8.960  22.355  0.00  0.00    +0.000 A 
ATOM     21  C   UNL     1       0.740   8.921  21.113  0.00  0.00    +0.000 A 
ATOM     22  C   UNL     1       0.712  10.067  20.315  0.00  0.00    +0.000 A 
ATOM     23  C   UNL     1       0.066  11.231  20.765  0.00  0.00    +0.000 A 
BRANCH  18  25
ATOM     24  C   UNL     1      -0.503  13.723  22.463  0.00  0.00    +0.000 C 
ATOM     25  N   UNL     1      -1.213  12.451  22.455  0.00  0.00    +0.000 N 
ATOM     26  C   UNL     1      -2.446  12.365  23.231  0.00  0.00    +0.000 C 
ENDBRANCH  18  25
ENDBRANCH   1  21
TORSDOF 3
ENDMDL
MODEL 3
REMARK VINA RESULT:      -8.1      1.875      2.272
REMARK  Name = 
REMARK  6 active torsions:
REMARK  status: ('A' for Active; 'I' for Inactive)
REMARK    1  A    between atoms: C_1  and  N_2
REMARK    2  A    between atoms: N_2  and  C_3
REMARK    3  A    between atoms: N_2  and  C_4
REMARK    4  A    between atoms: C_7  and  C_8
REMARK    5  A    between atoms: N_10  and  C_11
REMARK    6  A    between atoms: N_19  and  C_20
REMARK                            x       y       z     vdW  Elec       q    Type
REMARK                         _______ _______ _______ _____ _____    ______ ____
ROOT
ATOM      1  C   UNL     1       1.329   7.568  20.720  0.00  0.00    +0.000 A 
ATOM      2  C   UNL     1       2.212   7.481  19.679  0.00  0.00    +0.000 A 
ATOM      3  N   UNL     1       2.549   6.142  19.555  0.00  0.00    +0.000 N 
ATOM      4  N   UNL     1       1.833   5.460  20.506  0.00  0.00    +0.000 NA
ATOM      5  N   UNL     1       1.104   6.317  21.210  0.00  0.00    +0.000 NA
ENDROOT
BRANCH   3   6
ATOM      6  C   UNL     1       3.525   5.608  18.702  0.00  0.00    +0.000 A 
ATOM      7  C   UNL     1       3.966   6.227  17.583  0.00  0.00    +0.000 A 
ATOM      8  C   UNL     1       4.798   5.494  16.620  0.00  0.00    +0.000 A 
ATOM      9  C   UNL     1       5.512   6.131  15.606  0.00  0.00    +0.000 A 
ATOM     10  C   UNL     1       6.219   5.367  14.672  0.00  0.00    +0.000 A 
ATOM     11  C   UNL     1       6.181   3.971  14.723  0.00  0.00    +0.000 A 
ATOM     12  C   UNL     1       5.444   3.326  15.715  0.00  0.00    +0.000 A 
ATOM     13  C   UNL     1       4.773   4.090  16.669  0.00  0.00    +0.000 A 
ATOM     14  N   UNL     1       4.172   3.457  17.788  0.00  0.00    +0.000 N 
ATOM     15  C   UNL     1       2.985   2.662  17.509  0.00  0.00    +0.000 C 
ATOM     16  C   UNL     1       4.049   4.230  18.939  0.00  0.00    +0.000 A 
ATOM     17  O   UNL     1       4.230   3.772  20.062  0.00  0.00    +0.000 OA
ENDBRANCH   3   6
BRANCH   1  21
ATOM     18  C   UNL     1      -0.428  11.234  22.137  0.00  0.00    +0.000 A 
ATOM     19  C   UNL     1       0.158  11.114  20.864  0.00  0.00    +0.000 A 
ATOM     20  C   UNL     1       0.710   9.915  20.398  0.00  0.00    +0.000 A 
ATOM     21  C   UNL     1       0.709   8.783  21.201  0.00  0.00    +0.000 A 
ATOM     22  C   UNL     1       0.135   8.864  22.471  0.00  0.00    +0.000 A 
ATOM     23  C   UNL     1      -0.428  10.070  22.922  0.00  0.00    +0.000 A 
BRANCH  18  25
ATOM     24  C   UNL     1      -2.357  12.448  23.098  0.00  0.00    +0.000 C 
ATOM     25  N   UNL     1      -0.994  12.425  22.582  0.00  0.00    +0.000 N 
ATOM     26  C   UNL     1      -0.387  13.705  22.234  0.00  0.00    +0.000 C 
ENDBRANCH  18  25
ENDBRANCH   1  21
TORSDOF 3
ENDMDL
MODEL 4
REMARK VINA RESULT:      -8.0      1.575      2.586
REMARK  Name = 
REMARK  6 active torsions:
REMARK  status: ('A' for Active; 'I' for Inactive)
REMARK    1  A    between atoms: C_1  and  N_2
REMARK    2  A    between atoms: N_2  and  C_3
REMARK    3  A    between atoms: N_2  and  C_4
REMARK    4  A    between atoms: C_7  and  C_8
REMARK    5  A    between atoms: N_10  and  C_11
REMARK    6  A    between atoms: N_19  and  C_20
REMARK                            x       y       z     vdW  Elec       q    Type
REMARK                         _______ _______ _______ _____ _____    ______ ____
ROOT
ATOM      1  C   UNL     1       1.228   9.635  19.372  0.00  0.00    +0.000 A 
ATOM      2  C   UNL     1       1.525   8.312  19.550  0.00  0.00    +0.000 A 
ATOM      3  N   UNL     1       2.200   7.900  18.411  0.00  0.00    +0.000 N 
ATOM      4  N   UNL     1       2.316   8.997  17.596  0.00  0.00    +0.000 NA
ATOM      5  N   UNL     1       1.728  10.039  18.171  0.00  0.00    +0.000 NA
ENDROOT
BRANCH   3   6
ATOM      6  C   UNL     1       2.580   6.587  18.103  0.00  0.00    +0.000 A 
ATOM      7  C   UNL     1       1.811   5.502  18.351  0.00  0.00    +0.000 A 
ATOM      8  C   UNL     1       2.383   4.155  18.229  0.00  0.00    +0.000 A 
ATOM      9  C   UNL     1       1.595   3.005  18.193  0.00  0.00    +0.000 A 
ATOM     10  C   UNL     1       2.207   1.747  18.159  0.00  0.00    +0.000 A 
ATOM     11  C   UNL     1       3.599   1.635  18.205  0.00  0.00    +0.000 A 
ATOM     12  C   UNL     1       4.393   2.779  18.273  0.00  0.00    +0.000 A 
ATOM     13  C   UNL     1       3.782   4.032  18.266  0.00  0.00    +0.000 A 
ATOM     14  N   UNL     1       4.573   5.204  18.149  0.00  0.00    +0.000 N 
ATOM     15  C   UNL     1       5.382   5.545  19.310  0.00  0.00    +0.000 C 
ATOM     16  C   UNL     1       3.952   6.311  17.579  0.00  0.00    +0.000 A 
ATOM     17  O   UNL     1       4.533   7.069  16.810  0.00  0.00    +0.000 OA
ENDBRANCH   3   6
BRANCH   1  21
ATOM     18  C   UNL     1      -0.925  12.070  22.195  0.00  0.00    +0.000 A 
ATOM     19  C   UNL     1      -0.468  10.775  22.501  0.00  0.00    +0.000 A 
ATOM     20  C   UNL     1       0.250   9.994  21.588  0.00  0.00    +0.000 A 
ATOM     21  C   UNL     1       0.529  10.477  20.317  0.00  0.00    +0.000 A 
ATOM     22  C   UNL     1       0.092  11.760  19.978  0.00  0.00    +0.000 A 
ATOM     23  C   UNL     1      -0.616  12.540  20.909  0.00  0.00    +0.000 A 
BRANCH  18  25
ATOM     24  C   UNL     1      -2.997  12.526  23.464  0.00  0.00    +0.000 C 
ATOM     25  N   UNL     1      -1.619  12.847  23.118  0.00  0.00    +0.000 N 
ATOM     26  C   UNL     1      -1.122  14.167  23.494  0.00  0.00    +0.000 C 
ENDBRANCH  18  25
ENDBRANCH   1  21
TORSDOF 3
ENDMDL
MODEL 5
REMARK VINA RESULT:      -7.9      2.425      9.544
REMARK  Name = 
REMARK  6 active torsions:
REMARK  status: ('A' for Active; 'I' for Inactive)
REMARK    1  A    between atoms: C_1  and  N_2
REMARK    2  A    between atoms: N_2  and  C_3
REMARK    3  A    between atoms: N_2  and  C_4
REMARK    4  A    between atoms: C_7  and  C_8
REMARK    5  A    between atoms: N_10  and  C_11
REMARK    6  A    between atoms: N_19  and  C_20
REMARK                            x       y       z     vdW  Elec       q    Type
REMARK                         _______ _______ _______ _____ _____    ______ ____
ROOT
ATOM      1  C   UNL     1       1.194   8.695  21.157  0.00  0.00    +0.000 A 
ATOM      2  C   UNL     1       0.266   9.646  20.831  0.00  0.00    +0.000 A 
ATOM      3  N   UNL     1       0.063  10.408  21.971  0.00  0.00    +0.000 N 
ATOM      4  N   UNL     1       0.898   9.912  22.939  0.00  0.00    +0.000 NA
ATOM      5  N   UNL     1       1.575   8.879  22.451  0.00  0.00    +0.000 NA
ENDROOT
BRANCH   3   6
ATOM      6  C   UNL     1      -0.901  11.413  22.134  0.00  0.00    +0.000 A 
ATOM      7  C   UNL     1      -1.869  11.381  23.078  0.00  0.00    +0.000 A 
ATOM      8  C   UNL     1      -2.980  12.341  23.020  0.00  0.00    +0.000 A 
ATOM      9  C   UNL     1      -3.846  12.552  24.092  0.00  0.00    +0.000 A 
ATOM     10  C   UNL     1      -4.934  13.419  23.943  0.00  0.00    +0.000 A 
ATOM     11  C   UNL     1      -5.181  14.040  22.717  0.00  0.00    +0.000 A 
ATOM     12  C   UNL     1      -4.338  13.811  21.631  0.00  0.00    +0.000 A 
ATOM     13  C   UNL     1      -3.232  12.977  21.794  0.00  0.00    +0.000 A 
ATOM     14  N   UNL     1      -2.264  12.876  20.761  0.00  0.00    +0.000 N 
ATOM     15  C   UNL     1      -2.687  12.172  19.559  0.00  0.00    +0.000 C 
ATOM     16  C   UNL     1      -0.973  12.542  21.159  0.00  0.00    +0.000 A 
ATOM     17  O   UNL     1       0.023  13.045  20.650  0.00  0.00    +0.000 OA
ENDBRANCH   3   6
BRANCH   1  21
ATOM     18  C   UNL     1       2.668   5.705  18.432  0.00  0.00    +0.000 A 
ATOM     19  C   UNL     1       2.603   7.071  18.100  0.00  0.00    +0.000 A 
ATOM     20  C   UNL     1       2.143   8.043  18.995  0.00  0.00    +0.000 A 
ATOM     21  C   UNL     1       1.713   7.682  20.264  0.00  0.00    +0.000 A 
ATOM     22  C   UNL     1       1.765   6.335  20.630  0.00  0.00    +0.000 A 
ATOM     23  C   UNL     1       2.242   5.370  19.726  0.00  0.00    +0.000 A 
BRANCH  18  25
ATOM     24  C   UNL     1       2.504   3.447  17.439  0.00  0.00    +0.000 C 
ATOM     25  N   UNL     1       3.148   4.750  17.541  0.00  0.00    +0.000 N 
ATOM     26  C   UNL     1       4.477   4.889  16.954  0.00  0.00    +0.000 C 
ENDBRANCH  18  25
ENDBRANCH   1  21
TORSDOF 3
ENDMDL
MODEL 6
REMARK VINA RESULT:      -7.9      1.875      9.342
REMARK  Name = 
REMARK  6 active torsions:
REMARK  status: ('A' for Active; 'I' for Inactive)
REMARK    1  A    between atoms: C_1  and  N_2
REMARK    2  A    between atoms: N_2  and  C_3
REMARK    3  A    between atoms: N_2  and  C_4
REMARK    4  A    between atoms: C_7  and  C_8
REMARK    5  A    between atoms: N_10  and  C_11
REMARK    6  A    between atoms: N_19  and  C_20
REMARK                            x       y       z     vdW  Elec       q    Type
REMARK                         _______ _______ _______ _____ _____    ______ ____
ROOT
ATOM      1  C   UNL     1       2.855   6.642  18.748  0.00  0.00    +0.000 A 
ATOM      2  C   UNL     1       2.475   7.955  18.810  0.00  0.00    +0.000 A 
ATOM      3  N   UNL     1       1.708   8.093  19.956  0.00  0.00    +0.000 N 
ATOM      4  N   UNL     1       1.676   6.865  20.567  0.00  0.00    +0.000 NA
ATOM      5  N   UNL     1       2.361   5.991  19.838  0.00  0.00    +0.000 NA
ENDROOT
BRANCH   3   6
ATOM      6  C   UNL     1       1.003   9.239  20.348  0.00  0.00    +0.000 A 
ATOM      7  C   UNL     1       0.344   9.352  21.524  0.00  0.00    +0.000 A 
ATOM      8  C   UNL     1      -0.570  10.480  21.746  0.00  0.00    +0.000 A 
ATOM      9  C   UNL     1      -1.058  10.815  23.009  0.00  0.00    +0.000 A 
ATOM     10  C   UNL     1      -1.990  11.849  23.139  0.00  0.00    +0.000 A 
ATOM     11  C   UNL     1      -2.467  12.520  22.010  0.00  0.00    +0.000 A 
ATOM     12  C   UNL     1      -2.008  12.172  20.741  0.00  0.00    +0.000 A 
ATOM     13  C   UNL     1      -1.048  11.167  20.617  0.00  0.00    +0.000 A 
ATOM     14  N   UNL     1      -0.436  10.924  19.361  0.00  0.00    +0.000 N 
ATOM     15  C   UNL     1      -1.284  10.315  18.346  0.00  0.00    +0.000 C 
ATOM     16  C   UNL     1       0.844  10.378  19.395  0.00  0.00    +0.000 A 
ATOM     17  O   UNL     1       1.727  10.720  18.615  0.00  0.00    +0.000 OA
ENDBRANCH   3   6
BRANCH   1  21
ATOM     18  C   UNL     1       5.248   4.933  15.604  0.00  0.00    +0.000 A 
ATOM     19  C   UNL     1       5.218   6.314  15.872  0.00  0.00    +0.000 A 
ATOM     20  C   UNL     1       4.456   6.864  16.908  0.00  0.00    +0.000 A 
ATOM     21  C   UNL     1       3.674   6.049  17.715  0.00  0.00    +0.000 A 
ATOM     22  C   UNL     1       3.680   4.672  17.480  0.00  0.00    +0.000 A 
ATOM     23  C   UNL     1       4.461   4.130  16.444  0.00  0.00    +0.000 A 
BRANCH  18  25
ATOM     24  C   UNL     1       7.421   4.792  14.432  0.00  0.00    +0.000 C 
ATOM     25  N   UNL     1       6.027   4.394  14.584  0.00  0.00    +0.000 N 
ATOM     26  C   UNL     1       5.400   3.704  13.462  0.00  0.00    +0.000 C 
ENDBRANCH  18  25
ENDBRANCH   1  21
TORSDOF 3
ENDMDL
MODEL 7
REMARK VINA RESULT:      -7.9      2.428      9.633
REMARK  Name = 
REMARK  6 active torsions:
REMARK  status: ('A' for Active; 'I' for Inactive)
REMARK    1  A    between atoms: C_1  and  N_2
REMARK    2  A    between atoms: N_2  and  C_3
REMARK    3  A    between atoms: N_2  and  C_4
REMARK    4  A    between atoms: C_7  and  C_8
REMARK    5  A    between atoms: N_10  and  C_11
REMARK    6  A    between atoms: N_19  and  C_20
REMARK                            x       y       z     vdW  Elec       q    Type
REMARK                         _______ _______ _______ _____ _____    ______ ____
ROOT
ATOM      1  C   UNL     1       1.150   8.754  21.151  0.00  0.00    +0.000 A 
ATOM      2  C   UNL     1       0.218   9.702  20.832  0.00  0.00    +0.000 A 
ATOM      3  N   UNL     1       0.005  10.451  21.979  0.00  0.00    +0.000 N 
ATOM      4  N   UNL     1       0.841   9.951  22.945  0.00  0.00    +0.000 NA
ATOM      5  N   UNL     1       1.526   8.928  22.449  0.00  0.00    +0.000 NA
ENDROOT
BRANCH   3   6
ATOM      6  C   UNL     1      -0.965  11.449  22.148  0.00  0.00    +0.000 A 
ATOM      7  C   UNL     1      -1.930  11.406  23.095  0.00  0.00    +0.000 A 
ATOM      8  C   UNL     1      -3.048  12.358  23.045  0.00  0.00    +0.000 A 
ATOM      9  C   UNL     1      -3.913  12.559  24.120  0.00  0.00    +0.000 A 
ATOM     10  C   UNL     1      -5.007  13.418  23.977  0.00  0.00    +0.000 A 
ATOM     11  C   UNL     1      -5.263  14.042  22.754  0.00  0.00    +0.000 A 
ATOM     12  C   UNL     1      -4.422  13.822  21.665  0.00  0.00    +0.000 A 
ATOM     13  C   UNL     1      -3.309  12.996  21.821  0.00  0.00    +0.000 A 
ATOM     14  N   UNL     1      -2.344  12.906  20.785  0.00  0.00    +0.000 N 
ATOM     15  C   UNL     1      -2.765  12.203  19.582  0.00  0.00    +0.000 C 
ATOM     16  C   UNL     1      -1.049  12.580  21.177  0.00  0.00    +0.000 A 
ATOM     17  O   UNL     1      -0.058  13.093  20.668  0.00  0.00    +0.000 OA
ENDBRANCH   3   6
BRANCH   1  21
ATOM     18  C   UNL     1       2.792   5.749  18.541  0.00  0.00    +0.000 A 
ATOM     19  C   UNL     1       2.309   5.456  19.829  0.00  0.00    +0.000 A 
ATOM     20  C   UNL     1       1.756   6.431  20.667  0.00  0.00    +0.000 A 
ATOM     21  C   UNL     1       1.678   7.753  20.251  0.00  0.00    +0.000 A 
ATOM     22  C   UNL     1       2.147   8.082  18.977  0.00  0.00    +0.000 A 
ATOM     23  C   UNL     1       2.688   7.090  18.140  0.00  0.00    +0.000 A 
BRANCH  18  25
ATOM     24  C   UNL     1       4.486   5.050  16.881  0.00  0.00    +0.000 C 
ATOM     25  N   UNL     1       3.319   4.767  17.708  0.00  0.00    +0.000 N 
ATOM     26  C   UNL     1       2.539   3.578  17.384  0.00  0.00    +0.000 C 
ENDBRANCH  18  25
ENDBRANCH   1  21
TORSDOF 3
ENDMDL
MODEL 8
REMARK VINA RESULT:      -7.8      2.375      2.961
REMARK  Name = 
REMARK  6 active torsions:
REMARK  status: ('A' for Active; 'I' for Inactive)
REMARK    1  A    between atoms: C_1  and  N_2
REMARK    2  A    between atoms: N_2  and  C_3
REMARK    3  A    between atoms: N_2  and  C_4
REMARK    4  A    between atoms: C_7  and  C_8
REMARK    5  A    between atoms: N_10  and  C_11
REMARK    6  A    between atoms: N_19  and  C_20
REMARK                            x       y       z     vdW  Elec       q    Type
REMARK                         _______ _______ _______ _____ _____    ______ ____
ROOT
ATOM      1  C   UNL     1       0.453   9.982  18.193  0.00  0.00    +0.000 A 
ATOM      2  C   UNL     1       0.838   8.671  18.137  0.00  0.00    +0.000 A 
ATOM      3  N   UNL     1       2.224   8.663  18.163  0.00  0.00    +0.000 N 
ATOM      4  N   UNL     1       2.630   9.969  18.265  0.00  0.00    +0.000 NA
ATOM      5  N   UNL     1       1.566  10.763  18.278  0.00  0.00    +0.000 NA
ENDROOT
BRANCH   3   6
ATOM      6  C   UNL     1       3.049   7.543  17.994  0.00  0.00    +0.000 A 
ATOM      7  C   UNL     1       3.971   7.429  17.011  0.00  0.00    +0.000 A 
ATOM      8  C   UNL     1       4.612   6.132  16.755  0.00  0.00    +0.000 A 
ATOM      9  C   UNL     1       5.754   6.001  15.965  0.00  0.00    +0.000 A 
ATOM     10  C   UNL     1       6.266   4.729  15.693  0.00  0.00    +0.000 A 
ATOM     11  C   UNL     1       5.618   3.587  16.172  0.00  0.00    +0.000 A 
ATOM     12  C   UNL     1       4.459   3.707  16.936  0.00  0.00    +0.000 A 
ATOM     13  C   UNL     1       3.973   4.979  17.239  0.00  0.00    +0.000 A 
ATOM     14  N   UNL     1       2.906   5.128  18.163  0.00  0.00    +0.000 N 
ATOM     15  C   UNL     1       1.600   4.678  17.706  0.00  0.00    +0.000 C 
ATOM     16  C   UNL     1       2.853   6.336  18.852  0.00  0.00    +0.000 A 
ATOM     17  O   UNL     1       2.540   6.406  20.035  0.00  0.00    +0.000 OA
ENDBRANCH   3   6
BRANCH   1  21
ATOM     18  C   UNL     1      -3.615  11.387  18.301  0.00  0.00    +0.000 A 
ATOM     19  C   UNL     1      -2.605  11.917  19.125  0.00  0.00    +0.000 A 
ATOM     20  C   UNL     1      -1.279  11.473  19.072  0.00  0.00    +0.000 A 
ATOM     21  C   UNL     1      -0.911  10.462  18.196  0.00  0.00    +0.000 A 
ATOM     22  C   UNL     1      -1.887   9.912  17.362  0.00  0.00    +0.000 A 
ATOM     23  C   UNL     1      -3.213  10.376  17.414  0.00  0.00    +0.000 A 
BRANCH  18  25
ATOM     24  C   UNL     1      -5.625  12.210  17.119  0.00  0.00    +0.000 C 
ATOM     25  N   UNL     1      -4.926  11.851  18.346  0.00  0.00    +0.000 N 
ATOM     26  C   UNL     1      -5.504  12.310  19.605  0.00  0.00    +0.000 C 
ENDBRANCH  18  25
ENDBRANCH   1  21
TORSDOF 3
ENDMDL
MODEL 9
REMARK VINA RESULT:      -7.7      1.650      2.192
REMARK  Name = 
REMARK  6 active torsions:
REMARK  status: ('A' for Active; 'I' for Inactive)
REMARK    1  A    between atoms: C_1  and  N_2
REMARK    2  A    between atoms: N_2  and  C_3
REMARK    3  A    between atoms: N_2  and  C_4
REMARK    4  A    between atoms: C_7  and  C_8
REMARK    5  A    between atoms: N_10  and  C_11
REMARK    6  A    between atoms: N_19  and  C_20
REMARK                            x       y       z     vdW  Elec       q    Type
REMARK                         _______ _______ _______ _____ _____    ______ ____
ROOT
ATOM      1  C   UNL     1       0.834   9.324  20.287  0.00  0.00    +0.000 A 
ATOM      2  C   UNL     1       1.588   8.829  19.258  0.00  0.00    +0.000 A 
ATOM      3  N   UNL     1       2.010   7.567  19.649  0.00  0.00    +0.000 N 
ATOM      4  N   UNL     1       1.471   7.330  20.888  0.00  0.00    +0.000 NA
ATOM      5  N   UNL     1       0.768   8.388  21.273  0.00  0.00    +0.000 NA
ENDROOT
BRANCH   3   6
ATOM      6  C   UNL     1       2.914   6.746  18.960  0.00  0.00    +0.000 A 
ATOM      7  C   UNL     1       3.593   7.135  17.856  0.00  0.00    +0.000 A 
ATOM      8  C   UNL     1       4.322   6.141  17.057  0.00  0.00    +0.000 A 
ATOM      9  C   UNL     1       5.259   6.497  16.088  0.00  0.00    +0.000 A 
ATOM     10  C   UNL     1       5.857   5.504  15.305  0.00  0.00    +0.000 A 
ATOM     11  C   UNL     1       5.491   4.164  15.459  0.00  0.00    +0.000 A 
ATOM     12  C   UNL     1       4.533   3.803  16.404  0.00  0.00    +0.000 A 
ATOM     13  C   UNL     1       3.967   4.790  17.211  0.00  0.00    +0.000 A 
ATOM     14  N   UNL     1       3.132   4.424  18.297  0.00  0.00    +0.000 N 
ATOM     15  C   UNL     1       1.826   3.887  17.943  0.00  0.00    +0.000 C 
ATOM     16  C   UNL     1       3.079   5.318  19.363  0.00  0.00    +0.000 A 
ATOM     17  O   UNL     1       3.040   4.948  20.531  0.00  0.00    +0.000 OA
ENDBRANCH   3   6
BRANCH   1  21
ATOM     18  C   UNL     1      -1.172  13.131  20.416  0.00  0.00    +0.000 A 
ATOM     19  C   UNL     1      -0.718  12.471  21.573  0.00  0.00    +0.000 A 
ATOM     20  C   UNL     1      -0.047  11.244  21.526  0.00  0.00    +0.000 A 
ATOM     21  C   UNL     1       0.184  10.616  20.310  0.00  0.00    +0.000 A 
ATOM     22  C   UNL     1      -0.251  11.242  19.140  0.00  0.00    +0.000 A 
ATOM     23  C   UNL     1      -0.912  12.482  19.199  0.00  0.00    +0.000 A 
BRANCH  18  25
ATOM     24  C   UNL     1      -1.116  15.583  20.098  0.00  0.00    +0.000 C 
ATOM     25  N   UNL     1      -1.819  14.363  20.473  0.00  0.00    +0.000 N 
ATOM     26  C   UNL     1      -3.066  14.508  21.217  0.00  0.00    +0.000 C 
ENDBRANCH  18  25
ENDBRANCH   1  21
TORSDOF 3
ENDMDL
