MODEL 1
REMARK VINA RESULT:      -7.9      0.000      0.000
REMARK  Name = 
REMARK  6 active torsions:
REMARK  status: ('A' for Active; 'I' for Inactive)
REMARK    1  A    between atoms: C_1  and  C_2
REMARK    2  A    between atoms: C_4  and  C_5
REMARK    3  A    between atoms: C_5  and  N_6
REMARK    4  A    between atoms: C_12  and  C_13
REMARK    5  A    between atoms: C_13  and  N_14
REMARK    6  A    between atoms: C_15  and  C_17
REMARK                            x       y       z     vdW  Elec       q    Type
REMARK                         _______ _______ _______ _____ _____    ______ ____
ROOT
ATOM      1  N   UNL     1       3.769   4.570  18.192  0.00  0.00    +0.000 NA
ATOM      2  C   UNL     1       2.483   4.222  18.776  0.00  0.00    +0.000 C 
ATOM      3  C   UNL     1       2.416   4.602  20.251  0.00  0.00    +0.000 C 
ATOM      4  C   UNL     1       2.365   6.089  20.591  0.00  0.00    +0.000 C 
ATOM      5  N   UNL     1       2.347   7.036  19.499  0.00  0.00    +0.000 N 
ATOM      6  N   UNL     1       1.604   8.161  19.642  0.00  0.00    +0.000 NA
ATOM      7  C   UNL     1       1.799   8.832  18.498  0.00  0.00    +0.000 A 
ATOM      8  C   UNL     1       2.691   8.148  17.652  0.00  0.00    +0.000 A 
ATOM      9  C   UNL     1       3.052   7.002  18.328  0.00  0.00    +0.000 A 
ATOM     10  C   UNL     1       4.047   5.979  17.913  0.00  0.00    +0.000 C 
ENDROOT
BRANCH   1  11
ATOM     11  C   UNL     1       4.159   3.710  17.057  0.00  0.00    +0.000 C 
BRANCH  11  15
ATOM     12  C   UNL     1       7.479   5.062  13.605  0.00  0.00    +0.000 C 
ATOM     13  C   UNL     1       6.781   4.706  14.855  0.00  0.00    +0.000 A 
ATOM     14  N   UNL     1       5.519   4.373  15.042  0.00  0.00    +0.000 NA
ATOM     15  C   UNL     1       5.434   4.132  16.399  0.00  0.00    +0.000 A 
ATOM     16  C   UNL     1       6.665   4.360  16.972  0.00  0.00    +0.000 A 
ATOM     17  O   UNL     1       7.536   4.722  15.995  0.00  0.00    +0.000 OA
ENDBRANCH  11  15
ENDBRANCH   1  11
BRANCH   7  18
ATOM     18  C   UNL     1       1.130  10.134  18.216  0.00  0.00    +0.000 C 
BRANCH  18  19
ATOM     19  N   UNL     1      -0.191   9.900  17.667  0.00  0.00    +0.000 N 
ATOM     20  C   UNL     1      -1.313  10.232  18.400  0.00  0.00    +0.000 C 
ATOM     21  O   UNL     1      -1.225  10.587  19.576  0.00  0.00    +0.000 OA
ATOM     22  H   UNL     1      -0.258   9.735  16.673  0.00  0.00    +0.000 HD
BRANCH  20  23
ATOM     23  C   UNL     1      -2.659  10.150  17.624  0.00  0.00    +0.000 C 
ATOM     24  C   UNL     1      -3.541  11.434  17.606  0.00  0.00    +0.000 C 
ATOM     25  C   UNL     1      -3.856  11.133  16.131  0.00  0.00    +0.000 C 
ATOM     26  C   UNL     1      -2.560  10.309  16.081  0.00  0.00    +0.000 C 
ENDBRANCH  20  23
ENDBRANCH  18  19
ENDBRANCH   7  18
TORSDOF 5
ENDMDL
MODEL 2
REMARK VINA RESULT:      -7.5      1.939      8.478
REMARK  Name = 
REMARK  6 active torsions:
REMARK  status: ('A' for Active; 'I' for Inactive)
REMARK    1  A    between atoms: C_1  and  C_2
REMARK    2  A    between atoms: C_4  and  C_5
REMARK    3  A    between atoms: C_5  and  N_6
REMARK    4  A    between atoms: C_12  and  C_13
REMARK    5  A    between atoms: C_13  and  N_14
REMARK    6  A    between atoms: C_15  and  C_17
REMARK                            x       y       z     vdW  Elec       q    Type
REMARK                         _______ _______ _______ _____ _____    ______ ____
ROOT
ATOM      1  N   UNL     1       1.803   6.564  19.966  0.00  0.00    +0.000 NA
ATOM      2  C   UNL     1       1.887   5.209  20.489  0.00  0.00    +0.000 C 
ATOM      3  C   UNL     1       1.122   4.222  19.615  0.00  0.00    +0.000 C 
ATOM      4  C   UNL     1       1.699   3.912  18.236  0.00  0.00    +0.000 C 
ATOM      5  N   UNL     1       2.945   4.543  17.863  0.00  0.00    +0.000 N 
ATOM      6  N   UNL     1       3.821   3.831  17.112  0.00  0.00    +0.000 NA
ATOM      7  C   UNL     1       4.848   4.671  16.919  0.00  0.00    +0.000 A 
ATOM      8  C   UNL     1       4.602   5.921  17.515  0.00  0.00    +0.000 A 
ATOM      9  C   UNL     1       3.357   5.825  18.099  0.00  0.00    +0.000 A 
ATOM     10  C   UNL     1       2.588   6.901  18.779  0.00  0.00    +0.000 C 
ENDROOT
BRANCH   1  11
ATOM     11  C   UNL     1       1.919   7.610  21.002  0.00  0.00    +0.000 C 
BRANCH  11  15
ATOM     12  C   UNL     1      -0.721  11.391  19.133  0.00  0.00    +0.000 C 
ATOM     13  C   UNL     1      -0.163  10.316  19.974  0.00  0.00    +0.000 A 
ATOM     14  N   UNL     1       0.813   9.469  19.710  0.00  0.00    +0.000 NA
ATOM     15  C   UNL     1       0.913   8.707  20.858  0.00  0.00    +0.000 A 
ATOM     16  C   UNL     1      -0.040   9.125  21.759  0.00  0.00    +0.000 A 
ATOM     17  O   UNL     1      -0.731  10.157  21.208  0.00  0.00    +0.000 OA
ENDBRANCH  11  15
ENDBRANCH   1  11
BRANCH   7  18
ATOM     18  C   UNL     1       6.066   4.275  16.158  0.00  0.00    +0.000 C 
BRANCH  18  19
ATOM     19  N   UNL     1       5.726   4.048  14.768  0.00  0.00    +0.000 N 
ATOM     20  C   UNL     1       6.592   4.447  13.769  0.00  0.00    +0.000 C 
ATOM     21  O   UNL     1       7.585   5.131  14.022  0.00  0.00    +0.000 OA
ATOM     22  H   UNL     1       4.990   3.384  14.572  0.00  0.00    +0.000 HD
BRANCH  20  23
ATOM     23  C   UNL     1       6.232   3.949  12.340  0.00  0.00    +0.000 C 
ATOM     24  C   UNL     1       6.687   2.508  11.961  0.00  0.00    +0.000 C 
ATOM     25  C   UNL     1       5.334   2.325  11.252  0.00  0.00    +0.000 C 
ATOM     26  C   UNL     1       4.776   3.439  12.151  0.00  0.00    +0.000 C 
ENDBRANCH  20  23
ENDBRANCH  18  19
ENDBRANCH   7  18
TORSDOF 5
ENDMDL
MODEL 3
REMARK VINA RESULT:      -7.4      0.899      1.045
REMARK  Name = 
REMARK  6 active torsions:
REMARK  status: ('A' for Active; 'I' for Inactive)
REMARK    1  A    between atoms: C_1  and  C_2
REMARK    2  A    between atoms: C_4  and  C_5
REMARK    3  A    between atoms: C_5  and  N_6
REMARK    4  A    between atoms: C_12  and  C_13
REMARK    5  A    between atoms: C_13  and  N_14
REMARK    6  A    between atoms: C_15  and  C_17
REMARK                            x       y       z     vdW  Elec       q    Type
REMARK                         _______ _______ _______ _____ _____    ______ ____
ROOT
ATOM      1  N   UNL     1       3.184   5.113  18.385  0.00  0.00    +0.000 NA
ATOM      2  C   UNL     1       1.944   4.801  19.079  0.00  0.00    +0.000 C 
ATOM      3  C   UNL     1       2.011   5.192  20.551  0.00  0.00    +0.000 C 
ATOM      4  C   UNL     1       2.025   6.682  20.881  0.00  0.00    +0.000 C 
ATOM      5  N   UNL     1       1.939   7.622  19.787  0.00  0.00    +0.000 N 
ATOM      6  N   UNL     1       1.239   8.767  19.982  0.00  0.00    +0.000 NA
ATOM      7  C   UNL     1       1.353   9.425  18.820  0.00  0.00    +0.000 A 
ATOM      8  C   UNL     1       2.154   8.714  17.909  0.00  0.00    +0.000 A 
ATOM      9  C   UNL     1       2.541   7.563  18.561  0.00  0.00    +0.000 A 
ATOM     10  C   UNL     1       3.472   6.513  18.072  0.00  0.00    +0.000 C 
ENDROOT
BRANCH   1  11
ATOM     11  C   UNL     1       3.456   4.236  17.229  0.00  0.00    +0.000 C 
BRANCH  11  15
ATOM     12  C   UNL     1       7.259   4.887  14.085  0.00  0.00    +0.000 C 
ATOM     13  C   UNL     1       6.401   4.671  15.266  0.00  0.00    +0.000 A 
ATOM     14  N   UNL     1       5.086   4.620  15.345  0.00  0.00    +0.000 NA
ATOM     15  C   UNL     1       4.841   4.380  16.683  0.00  0.00    +0.000 A 
ATOM     16  C   UNL     1       6.041   4.322  17.355  0.00  0.00    +0.000 A 
ATOM     17  O   UNL     1       7.047   4.502  16.459  0.00  0.00    +0.000 OA
ENDBRANCH  11  15
ENDBRANCH   1  11
BRANCH   7  18
ATOM     18  C   UNL     1       0.695  10.742  18.585  0.00  0.00    +0.000 C 
BRANCH  18  19
ATOM     19  N   UNL     1      -0.615  10.539  17.998  0.00  0.00    +0.000 N 
ATOM     20  C   UNL     1      -1.579  11.522  18.104  0.00  0.00    +0.000 C 
ATOM     21  O   UNL     1      -1.407  12.512  18.816  0.00  0.00    +0.000 OA
ATOM     22  H   UNL     1      -0.709   9.800  17.317  0.00  0.00    +0.000 HD
BRANCH  20  23
ATOM     23  C   UNL     1      -2.856  11.291  17.246  0.00  0.00    +0.000 C 
ATOM     24  C   UNL     1      -2.643  10.994  15.732  0.00  0.00    +0.000 C 
ATOM     25  C   UNL     1      -3.770   9.952  15.832  0.00  0.00    +0.000 C 
ATOM     26  C   UNL     1      -3.487   9.874  17.340  0.00  0.00    +0.000 C 
ENDBRANCH  20  23
ENDBRANCH  18  19
ENDBRANCH   7  18
TORSDOF 5
ENDMDL
MODEL 4
REMARK VINA RESULT:      -7.3      1.916      8.525
REMARK  Name = 
REMARK  6 active torsions:
REMARK  status: ('A' for Active; 'I' for Inactive)
REMARK    1  A    between atoms: C_1  and  C_2
REMARK    2  A    between atoms: C_4  and  C_5
REMARK    3  A    between atoms: C_5  and  N_6
REMARK    4  A    between atoms: C_12  and  C_13
REMARK    5  A    between atoms: C_13  and  N_14
REMARK    6  A    between atoms: C_15  and  C_17
REMARK                            x       y       z     vdW  Elec       q    Type
REMARK                         _______ _______ _______ _____ _____    ______ ____
ROOT
ATOM      1  N   UNL     1       1.820   6.831  19.691  0.00  0.00    +0.000 NA
ATOM      2  C   UNL     1       2.056   5.620  20.462  0.00  0.00    +0.000 C 
ATOM      3  C   UNL     1       1.365   4.414  19.837  0.00  0.00    +0.000 C 
ATOM      4  C   UNL     1       1.926   3.890  18.517  0.00  0.00    +0.000 C 
ATOM      5  N   UNL     1       3.090   4.546  17.966  0.00  0.00    +0.000 N 
ATOM      6  N   UNL     1       4.009   3.782  17.324  0.00  0.00    +0.000 NA
ATOM      7  C   UNL     1       4.940   4.657  16.919  0.00  0.00    +0.000 A 
ATOM      8  C   UNL     1       4.590   5.973  17.272  0.00  0.00    +0.000 A 
ATOM      9  C   UNL     1       3.380   5.881  17.926  0.00  0.00    +0.000 A 
ATOM     10  C   UNL     1       2.530   6.995  18.422  0.00  0.00    +0.000 C 
ENDROOT
BRANCH   1  11
ATOM     11  C   UNL     1       1.864   8.068  20.496  0.00  0.00    +0.000 C 
BRANCH  11  15
ATOM     12  C   UNL     1      -1.533  11.671  20.006  0.00  0.00    +0.000 C 
ATOM     13  C   UNL     1      -0.436  10.705  19.811  0.00  0.00    +0.000 A 
ATOM     14  N   UNL     1       0.046   9.806  20.646  0.00  0.00    +0.000 NA
ATOM     15  C   UNL     1       1.045   9.181  19.925  0.00  0.00    +0.000 A 
ATOM     16  C   UNL     1       1.131   9.763  18.681  0.00  0.00    +0.000 A 
ATOM     17  O   UNL     1       0.186  10.736  18.592  0.00  0.00    +0.000 OA
ENDBRANCH  11  15
ENDBRANCH   1  11
BRANCH   7  18
ATOM     18  C   UNL     1       6.168   4.230  16.189  0.00  0.00    +0.000 C 
BRANCH  18  19
ATOM     19  N   UNL     1       5.846   3.963  14.802  0.00  0.00    +0.000 N 
ATOM     20  C   UNL     1       6.665   4.441  13.798  0.00  0.00    +0.000 C 
ATOM     21  O   UNL     1       7.586   5.222  14.043  0.00  0.00    +0.000 OA
ATOM     22  H   UNL     1       5.179   3.228  14.612  0.00  0.00    +0.000 HD
BRANCH  20  23
ATOM     23  C   UNL     1       6.351   3.902  12.373  0.00  0.00    +0.000 C 
ATOM     24  C   UNL     1       6.974   2.527  11.987  0.00  0.00    +0.000 C 
ATOM     25  C   UNL     1       5.645   2.179  11.293  0.00  0.00    +0.000 C 
ATOM     26  C   UNL     1       4.966   3.217  12.200  0.00  0.00    +0.000 C 
ENDBRANCH  20  23
ENDBRANCH  18  19
ENDBRANCH   7  18
TORSDOF 5
ENDMDL
MODEL 5
REMARK VINA RESULT:      -7.3      1.818      2.458
REMARK  Name = 
REMARK  6 active torsions:
REMARK  status: ('A' for Active; 'I' for Inactive)
REMARK    1  A    between atoms: C_1  and  C_2
REMARK    2  A    between atoms: C_4  and  C_5
REMARK    3  A    between atoms: C_5  and  N_6
REMARK    4  A    between atoms: C_12  and  C_13
REMARK    5  A    between atoms: C_13  and  N_14
REMARK    6  A    between atoms: C_15  and  C_17
REMARK                            x       y       z     vdW  Elec       q    Type
REMARK                         _______ _______ _______ _____ _____    ______ ____
ROOT
ATOM      1  N   UNL     1       3.798   4.514  18.274  0.00  0.00    +0.000 NA
ATOM      2  C   UNL     1       2.494   4.176  18.826  0.00  0.00    +0.000 C 
ATOM      3  C   UNL     1       2.393   4.557  20.299  0.00  0.00    +0.000 C 
ATOM      4  C   UNL     1       2.344   6.045  20.636  0.00  0.00    +0.000 C 
ATOM      5  N   UNL     1       2.361   6.991  19.543  0.00  0.00    +0.000 N 
ATOM      6  N   UNL     1       1.624   8.123  19.667  0.00  0.00    +0.000 NA
ATOM      7  C   UNL     1       1.854   8.791  18.528  0.00  0.00    +0.000 A 
ATOM      8  C   UNL     1       2.762   8.100  17.706  0.00  0.00    +0.000 A 
ATOM      9  C   UNL     1       3.096   6.951  18.391  0.00  0.00    +0.000 A 
ATOM     10  C   UNL     1       4.094   5.920  18.002  0.00  0.00    +0.000 C 
ENDROOT
BRANCH   1  11
ATOM     11  C   UNL     1       4.211   3.650  17.151  0.00  0.00    +0.000 C 
BRANCH  11  15
ATOM     12  C   UNL     1       7.443   5.055  13.637  0.00  0.00    +0.000 C 
ATOM     13  C   UNL     1       6.770   4.702  14.902  0.00  0.00    +0.000 A 
ATOM     14  N   UNL     1       5.525   4.318  15.108  0.00  0.00    +0.000 NA
ATOM     15  C   UNL     1       5.461   4.111  16.471  0.00  0.00    +0.000 A 
ATOM     16  C   UNL     1       6.683   4.409  17.029  0.00  0.00    +0.000 A 
ATOM     17  O   UNL     1       7.531   4.784  16.035  0.00  0.00    +0.000 OA
ENDBRANCH  11  15
ENDBRANCH   1  11
BRANCH   7  18
ATOM     18  C   UNL     1       1.203  10.098  18.228  0.00  0.00    +0.000 C 
BRANCH  18  19
ATOM     19  N   UNL     1       0.959  10.820  19.461  0.00  0.00    +0.000 N 
ATOM     20  C   UNL     1      -0.330  10.967  19.933  0.00  0.00    +0.000 C 
ATOM     21  O   UNL     1      -1.301  10.630  19.255  0.00  0.00    +0.000 OA
ATOM     22  H   UNL     1       1.749  10.979  20.070  0.00  0.00    +0.000 HD
BRANCH  20  23
ATOM     23  C   UNL     1      -0.446  11.555  21.369  0.00  0.00    +0.000 C 
ATOM     24  C   UNL     1      -1.833  12.131  21.785  0.00  0.00    +0.000 C 
ATOM     25  C   UNL     1      -1.621  11.498  23.171  0.00  0.00    +0.000 C 
ATOM     26  C   UNL     1      -0.639  10.518  22.510  0.00  0.00    +0.000 C 
ENDBRANCH  20  23
ENDBRANCH  18  19
ENDBRANCH   7  18
TORSDOF 5
ENDMDL
MODEL 6
REMARK VINA RESULT:      -7.2      3.363      9.239
REMARK  Name = 
REMARK  6 active torsions:
REMARK  status: ('A' for Active; 'I' for Inactive)
REMARK    1  A    between atoms: C_1  and  C_2
REMARK    2  A    between atoms: C_4  and  C_5
REMARK    3  A    between atoms: C_5  and  N_6
REMARK    4  A    between atoms: C_12  and  C_13
REMARK    5  A    between atoms: C_13  and  N_14
REMARK    6  A    between atoms: C_15  and  C_17
REMARK                            x       y       z     vdW  Elec       q    Type
REMARK                         _______ _______ _______ _____ _____    ______ ____
ROOT
ATOM      1  N   UNL     1       0.185  10.247  21.128  0.00  0.00    +0.000 NA
ATOM      2  C   UNL     1      -0.537  10.404  19.874  0.00  0.00    +0.000 C 
ATOM      3  C   UNL     1       0.277  11.191  18.853  0.00  0.00    +0.000 C 
ATOM      4  C   UNL     1       1.507  10.510  18.261  0.00  0.00    +0.000 C 
ATOM      5  N   UNL     1       1.801   9.156  18.676  0.00  0.00    +0.000 N 
ATOM      6  N   UNL     1       2.317   8.304  17.756  0.00  0.00    +0.000 NA
ATOM      7  C   UNL     1       2.494   7.159  18.430  0.00  0.00    +0.000 A 
ATOM      8  C   UNL     1       2.125   7.301  19.780  0.00  0.00    +0.000 A 
ATOM      9  C   UNL     1       1.703   8.606  19.923  0.00  0.00    +0.000 A 
ATOM     10  C   UNL     1       1.295   9.295  21.175  0.00  0.00    +0.000 C 
ENDROOT
BRANCH   1  11
ATOM     11  C   UNL     1      -0.692  10.110  22.307  0.00  0.00    +0.000 C 
BRANCH  11  15
ATOM     12  C   UNL     1      -1.013  14.906  23.596  0.00  0.00    +0.000 C 
ATOM     13  C   UNL     1      -1.266  13.477  23.329  0.00  0.00    +0.000 A 
ATOM     14  N   UNL     1      -0.465  12.568  22.808  0.00  0.00    +0.000 NA
ATOM     15  C   UNL     1      -1.223  11.414  22.812  0.00  0.00    +0.000 A 
ATOM     16  C   UNL     1      -2.470  11.697  23.319  0.00  0.00    +0.000 A 
ATOM     17  O   UNL     1      -2.510  13.012  23.658  0.00  0.00    +0.000 OA
ENDBRANCH  11  15
ENDBRANCH   1  11
BRANCH   7  18
ATOM     18  C   UNL     1       3.021   5.927  17.779  0.00  0.00    +0.000 C 
BRANCH  18  19
ATOM     19  N   UNL     1       2.447   4.754  18.408  0.00  0.00    +0.000 N 
ATOM     20  C   UNL     1       3.225   3.956  19.223  0.00  0.00    +0.000 C 
ATOM     21  O   UNL     1       4.441   4.128  19.312  0.00  0.00    +0.000 OA
ATOM     22  H   UNL     1       1.439   4.689  18.438  0.00  0.00    +0.000 HD
BRANCH  20  23
ATOM     23  C   UNL     1       2.449   2.867  20.019  0.00  0.00    +0.000 C 
ATOM     24  C   UNL     1       2.765   2.747  21.540  0.00  0.00    +0.000 C 
ATOM     25  C   UNL     1       1.261   2.531  21.781  0.00  0.00    +0.000 C 
ATOM     26  C   UNL     1       1.002   3.243  20.444  0.00  0.00    +0.000 C 
ENDBRANCH  20  23
ENDBRANCH  18  19
ENDBRANCH   7  18
TORSDOF 5
ENDMDL
MODEL 7
REMARK VINA RESULT:      -7.2      3.213      9.404
REMARK  Name = 
REMARK  6 active torsions:
REMARK  status: ('A' for Active; 'I' for Inactive)
REMARK    1  A    between atoms: C_1  and  C_2
REMARK    2  A    between atoms: C_4  and  C_5
REMARK    3  A    between atoms: C_5  and  N_6
REMARK    4  A    between atoms: C_12  and  C_13
REMARK    5  A    between atoms: C_13  and  N_14
REMARK    6  A    between atoms: C_15  and  C_17
REMARK                            x       y       z     vdW  Elec       q    Type
REMARK                         _______ _______ _______ _____ _____    ______ ____
ROOT
ATOM      1  N   UNL     1       0.281   9.957  21.466  0.00  0.00    +0.000 NA
ATOM      2  C   UNL     1      -0.414   9.986  20.188  0.00  0.00    +0.000 C 
ATOM      3  C   UNL     1       0.471  10.552  19.082  0.00  0.00    +0.000 C 
ATOM      4  C   UNL     1       1.648   9.699  18.620  0.00  0.00    +0.000 C 
ATOM      5  N   UNL     1       1.829   8.401  19.232  0.00  0.00    +0.000 N 
ATOM      6  N   UNL     1       2.285   7.387  18.455  0.00  0.00    +0.000 NA
ATOM      7  C   UNL     1       2.363   6.342  19.291  0.00  0.00    +0.000 A 
ATOM      8  C   UNL     1       1.994   6.707  20.598  0.00  0.00    +0.000 A 
ATOM      9  C   UNL     1       1.676   8.047  20.543  0.00  0.00    +0.000 A 
ATOM     10  C   UNL     1       1.311   8.940  21.674  0.00  0.00    +0.000 C 
ENDROOT
BRANCH   1  11
ATOM     11  C   UNL     1      -0.616  10.061  22.634  0.00  0.00    +0.000 C 
BRANCH  11  15
ATOM     12  C   UNL     1      -0.807  14.996  23.250  0.00  0.00    +0.000 C 
ATOM     13  C   UNL     1      -1.113  13.558  23.117  0.00  0.00    +0.000 A 
ATOM     14  N   UNL     1      -0.302  12.550  22.866  0.00  0.00    +0.000 NA
ATOM     15  C   UNL     1      -1.130  11.445  22.871  0.00  0.00    +0.000 A 
ATOM     16  C   UNL     1      -2.423  11.855  23.104  0.00  0.00    +0.000 A 
ATOM     17  O   UNL     1      -2.426  13.204  23.268  0.00  0.00    +0.000 OA
ENDBRANCH  11  15
ENDBRANCH   1  11
BRANCH   7  18
ATOM     18  C   UNL     1       2.797   4.991  18.835  0.00  0.00    +0.000 C 
BRANCH  18  19
ATOM     19  N   UNL     1       3.921   5.115  17.928  0.00  0.00    +0.000 N 
ATOM     20  C   UNL     1       5.108   4.466  18.204  0.00  0.00    +0.000 C 
ATOM     21  O   UNL     1       5.290   3.902  19.283  0.00  0.00    +0.000 OA
ATOM     22  H   UNL     1       3.731   5.463  16.998  0.00  0.00    +0.000 HD
BRANCH  20  23
ATOM     23  C   UNL     1       6.156   4.485  17.055  0.00  0.00    +0.000 C 
ATOM     24  C   UNL     1       5.723   3.858  15.696  0.00  0.00    +0.000 C 
ATOM     25  C   UNL     1       6.449   5.017  14.991  0.00  0.00    +0.000 C 
ATOM     26  C   UNL     1       6.291   5.829  16.286  0.00  0.00    +0.000 C 
ENDBRANCH  20  23
ENDBRANCH  18  19
ENDBRANCH   7  18
TORSDOF 5
ENDMDL
MODEL 8
REMARK VINA RESULT:      -7.2      1.299      8.545
REMARK  Name = 
REMARK  6 active torsions:
REMARK  status: ('A' for Active; 'I' for Inactive)
REMARK    1  A    between atoms: C_1  and  C_2
REMARK    2  A    between atoms: C_4  and  C_5
REMARK    3  A    between atoms: C_5  and  N_6
REMARK    4  A    between atoms: C_12  and  C_13
REMARK    5  A    between atoms: C_13  and  N_14
REMARK    6  A    between atoms: C_15  and  C_17
REMARK                            x       y       z     vdW  Elec       q    Type
REMARK                         _______ _______ _______ _____ _____    ______ ____
ROOT
ATOM      1  N   UNL     1       1.417   8.676  18.857  0.00  0.00    +0.000 NA
ATOM      2  C   UNL     1       1.868   8.418  20.216  0.00  0.00    +0.000 C 
ATOM      3  C   UNL     1       1.481   7.017  20.678  0.00  0.00    +0.000 C 
ATOM      4  C   UNL     1       2.203   5.839  20.029  0.00  0.00    +0.000 C 
ATOM      5  N   UNL     1       3.226   6.126  19.049  0.00  0.00    +0.000 N 
ATOM      6  N   UNL     1       4.316   5.321  19.010  0.00  0.00    +0.000 NA
ATOM      7  C   UNL     1       5.058   5.818  18.010  0.00  0.00    +0.000 A 
ATOM      8  C   UNL     1       4.419   6.911  17.398  0.00  0.00    +0.000 A 
ATOM      9  C   UNL     1       3.226   7.078  18.068  0.00  0.00    +0.000 A 
ATOM     10  C   UNL     1       2.136   8.038  17.754  0.00  0.00    +0.000 C 
ENDROOT
BRANCH   1  11
ATOM     11  C   UNL     1       1.158  10.102  18.577  0.00  0.00    +0.000 C 
BRANCH  11  15
ATOM     12  C   UNL     1      -3.613  10.347  17.183  0.00  0.00    +0.000 C 
ATOM     13  C   UNL     1      -2.315  10.490  17.869  0.00  0.00    +0.000 A 
ATOM     14  N   UNL     1      -1.146   9.959  17.568  0.00  0.00    +0.000 NA
ATOM     15  C   UNL     1      -0.296  10.449  18.540  0.00  0.00    +0.000 A 
ATOM     16  C   UNL     1      -1.014  11.243  19.405  0.00  0.00    +0.000 A 
ATOM     17  O   UNL     1      -2.306  11.282  18.984  0.00  0.00    +0.000 OA
ENDBRANCH  11  15
ENDBRANCH   1  11
BRANCH   7  18
ATOM     18  C   UNL     1       6.382   5.242  17.641  0.00  0.00    +0.000 C 
BRANCH  18  19
ATOM     19  N   UNL     1       6.584   5.353  16.210  0.00  0.00    +0.000 N 
ATOM     20  C   UNL     1       6.138   4.352  15.369  0.00  0.00    +0.000 C 
ATOM     21  O   UNL     1       5.704   3.290  15.815  0.00  0.00    +0.000 OA
ATOM     22  H   UNL     1       6.818   6.265  15.842  0.00  0.00    +0.000 HD
BRANCH  20  23
ATOM     23  C   UNL     1       6.204   4.685  13.850  0.00  0.00    +0.000 C 
ATOM     24  C   UNL     1       7.610   5.001  13.259  0.00  0.00    +0.000 C 
ATOM     25  C   UNL     1       7.211   4.190  12.014  0.00  0.00    +0.000 C 
ATOM     26  C   UNL     1       6.177   3.464  12.890  0.00  0.00    +0.000 C 
ENDBRANCH  20  23
ENDBRANCH  18  19
ENDBRANCH   7  18
TORSDOF 5
ENDMDL
MODEL 9
REMARK VINA RESULT:      -7.1      3.525      9.552
REMARK  Name = 
REMARK  6 active torsions:
REMARK  status: ('A' for Active; 'I' for Inactive)
REMARK    1  A    between atoms: C_1  and  C_2
REMARK    2  A    between atoms: C_4  and  C_5
REMARK    3  A    between atoms: C_5  and  N_6
REMARK    4  A    between atoms: C_12  and  C_13
REMARK    5  A    between atoms: C_13  and  N_14
REMARK    6  A    between atoms: C_15  and  C_17
REMARK                            x       y       z     vdW  Elec       q    Type
REMARK                         _______ _______ _______ _____ _____    ______ ____
ROOT
ATOM      1  N   UNL     1      -0.020  10.562  21.478  0.00  0.00    +0.000 NA
ATOM      2  C   UNL     1      -0.762  10.716  20.236  0.00  0.00    +0.000 C 
ATOM      3  C   UNL     1       0.031  11.513  19.205  0.00  0.00    +0.000 C 
ATOM      4  C   UNL     1       1.259  10.843  18.593  0.00  0.00    +0.000 C 
ATOM      5  N   UNL     1       1.569   9.491  19.001  0.00  0.00    +0.000 N 
ATOM      6  N   UNL     1       2.079   8.645  18.072  0.00  0.00    +0.000 NA
ATOM      7  C   UNL     1       2.275   7.500  18.741  0.00  0.00    +0.000 A 
ATOM      8  C   UNL     1       1.925   7.636  20.097  0.00  0.00    +0.000 A 
ATOM      9  C   UNL     1       1.494   8.937  20.249  0.00  0.00    +0.000 A 
ATOM     10  C   UNL     1       1.098   9.620  21.508  0.00  0.00    +0.000 C 
ENDROOT
BRANCH   1  11
ATOM     11  C   UNL     1      -0.880  10.415  22.670  0.00  0.00    +0.000 C 
BRANCH  11  15
ATOM     12  C   UNL     1      -4.468  13.550  24.108  0.00  0.00    +0.000 C 
ATOM     13  C   UNL     1      -3.205  12.929  23.664  0.00  0.00    +0.000 A 
ATOM     14  N   UNL     1      -2.930  11.658  23.447  0.00  0.00    +0.000 NA
ATOM     15  C   UNL     1      -1.611  11.667  23.037  0.00  0.00    +0.000 A 
ATOM     16  C   UNL     1      -1.145  12.962  23.053  0.00  0.00    +0.000 A 
ATOM     17  O   UNL     1      -2.157  13.780  23.447  0.00  0.00    +0.000 OA
ENDBRANCH  11  15
ENDBRANCH   1  11
BRANCH   7  18
ATOM     18  C   UNL     1       2.803   6.273  18.079  0.00  0.00    +0.000 C 
BRANCH  18  19
ATOM     19  N   UNL     1       2.292   5.094  18.750  0.00  0.00    +0.000 N 
ATOM     20  C   UNL     1       3.148   4.063  19.084  0.00  0.00    +0.000 C 
ATOM     21  O   UNL     1       4.315   4.051  18.692  0.00  0.00    +0.000 OA
ATOM     22  H   UNL     1       1.379   5.162  19.178  0.00  0.00    +0.000 HD
BRANCH  20  23
ATOM     23  C   UNL     1       2.534   2.963  19.996  0.00  0.00    +0.000 C 
ATOM     24  C   UNL     1       2.655   3.175  21.535  0.00  0.00    +0.000 C 
ATOM     25  C   UNL     1       1.220   2.638  21.668  0.00  0.00    +0.000 C 
ATOM     26  C   UNL     1       0.995   3.036  20.201  0.00  0.00    +0.000 C 
ENDBRANCH  20  23
ENDBRANCH  18  19
ENDBRANCH   7  18
TORSDOF 5
ENDMDL
