MODEL 1
REMARK VINA RESULT:      -6.2      0.000      0.000
REMARK  Name = 
REMARK  6 active torsions:
REMARK  status: ('A' for Active; 'I' for Inactive)
REMARK    1  A    between atoms: C_1  and  O_2
REMARK    2  A    between atoms: O_2  and  C_3
REMARK    3  A    between atoms: C_6  and  O_7
REMARK    4  A    between atoms: O_7  and  C_8
REMARK    5  A    between atoms: C_11  and  C_12
REMARK    6  A    between atoms: N_16  and  C_17
REMARK                            x       y       z     vdW  Elec       q    Type
REMARK                         _______ _______ _______ _____ _____    ______ ____
ROOT
ATOM      1  C   UNL     1       4.954   4.309  18.122  0.00  0.00    +0.000 A 
ATOM      2  C   UNL     1       4.778   3.136  18.871  0.00  0.00    +0.000 A 
ATOM      3  C   UNL     1       3.808   3.084  19.868  0.00  0.00    +0.000 A 
ATOM      4  C   UNL     1       3.015   4.204  20.159  0.00  0.00    +0.000 A 
ATOM      5  C   UNL     1       3.113   5.389  19.377  0.00  0.00    +0.000 A 
ATOM      6  C   UNL     1       4.063   5.407  18.299  0.00  0.00    +0.000 A 
ATOM      7  C   UNL     1       4.114   6.619  17.420  0.00  0.00    +0.000 A 
ATOM      8  C   UNL     1       4.968   6.744  16.185  0.00  0.00    +0.000 C 
ATOM      9  C   UNL     1       3.320   7.660  17.694  0.00  0.00    +0.000 A 
ATOM     10  C   UNL     1       2.391   7.697  18.822  0.00  0.00    +0.000 A 
ATOM     11  O   UNL     1       1.711   8.712  18.971  0.00  0.00    +0.000 OA
ATOM     12  N   UNL     1       2.330   6.579  19.632  0.00  0.00    +0.000 N 
ATOM     13  C   UNL     1       1.392   6.673  20.728  0.00  0.00    +0.000 C 
ENDROOT
BRANCH   1  15
ATOM     14  C   UNL     1       7.290   4.570  17.749  0.00  0.00    +0.000 C 
ATOM     15  O   UNL     1       5.975   4.416  17.223  0.00  0.00    +0.000 OA
ENDBRANCH   1  15
BRANCH   4  16
ATOM     16  O   UNL     1       2.372   4.128  21.372  0.00  0.00    +0.000 OA
ATOM     17  C   UNL     1       1.599   2.949  21.592  0.00  0.00    +0.000 C 
ENDBRANCH   4  16
TORSDOF 2
ENDMDL
MODEL 2
REMARK VINA RESULT:      -6.2      1.863      5.431
REMARK  Name = 
REMARK  6 active torsions:
REMARK  status: ('A' for Active; 'I' for Inactive)
REMARK    1  A    between atoms: C_1  and  O_2
REMARK    2  A    between atoms: O_2  and  C_3
REMARK    3  A    between atoms: C_6  and  O_7
REMARK    4  A    between atoms: O_7  and  C_8
REMARK    5  A    between atoms: C_11  and  C_12
REMARK    6  A    between atoms: N_16  and  C_17
REMARK                            x       y       z     vdW  Elec       q    Type
REMARK                         _______ _______ _______ _____ _____    ______ ____
ROOT
ATOM      1  C   UNL     1       2.241   6.504  19.502  0.00  0.00    +0.000 A 
ATOM      2  C   UNL     1       2.635   7.656  18.804  0.00  0.00    +0.000 A 
ATOM      3  C   UNL     1       3.477   7.549  17.701  0.00  0.00    +0.000 A 
ATOM      4  C   UNL     1       3.965   6.301  17.287  0.00  0.00    +0.000 A 
ATOM      5  C   UNL     1       3.535   5.103  17.922  0.00  0.00    +0.000 A 
ATOM      6  C   UNL     1       2.605   5.216  19.012  0.00  0.00    +0.000 A 
ATOM      7  C   UNL     1       2.083   3.956  19.632  0.00  0.00    +0.000 A 
ATOM      8  C   UNL     1       1.021   3.904  20.698  0.00  0.00    +0.000 C 
ATOM      9  C   UNL     1       2.535   2.775  19.192  0.00  0.00    +0.000 A 
ATOM     10  C   UNL     1       3.530   2.630  18.132  0.00  0.00    +0.000 A 
ATOM     11  O   UNL     1       3.867   1.490  17.814  0.00  0.00    +0.000 OA
ATOM     12  N   UNL     1       4.008   3.788  17.547  0.00  0.00    +0.000 N 
ATOM     13  C   UNL     1       4.987   3.582  16.502  0.00  0.00    +0.000 C 
ENDROOT
BRANCH   1  15
ATOM     14  C   UNL     1       1.162   7.908  21.092  0.00  0.00    +0.000 C 
ATOM     15  O   UNL     1       1.514   6.599  20.652  0.00  0.00    +0.000 OA
ENDBRANCH   1  15
BRANCH   4  16
ATOM     16  O   UNL     1       5.042   6.382  16.435  0.00  0.00    +0.000 OA
ATOM     17  C   UNL     1       6.236   6.926  16.994  0.00  0.00    +0.000 C 
ENDBRANCH   4  16
TORSDOF 2
ENDMDL
MODEL 3
REMARK VINA RESULT:      -6.1      1.662      4.819
REMARK  Name = 
REMARK  6 active torsions:
REMARK  status: ('A' for Active; 'I' for Inactive)
REMARK    1  A    between atoms: C_1  and  O_2
REMARK    2  A    between atoms: O_2  and  C_3
REMARK    3  A    between atoms: C_6  and  O_7
REMARK    4  A    between atoms: O_7  and  C_8
REMARK    5  A    between atoms: C_11  and  C_12
REMARK    6  A    between atoms: N_16  and  C_17
REMARK                            x       y       z     vdW  Elec       q    Type
REMARK                         _______ _______ _______ _____ _____    ______ ____
ROOT
ATOM      1  C   UNL     1       2.625   4.283  19.893  0.00  0.00    +0.000 A 
ATOM      2  C   UNL     1       1.998   5.458  20.334  0.00  0.00    +0.000 A 
ATOM      3  C   UNL     1       2.174   6.647  19.630  0.00  0.00    +0.000 A 
ATOM      4  C   UNL     1       2.995   6.696  18.494  0.00  0.00    +0.000 A 
ATOM      5  C   UNL     1       3.591   5.513  17.975  0.00  0.00    +0.000 A 
ATOM      6  C   UNL     1       3.343   4.276  18.662  0.00  0.00    +0.000 A 
ATOM      7  C   UNL     1       3.898   3.014  18.075  0.00  0.00    +0.000 A 
ATOM      8  C   UNL     1       3.628   1.632  18.609  0.00  0.00    +0.000 C 
ATOM      9  C   UNL     1       4.646   3.082  16.968  0.00  0.00    +0.000 A 
ATOM     10  C   UNL     1       4.972   4.333  16.284  0.00  0.00    +0.000 A 
ATOM     11  O   UNL     1       5.670   4.267  15.273  0.00  0.00    +0.000 OA
ATOM     12  N   UNL     1       4.454   5.500  16.813  0.00  0.00    +0.000 N 
ATOM     13  C   UNL     1       4.807   6.703  16.092  0.00  0.00    +0.000 C 
ENDROOT
BRANCH   1  15
ATOM     14  C   UNL     1       1.332   2.868  21.305  0.00  0.00    +0.000 C 
ATOM     15  O   UNL     1       2.560   3.138  20.634  0.00  0.00    +0.000 OA
ENDBRANCH   1  15
BRANCH   4  16
ATOM     16  O   UNL     1       3.355   7.970  18.125  0.00  0.00    +0.000 OA
ATOM     17  C   UNL     1       2.278   8.871  17.873  0.00  0.00    +0.000 C 
ENDBRANCH   4  16
TORSDOF 2
ENDMDL
MODEL 4
REMARK VINA RESULT:      -6.0      1.275      4.820
REMARK  Name = 
REMARK  6 active torsions:
REMARK  status: ('A' for Active; 'I' for Inactive)
REMARK    1  A    between atoms: C_1  and  O_2
REMARK    2  A    between atoms: O_2  and  C_3
REMARK    3  A    between atoms: C_6  and  O_7
REMARK    4  A    between atoms: O_7  and  C_8
REMARK    5  A    between atoms: C_11  and  C_12
REMARK    6  A    between atoms: N_16  and  C_17
REMARK                            x       y       z     vdW  Elec       q    Type
REMARK                         _______ _______ _______ _____ _____    ______ ____
ROOT
ATOM      1  C   UNL     1       2.976   7.104  18.501  0.00  0.00    +0.000 A 
ATOM      2  C   UNL     1       3.745   7.091  17.328  0.00  0.00    +0.000 A 
ATOM      3  C   UNL     1       4.469   5.954  16.981  0.00  0.00    +0.000 A 
ATOM      4  C   UNL     1       4.465   4.820  17.806  0.00  0.00    +0.000 A 
ATOM      5  C   UNL     1       3.645   4.767  18.967  0.00  0.00    +0.000 A 
ATOM      6  C   UNL     1       2.840   5.916  19.277  0.00  0.00    +0.000 A 
ATOM      7  C   UNL     1       1.912   5.837  20.450  0.00  0.00    +0.000 A 
ATOM      8  C   UNL     1       0.925   6.908  20.832  0.00  0.00    +0.000 C 
ATOM      9  C   UNL     1       1.898   4.729  21.199  0.00  0.00    +0.000 A 
ATOM     10  C   UNL     1       2.753   3.569  20.949  0.00  0.00    +0.000 A 
ATOM     11  O   UNL     1       2.649   2.606  21.709  0.00  0.00    +0.000 OA
ATOM     12  N   UNL     1       3.604   3.630  19.862  0.00  0.00    +0.000 N 
ATOM     13  C   UNL     1       4.421   2.453  19.663  0.00  0.00    +0.000 C 
ENDROOT
BRANCH   1  15
ATOM     14  C   UNL     1       1.887   9.135  17.906  0.00  0.00    +0.000 C 
ATOM     15  O   UNL     1       2.356   8.247  18.916  0.00  0.00    +0.000 OA
ENDBRANCH   1  15
BRANCH   4  16
ATOM     16  O   UNL     1       5.481   3.934  17.534  0.00  0.00    +0.000 OA
ATOM     17  C   UNL     1       6.699   4.510  17.067  0.00  0.00    +0.000 C 
ENDBRANCH   4  16
TORSDOF 2
ENDMDL
MODEL 5
REMARK VINA RESULT:      -5.9      1.442      3.872
REMARK  Name = 
REMARK  6 active torsions:
REMARK  status: ('A' for Active; 'I' for Inactive)
REMARK    1  A    between atoms: C_1  and  O_2
REMARK    2  A    between atoms: O_2  and  C_3
REMARK    3  A    between atoms: C_6  and  O_7
REMARK    4  A    between atoms: O_7  and  C_8
REMARK    5  A    between atoms: C_11  and  C_12
REMARK    6  A    between atoms: N_16  and  C_17
REMARK                            x       y       z     vdW  Elec       q    Type
REMARK                         _______ _______ _______ _____ _____    ______ ____
ROOT
ATOM      1  C   UNL     1       4.382   4.607  16.978  0.00  0.00    +0.000 A 
ATOM      2  C   UNL     1       4.694   5.944  16.691  0.00  0.00    +0.000 A 
ATOM      3  C   UNL     1       4.143   6.968  17.456  0.00  0.00    +0.000 A 
ATOM      4  C   UNL     1       3.251   6.686  18.501  0.00  0.00    +0.000 A 
ATOM      5  C   UNL     1       2.963   5.342  18.869  0.00  0.00    +0.000 A 
ATOM      6  C   UNL     1       3.597   4.289  18.124  0.00  0.00    +0.000 A 
ATOM      7  C   UNL     1       3.365   2.874  18.559  0.00  0.00    +0.000 A 
ATOM      8  C   UNL     1       4.047   1.673  17.958  0.00  0.00    +0.000 C 
ATOM      9  C   UNL     1       2.540   2.632  19.584  0.00  0.00    +0.000 A 
ATOM     10  C   UNL     1       1.829   3.677  20.318  0.00  0.00    +0.000 A 
ATOM     11  O   UNL     1       1.097   3.329  21.244  0.00  0.00    +0.000 OA
ATOM     12  N   UNL     1       2.047   4.986  19.930  0.00  0.00    +0.000 N 
ATOM     13  C   UNL     1       1.319   5.975  20.695  0.00  0.00    +0.000 C 
ENDROOT
BRANCH   1  15
ATOM     14  C   UNL     1       5.954   3.869  15.351  0.00  0.00    +0.000 C 
ATOM     15  O   UNL     1       4.819   3.599  16.168  0.00  0.00    +0.000 OA
ENDBRANCH   1  15
BRANCH   4  16
ATOM     16  O   UNL     1       2.525   7.775  18.920  0.00  0.00    +0.000 OA
ATOM     17  C   UNL     1       2.114   8.679  17.895  0.00  0.00    +0.000 C 
ENDBRANCH   4  16
TORSDOF 2
ENDMDL
MODEL 6
REMARK VINA RESULT:      -5.7      1.633      3.972
REMARK  Name = 
REMARK  6 active torsions:
REMARK  status: ('A' for Active; 'I' for Inactive)
REMARK    1  A    between atoms: C_1  and  O_2
REMARK    2  A    between atoms: O_2  and  C_3
REMARK    3  A    between atoms: C_6  and  O_7
REMARK    4  A    between atoms: O_7  and  C_8
REMARK    5  A    between atoms: C_11  and  C_12
REMARK    6  A    between atoms: N_16  and  C_17
REMARK                            x       y       z     vdW  Elec       q    Type
REMARK                         _______ _______ _______ _____ _____    ______ ____
ROOT
ATOM      1  C   UNL     1       2.503   6.767  19.248  0.00  0.00    +0.000 A 
ATOM      2  C   UNL     1       1.801   6.385  20.402  0.00  0.00    +0.000 A 
ATOM      3  C   UNL     1       1.753   5.044  20.775  0.00  0.00    +0.000 A 
ATOM      4  C   UNL     1       2.375   4.057  19.997  0.00  0.00    +0.000 A 
ATOM      5  C   UNL     1       3.155   4.411  18.860  0.00  0.00    +0.000 A 
ATOM      6  C   UNL     1       3.264   5.804  18.525  0.00  0.00    +0.000 A 
ATOM      7  C   UNL     1       4.149   6.190  17.380  0.00  0.00    +0.000 A 
ATOM      8  C   UNL     1       4.459   7.609  16.980  0.00  0.00    +0.000 C 
ATOM      9  C   UNL     1       4.764   5.232  16.676  0.00  0.00    +0.000 A 
ATOM     10  C   UNL     1       4.619   3.804  16.951  0.00  0.00    +0.000 A 
ATOM     11  O   UNL     1       5.237   3.017  16.233  0.00  0.00    +0.000 OA
ATOM     12  N   UNL     1       3.813   3.440  18.013  0.00  0.00    +0.000 N 
ATOM     13  C   UNL     1       3.712   2.015  18.238  0.00  0.00    +0.000 C 
ENDROOT
BRANCH   1  15
ATOM     14  C   UNL     1       1.432   8.892  19.323  0.00  0.00    +0.000 C 
ATOM     15  O   UNL     1       2.463   8.057  18.804  0.00  0.00    +0.000 OA
ENDBRANCH   1  15
BRANCH   4  16
ATOM     16  O   UNL     1       1.951   2.780  20.278  0.00  0.00    +0.000 OA
ATOM     17  C   UNL     1       1.513   2.552  21.616  0.00  0.00    +0.000 C 
ENDBRANCH   4  16
TORSDOF 2
ENDMDL
MODEL 7
REMARK VINA RESULT:      -5.7      1.474      3.965
REMARK  Name = 
REMARK  6 active torsions:
REMARK  status: ('A' for Active; 'I' for Inactive)
REMARK    1  A    between atoms: C_1  and  O_2
REMARK    2  A    between atoms: O_2  and  C_3
REMARK    3  A    between atoms: C_6  and  O_7
REMARK    4  A    between atoms: O_7  and  C_8
REMARK    5  A    between atoms: C_11  and  C_12
REMARK    6  A    between atoms: N_16  and  C_17
REMARK                            x       y       z     vdW  Elec       q    Type
REMARK                         _______ _______ _______ _____ _____    ______ ____
ROOT
ATOM      1  C   UNL     1       3.742   3.581  18.825  0.00  0.00    +0.000 A 
ATOM      2  C   UNL     1       4.674   3.567  17.777  0.00  0.00    +0.000 A 
ATOM      3  C   UNL     1       4.955   4.739  17.079  0.00  0.00    +0.000 A 
ATOM      4  C   UNL     1       4.296   5.937  17.390  0.00  0.00    +0.000 A 
ATOM      5  C   UNL     1       3.397   6.009  18.490  0.00  0.00    +0.000 A 
ATOM      6  C   UNL     1       3.171   4.814  19.255  0.00  0.00    +0.000 A 
ATOM      7  C   UNL     1       2.291   4.901  20.464  0.00  0.00    +0.000 A 
ATOM      8  C   UNL     1       2.051   3.771  21.430  0.00  0.00    +0.000 C 
ATOM      9  C   UNL     1       1.704   6.066  20.763  0.00  0.00    +0.000 A 
ATOM     10  C   UNL     1       1.861   7.282  19.967  0.00  0.00    +0.000 A 
ATOM     11  O   UNL     1       1.270   8.294  20.344  0.00  0.00    +0.000 OA
ATOM     12  N   UNL     1       2.680   7.212  18.856  0.00  0.00    +0.000 N 
ATOM     13  C   UNL     1       2.800   8.446  18.111  0.00  0.00    +0.000 C 
ENDROOT
BRANCH   1  15
ATOM     14  C   UNL     1       3.602   1.206  18.736  0.00  0.00    +0.000 C 
ATOM     15  O   UNL     1       3.369   2.422  19.442  0.00  0.00    +0.000 OA
ENDBRANCH   1  15
BRANCH   4  16
ATOM     16  O   UNL     1       4.401   6.898  16.412  0.00  0.00    +0.000 OA
ATOM     17  C   UNL     1       5.258   6.578  15.317  0.00  0.00    +0.000 C 
ENDBRANCH   4  16
TORSDOF 2
ENDMDL
MODEL 8
REMARK VINA RESULT:      -5.6      1.820      4.015
REMARK  Name = 
REMARK  6 active torsions:
REMARK  status: ('A' for Active; 'I' for Inactive)
REMARK    1  A    between atoms: C_1  and  O_2
REMARK    2  A    between atoms: O_2  and  C_3
REMARK    3  A    between atoms: C_6  and  O_7
REMARK    4  A    between atoms: O_7  and  C_8
REMARK    5  A    between atoms: C_11  and  C_12
REMARK    6  A    between atoms: N_16  and  C_17
REMARK                            x       y       z     vdW  Elec       q    Type
REMARK                         _______ _______ _______ _____ _____    ______ ____
ROOT
ATOM      1  C   UNL     1       2.240   6.281  19.716  0.00  0.00    +0.000 A 
ATOM      2  C   UNL     1       2.209   5.202  20.613  0.00  0.00    +0.000 A 
ATOM      3  C   UNL     1       3.000   4.080  20.380  0.00  0.00    +0.000 A 
ATOM      4  C   UNL     1       3.813   3.998  19.240  0.00  0.00    +0.000 A 
ATOM      5  C   UNL     1       3.926   5.097  18.345  0.00  0.00    +0.000 A 
ATOM      6  C   UNL     1       3.166   6.282  18.633  0.00  0.00    +0.000 A 
ATOM      7  C   UNL     1       3.343   7.472  17.742  0.00  0.00    +0.000 A 
ATOM      8  C   UNL     1       2.710   8.818  17.978  0.00  0.00    +0.000 C 
ATOM      9  C   UNL     1       4.155   7.381  16.682  0.00  0.00    +0.000 A 
ATOM     10  C   UNL     1       4.890   6.169  16.325  0.00  0.00    +0.000 A 
ATOM     11  O   UNL     1       5.608   6.209  15.326  0.00  0.00    +0.000 OA
ATOM     12  N   UNL     1       4.741   5.070  17.149  0.00  0.00    +0.000 N 
ATOM     13  C   UNL     1       5.495   3.903  16.747  0.00  0.00    +0.000 C 
ENDROOT
BRANCH   1  15
ATOM     14  C   UNL     1       1.297   7.921  21.161  0.00  0.00    +0.000 C 
ATOM     15  O   UNL     1       1.386   7.336  19.865  0.00  0.00    +0.000 OA
ENDBRANCH   1  15
BRANCH   4  16
ATOM     16  O   UNL     1       4.246   2.723  18.960  0.00  0.00    +0.000 OA
ATOM     17  C   UNL     1       3.227   1.776  18.645  0.00  0.00    +0.000 C 
ENDBRANCH   4  16
TORSDOF 2
ENDMDL
MODEL 9
REMARK VINA RESULT:      -5.6      1.692      2.273
REMARK  Name = 
REMARK  6 active torsions:
REMARK  status: ('A' for Active; 'I' for Inactive)
REMARK    1  A    between atoms: C_1  and  O_2
REMARK    2  A    between atoms: O_2  and  C_3
REMARK    3  A    between atoms: C_6  and  O_7
REMARK    4  A    between atoms: O_7  and  C_8
REMARK    5  A    between atoms: C_11  and  C_12
REMARK    6  A    between atoms: N_16  and  C_17
REMARK                            x       y       z     vdW  Elec       q    Type
REMARK                         _______ _______ _______ _____ _____    ______ ____
ROOT
ATOM      1  C   UNL     1       4.330   5.219  17.017  0.00  0.00    +0.000 A 
ATOM      2  C   UNL     1       4.612   3.865  16.782  0.00  0.00    +0.000 A 
ATOM      3  C   UNL     1       4.139   2.893  17.660  0.00  0.00    +0.000 A 
ATOM      4  C   UNL     1       3.404   3.249  18.800  0.00  0.00    +0.000 A 
ATOM      5  C   UNL     1       3.037   4.603  19.036  0.00  0.00    +0.000 A 
ATOM      6  C   UNL     1       3.463   5.592  18.084  0.00  0.00    +0.000 A 
ATOM      7  C   UNL     1       3.011   7.007  18.281  0.00  0.00    +0.000 A 
ATOM      8  C   UNL     1       3.273   8.131  17.314  0.00  0.00    +0.000 C 
ATOM      9  C   UNL     1       2.276   7.315  19.357  0.00  0.00    +0.000 A 
ATOM     10  C   UNL     1       1.884   6.344  20.377  0.00  0.00    +0.000 A 
ATOM     11  O   UNL     1       1.206   6.748  21.321  0.00  0.00    +0.000 OA
ATOM     12  N   UNL     1       2.288   5.035  20.196  0.00  0.00    +0.000 N 
ATOM     13  C   UNL     1       1.867   4.120  21.235  0.00  0.00    +0.000 C 
ENDROOT
BRANCH   1  15
ATOM     14  C   UNL     1       5.592   5.768  15.074  0.00  0.00    +0.000 C 
ATOM     15  O   UNL     1       4.882   6.192  16.234  0.00  0.00    +0.000 OA
ENDBRANCH   1  15
BRANCH   4  16
ATOM     16  O   UNL     1       3.318   2.249  19.738  0.00  0.00    +0.000 OA
ATOM     17  C   UNL     1       4.550   1.853  20.339  0.00  0.00    +0.000 C 
ENDBRANCH   4  16
TORSDOF 2
ENDMDL
